REMARK  Name = ZINC19627788
REMARK  12 active torsions:
REMARK  status: ('A' for Active; 'I' for Inactive)
REMARK    1  A    between atoms: C_1  and  C_2
REMARK    2  A    between atoms: C_2  and  C_3
REMARK    3  A    between atoms: C_3  and  C_4
REMARK    4  A    between atoms: C_4  and  N_5
REMARK    5  A    between atoms: N_5  and  C_6
REMARK    6  A    between atoms: C_7  and  N_19
REMARK    7  A    between atoms: N_8  and  C_15
REMARK    8  A    between atoms: C_15  and  C_16
REMARK    9  A    between atoms: C_16  and  C_17
REMARK   10  A    between atoms: C_16  and  C_18
REMARK   11  A    between atoms: C_20  and  C_22
REMARK   12  A    between atoms: C_25  and  C_27
REMARK                            x       y       z     vdW  Elec       q    Type
REMARK                         _______ _______ _______ _____ _____    ______ ____
ROOT
ATOM      1  N   UNL     1       1.454  -2.526   2.406  0.00  0.00    -0.258 N 
ATOM      2  C   UNL     1       2.765  -2.813   2.290  0.00  0.00    +0.286 C 
ATOM      3  O   UNL     1       3.368  -3.301   3.229  0.00  0.00    -0.266 OA
ENDROOT
BRANCH   1   4
ATOM      4  C   UNL     1       0.807  -2.674   3.651  0.00  0.00    +0.140 A 
ATOM      5  C   UNL     1      -0.189  -3.614   3.817  0.00  0.00    +0.127 A 
ATOM      6  N   UNL     1      -0.800  -3.735   5.044  0.00  0.00    -0.280 N 
ATOM      7  C   UNL     1      -0.432  -2.945   6.069  0.00  0.00    +0.331 A 
ATOM      8  O   UNL     1      -0.984  -3.068   7.145  0.00  0.00    -0.246 OA
ATOM      9  N   UNL     1       0.537  -2.024   5.926  0.00  0.00    -0.273 N 
ATOM     10  H   UNL     1       0.784  -1.467   6.680  0.00  0.00    +0.173 HD
ATOM     11  C   UNL     1       1.171  -1.869   4.747  0.00  0.00    +0.277 A 
ATOM     12  O   UNL     1       2.052  -1.033   4.629  0.00  0.00    -0.266 OA
BRANCH   5  13
ATOM     13  N   UNL     1      -0.566  -4.420   2.770  0.00  0.00    -0.343 N 
ATOM     14  H   UNL     1      -0.183  -4.282   1.889  0.00  0.00    +0.144 HD
ATOM     15  H   UNL     1      -1.214  -5.127   2.911  0.00  0.00    +0.144 HD
ENDBRANCH   5  13
BRANCH   6  16
ATOM     16  C   UNL     1      -1.859  -4.729   5.234  0.00  0.00    +0.131 C 
BRANCH  16  17
ATOM     17  C   UNL     1      -1.241  -6.050   5.697  0.00  0.00    +0.003 C 
ATOM     18  C   UNL     1      -0.609  -5.862   7.077  0.00  0.00    +0.009 C 
ATOM     19  C   UNL     1      -2.330  -7.122   5.776  0.00  0.00    +0.009 C 
ENDBRANCH  16  17
ENDBRANCH   6  16
ENDBRANCH   1   4
BRANCH   2  20
ATOM     20  C   UNL     1       3.466  -2.539   1.033  0.00  0.00    +0.190 A 
ATOM     21  C   UNL     1       4.768  -2.882   0.741  0.00  0.00    +0.055 A 
ATOM     22  C   UNL     1       5.023  -2.432  -0.558  0.00  0.00    +0.050 A 
ATOM     23  C   UNL     1       3.880  -1.836  -1.008  0.00  0.00    +0.136 A 
ATOM     24  O   UNL     1       2.947  -1.911  -0.044  0.00  0.00    -0.450 OA
BRANCH  23  25
ATOM     25  C   UNL     1       3.697  -1.217  -2.336  0.00  0.00    +0.017 A 
ATOM     26  C   UNL     1       4.745  -1.214  -3.259  0.00  0.00    +0.013 A 
ATOM     27  C   UNL     1       4.568  -0.634  -4.498  0.00  0.00    +0.021 A 
ATOM     28  C   UNL     1       3.353  -0.057  -4.828  0.00  0.00    +0.041 A 
ATOM     29  C   UNL     1       2.309  -0.057  -3.917  0.00  0.00    +0.021 A 
ATOM     30  C   UNL     1       2.473  -0.638  -2.677  0.00  0.00    +0.013 A 
ATOM     31 CL   UNL     1       3.138   0.670  -6.389  0.00  0.00    -0.084 Cl
ENDBRANCH  23  25
ENDBRANCH   2  20
BRANCH   1  32
ATOM     32  C   UNL     1       0.700  -2.059   1.240  0.00  0.00    +0.114 C 
BRANCH  32  33
ATOM     33  C   UNL     1       0.673  -0.529   1.229  0.00  0.00    +0.019 C 
BRANCH  33  35
ATOM     34  C   UNL     1      -0.142   1.487  -0.000  0.00  0.00    +0.004 C 
ATOM     35  C   UNL     1      -0.115  -0.042   0.011  0.00  0.00    -0.002 C 
ENDBRANCH  33  35
ENDBRANCH  32  33
ENDBRANCH   1  32
TORSDOF 9
