REMARK  Name = ZINC00820481
REMARK  8 active torsions:
REMARK  status: ('A' for Active; 'I' for Inactive)
REMARK    1  A    between atoms: C_3  and  N_31
REMARK    2  A    between atoms: C_5  and  O_7
REMARK    3  A    between atoms: O_7  and  C_8
REMARK    4  A    between atoms: C_11  and  S_14
REMARK    5  A    between atoms: S_14  and  C_17
REMARK    6  A    between atoms: C_20  and  O_23
REMARK    7  A    between atoms: O_23  and  C_24
REMARK    8  A    between atoms: C_28  and  N_30
REMARK                            x       y       z     vdW  Elec       q    Type
REMARK                         _______ _______ _______ _____ _____    ______ ____
ROOT
ATOM      1  S   UNL     1       7.380   0.842   0.388  0.00  0.00    +0.025 S 
ATOM      2  O   UNL     1       7.096  -0.424  -0.192  0.00  0.00    -0.164 OA
ATOM      3  O   UNL     1       8.434   1.673  -0.077  0.00  0.00    -0.164 OA
ENDROOT
BRANCH   1   7
ATOM      4  C   UNL     1       3.578   3.284   0.086  0.00  0.00    +0.129 A 
ATOM      5  C   UNL     1       3.516   1.898   0.083  0.00  0.00    +0.048 A 
ATOM      6  C   UNL     1       4.677   1.155   0.170  0.00  0.00    +0.031 A 
ATOM      7  C   UNL     1       5.901   1.792   0.271  0.00  0.00    +0.094 A 
ATOM      8  C   UNL     1       5.965   3.173   0.280  0.00  0.00    +0.031 A 
ATOM      9  C   UNL     1       4.807   3.921   0.188  0.00  0.00    +0.048 A 
BRANCH   4  10
ATOM     10  O   UNL     1       2.438   4.017  -0.004  0.00  0.00    -0.456 OA
BRANCH  10  15
ATOM     11  C   UNL     1      -0.761   2.647  -1.072  0.00  0.00    +0.005 A 
ATOM     12  C   UNL     1      -1.175   2.017   0.087  0.00  0.00    +0.023 A 
ATOM     13  C   UNL     1      -0.372   2.049   1.220  0.00  0.00    +0.028 A 
ATOM     14  C   UNL     1       0.842   2.722   1.190  0.00  0.00    +0.069 A 
ATOM     15  C   UNL     1       1.251   3.357   0.028  0.00  0.00    +0.130 A 
ATOM     16  C   UNL     1       0.447   3.317  -1.103  0.00  0.00    +0.046 A 
BRANCH  13  17
ATOM     17  N   UNL     1      -0.788   1.408   2.390  0.00  0.00    -0.358 N 
ATOM     18  H   UNL     1      -0.229   1.434   3.182  0.00  0.00    +0.142 HD
ATOM     19  H   UNL     1      -1.636   0.938   2.410  0.00  0.00    +0.142 HD
ENDBRANCH  13  17
ENDBRANCH  10  15
ENDBRANCH   4  10
ENDBRANCH   1   7
BRANCH   1  20
ATOM     20  C   UNL     1       7.681   0.556   2.100  0.00  0.00    +0.094 A 
ATOM     21  C   UNL     1       8.447   1.450   2.825  0.00  0.00    +0.031 A 
ATOM     22  C   UNL     1       8.681   1.230   4.168  0.00  0.00    +0.048 A 
ATOM     23  C   UNL     1       8.154   0.106   4.789  0.00  0.00    +0.129 A 
ATOM     24  C   UNL     1       7.389  -0.792   4.058  0.00  0.00    +0.048 A 
ATOM     25  C   UNL     1       7.155  -0.565   2.716  0.00  0.00    +0.031 A 
BRANCH  23  26
ATOM     26  O   UNL     1       8.386  -0.114   6.109  0.00  0.00    -0.456 OA
BRANCH  26  27
ATOM     27  C   UNL     1       7.687   0.624   7.011  0.00  0.00    +0.130 A 
ATOM     28  C   UNL     1       6.839   1.633   6.575  0.00  0.00    +0.046 A 
ATOM     29  C   UNL     1       6.128   2.384   7.492  0.00  0.00    +0.005 A 
ATOM     30  C   UNL     1       6.257   2.133   8.844  0.00  0.00    +0.023 A 
ATOM     31  C   UNL     1       7.103   1.124   9.286  0.00  0.00    +0.028 A 
ATOM     32  C   UNL     1       7.815   0.365   8.367  0.00  0.00    +0.069 A 
BRANCH  31  33
ATOM     33  N   UNL     1       7.234   0.870  10.653  0.00  0.00    -0.358 N 
ATOM     34  H   UNL     1       6.734   1.398  11.295  0.00  0.00    +0.142 HD
ATOM     35  H   UNL     1       7.825   0.165  10.961  0.00  0.00    +0.142 HD
ENDBRANCH  31  33
ENDBRANCH  26  27
ENDBRANCH  23  26
ENDBRANCH   1  20
TORSDOF 8
