REMARK  Name = ZINC10784832
REMARK  12 active torsions:
REMARK  status: ('A' for Active; 'I' for Inactive)
REMARK    1  A    between atoms: C_1  and  C_2
REMARK    2  A    between atoms: C_5  and  C_8
REMARK    3  A    between atoms: C_11  and  S_14
REMARK    4  A    between atoms: N_12  and  N_13
REMARK    5  A    between atoms: S_14  and  C_15
REMARK    6  A    between atoms: C_15  and  C_17
REMARK    7  A    between atoms: C_15  and  C_18
REMARK    8  A    between atoms: N_20  and  C_21
REMARK    9  A    between atoms: C_23  and  O_29
REMARK   10  A    between atoms: C_26  and  O_27
REMARK   11  A    between atoms: O_27  and  C_28
REMARK   12  A    between atoms: O_29  and  C_30
REMARK                            x       y       z     vdW  Elec       q    Type
REMARK                         _______ _______ _______ _____ _____    ______ ____
ROOT
ATOM      1  S   UNL     1      -2.796   1.658   0.004  0.00  0.00    -0.072 S 
ENDROOT
BRANCH   1   5
ATOM      2  C   UNL     1       1.069   2.227  -0.043  0.00  0.00    +0.182 A 
ATOM      3  N   UNL     1       0.598   3.452  -0.032  0.00  0.00    -0.127 NA
ATOM      4  N   UNL     1      -0.687   3.428  -0.011  0.00  0.00    -0.121 NA
ATOM      5  C   UNL     1      -1.115   2.185  -0.013  0.00  0.00    +0.209 A 
ATOM      6  N   UNL     1      -0.013   1.378  -0.028  0.00  0.00    -0.224 N 
BRANCH   2  11
ATOM      7  C   UNL     1       6.616   0.698  -0.139  0.00  0.00    +0.044 C 
ATOM      8  C   UNL     1       5.164   1.098  -0.114  0.00  0.00    -0.050 A 
ATOM      9  C   UNL     1       4.803   2.399  -0.415  0.00  0.00    +0.004 A 
ATOM     10  C   UNL     1       3.475   2.772  -0.394  0.00  0.00    +0.012 A 
ATOM     11  C   UNL     1       2.494   1.834  -0.068  0.00  0.00    +0.021 A 
ATOM     12  C   UNL     1       2.866   0.524   0.240  0.00  0.00    +0.012 A 
ATOM     13  C   UNL     1       4.197   0.163   0.210  0.00  0.00    +0.004 A 
ENDBRANCH   2  11
BRANCH   6  14
ATOM     14  N   UNL     1       0.009   0.012  -0.033  0.00  0.00    -0.295 N 
ATOM     15  H   UNL     1       0.031  -0.353   0.908  0.00  0.00    +0.163 HD
ATOM     16  H   UNL     1      -0.774  -0.361  -0.547  0.00  0.00    +0.163 HD
ENDBRANCH   6  14
ENDBRANCH   1   5
BRANCH   1  17
ATOM     17  C   UNL     1      -3.628   3.265   0.019  0.00  0.00    +0.137 C 
ATOM     18  C   UNL     1      -3.336   4.003  -1.289  0.00  0.00    +0.029 C 
BRANCH  17  19
ATOM     19  C   UNL     1      -5.115   3.060   0.159  0.00  0.00    +0.230 C 
ATOM     20  O   UNL     1      -5.607   1.987  -0.119  0.00  0.00    -0.274 OA
ATOM     21  N   UNL     1      -5.897   4.068   0.593  0.00  0.00    -0.282 N 
ATOM     22  H   UNL     1      -5.495   4.899   0.891  0.00  0.00    +0.155 HD
BRANCH  21  23
ATOM     23  C   UNL     1      -7.290   3.916   0.613  0.00  0.00    +0.079 A 
ATOM     24  C   UNL     1      -7.902   3.012  -0.243  0.00  0.00    +0.072 A 
ATOM     25  C   UNL     1      -9.280   2.860  -0.217  0.00  0.00    +0.122 A 
ATOM     26  C   UNL     1     -10.046   3.618   0.655  0.00  0.00    +0.049 A 
ATOM     27  C   UNL     1      -9.439   4.524   1.505  0.00  0.00    +0.051 A 
ATOM     28  C   UNL     1      -8.062   4.676   1.487  0.00  0.00    +0.141 A 
BRANCH  28  29
ATOM     29  O   UNL     1      -7.465   5.568   2.323  0.00  0.00    -0.493 OA
ATOM     30  C   UNL     1      -8.319   6.314   3.193  0.00  0.00    +0.277 C 
ENDBRANCH  28  29
BRANCH  25  31
ATOM     31  O   UNL     1      -9.880   1.970  -1.051  0.00  0.00    -0.495 OA
ATOM     32  C   UNL     1     -11.304   1.869  -0.976  0.00  0.00    +0.277 C 
ENDBRANCH  25  31
ENDBRANCH  21  23
ENDBRANCH  17  19
ENDBRANCH   1  17
TORSDOF 8
