REMARK  Name = ZINC36591203
REMARK  22 active torsions:
REMARK  status: ('A' for Active; 'I' for Inactive)
REMARK    1  A    between atoms: C_1  and  C_2
REMARK    2  A    between atoms: C_2  and  C_3
REMARK    3  A    between atoms: C_3  and  C_4
REMARK    4  A    between atoms: C_3  and  C_6
REMARK    5  A    between atoms: C_4  and  C_5
REMARK    6  A    between atoms: C_6  and  C_8
REMARK    7  A    between atoms: C_6  and  N_19
REMARK    8  A    between atoms: N_10  and  C_11
REMARK    9  A    between atoms: C_11  and  C_12
REMARK   10  A    between atoms: C_11  and  C_13
REMARK   11  A    between atoms: C_11  and  C_14
REMARK   12  A    between atoms: C_14  and  C_15
REMARK   13  A    between atoms: C_15  and  C_16
REMARK   14  A    between atoms: C_15  and  C_17
REMARK   15  A    between atoms: C_15  and  C_18
REMARK   16  A    between atoms: N_19  and  C_32
REMARK   17  A    between atoms: C_20  and  C_22
REMARK   18  A    between atoms: C_22  and  N_23
REMARK   19  A    between atoms: C_24  and  C_26
REMARK   20  A    between atoms: C_32  and  C_33
REMARK   21  A    between atoms: C_32  and  C_34
REMARK   22  A    between atoms: C_32  and  C_35
REMARK                            x       y       z     vdW  Elec       q    Type
REMARK                         _______ _______ _______ _____ _____    ______ ____
ROOT
ATOM      1  C   UNL     1      -2.709  -0.303   1.384  0.00  0.00    +0.165 C 
ENDROOT
BRANCH   1   2
ATOM      2  C   UNL     1      -2.342   1.030   0.786  0.00  0.00    +0.234 C 
ATOM      3  O   UNL     1      -3.000   2.015   1.049  0.00  0.00    -0.274 OA
ATOM      4  N   UNL     1      -1.282   1.129  -0.041  0.00  0.00    -0.309 N 
ATOM      5  H   UNL     1      -0.805   0.330  -0.316  0.00  0.00    +0.149 HD
BRANCH   4   6
ATOM      6  C   UNL     1      -0.851   2.443  -0.525  0.00  0.00    +0.030 C 
ATOM      7  C   UNL     1      -1.976   3.080  -1.343  0.00  0.00    +0.031 C 
ATOM      8  C   UNL     1      -0.515   3.341   0.667  0.00  0.00    +0.031 C 
BRANCH   6   9
ATOM      9  C   UNL     1       0.390   2.279  -1.406  0.00  0.00    +0.031 C 
BRANCH   9  10
ATOM     10  C   UNL     1       1.389   1.351  -0.713  0.00  0.00    -0.036 C 
ATOM     11  C   UNL     1       0.993  -0.105  -0.966  0.00  0.00    +0.010 C 
ATOM     12  C   UNL     1       2.791   1.603  -1.271  0.00  0.00    +0.010 C 
ATOM     13  C   UNL     1       1.382   1.627   0.792  0.00  0.00    +0.010 C 
ENDBRANCH   9  10
ENDBRANCH   6   9
ENDBRANCH   4   6
ENDBRANCH   1   2
BRANCH   1  14
ATOM     14  N   UNL     1      -4.041  -0.217   1.989  0.00  0.00    -0.283 N 
ATOM     15  C   UNL     1      -4.196  -0.430   3.311  0.00  0.00    +0.234 C 
ATOM     16  O   UNL     1      -3.251  -0.784   3.983  0.00  0.00    -0.274 OA
BRANCH  14  17
ATOM     17  C   UNL     1      -5.204   0.101   1.157  0.00  0.00    +0.030 C 
ATOM     18  C   UNL     1      -5.747  -1.184   0.528  0.00  0.00    +0.031 C 
ATOM     19  C   UNL     1      -6.289   0.744   2.021  0.00  0.00    +0.031 C 
ATOM     20  C   UNL     1      -4.789   1.073   0.051  0.00  0.00    +0.031 C 
ENDBRANCH  14  17
BRANCH  15  21
ATOM     21  C   UNL     1      -5.544  -0.227   3.953  0.00  0.00    +0.200 C 
BRANCH  21  22
ATOM     22  N   UNL     1      -5.430  -0.427   5.400  0.00  0.00    -0.303 N 
ATOM     23  C   UNL     1      -6.517  -0.296   6.186  0.00  0.00    +0.244 C 
ATOM     24  O   UNL     1      -7.592  -0.013   5.694  0.00  0.00    -0.270 OA
ATOM     25  H   UNL     1      -4.572  -0.653   5.793  0.00  0.00    +0.150 HD
BRANCH  23  26
ATOM     26  C   UNL     1      -6.402  -0.498   7.646  0.00  0.00    +0.037 A 
ATOM     27  C   UNL     1      -5.168  -0.817   8.215  0.00  0.00    +0.013 A 
ATOM     28  C   UNL     1      -5.068  -1.004   9.578  0.00  0.00    +0.001 A 
ATOM     29  C   UNL     1      -6.187  -0.874  10.381  0.00  0.00    +0.000 A 
ATOM     30  C   UNL     1      -7.413  -0.558   9.824  0.00  0.00    +0.001 A 
ATOM     31  C   UNL     1      -7.526  -0.363   8.463  0.00  0.00    +0.013 A 
ENDBRANCH  23  26
ENDBRANCH  21  22
ENDBRANCH  15  21
ENDBRANCH   1  14
BRANCH   1  32
ATOM     32  C   UNL     1      -2.715  -1.370   0.288  0.00  0.00    +0.018 C 
BRANCH  32  34
ATOM     33  C   UNL     1      -2.389  -3.161   1.999  0.00  0.00    +0.004 C 
ATOM     34  C   UNL     1      -3.276  -2.677   0.851  0.00  0.00    +0.002 C 
ENDBRANCH  32  34
BRANCH  32  35
ATOM     35  C   UNL     1      -3.588  -0.899  -0.877  0.00  0.00    +0.002 C 
ATOM     36  C   UNL     1      -2.868   0.217  -1.636  0.00  0.00    +0.004 C 
ENDBRANCH  32  35
ENDBRANCH   1  32
TORSDOF 12
