REMARK  Name = ZINC05531346
REMARK  5 active torsions:
REMARK  status: ('A' for Active; 'I' for Inactive)
REMARK    1  A    between atoms: C_4  and  O_26
REMARK    2  A    between atoms: C_5  and  C_7
REMARK    3  A    between atoms: C_16  and  C_24
REMARK    4  A    between atoms: C_18  and  C_19
REMARK    5  A    between atoms: C_18  and  C_21
REMARK                            x       y       z     vdW  Elec       q    Type
REMARK                         _______ _______ _______ _____ _____    ______ ____
ROOT
ATOM      1  C   UNL     1      -2.551   3.880   0.049  0.00  0.00    +0.069 C 
ATOM      2  C   UNL     1      -2.604   4.859  -1.127  0.00  0.00    +0.027 C 
ATOM      3  C   UNL     1      -2.236   4.192  -2.432  0.00  0.00    +0.009 C 
ATOM      4  C   UNL     1      -3.472   3.805  -3.242  0.00  0.00    +0.005 C 
ATOM      5  C   UNL     1      -4.283   5.077  -3.522  0.00  0.00    +0.027 C 
ATOM      6  C   UNL     1      -4.705   5.655  -2.196  0.00  0.00    -0.026 C 
ATOM      7  C   UNL     1      -3.947   5.525  -1.125  0.00  0.00    -0.047 C 
ATOM      8  C   UNL     1      -4.454   6.015   0.184  0.00  0.00    +0.164 C 
ATOM      9  C   UNL     1      -3.856   5.595   1.327  0.00  0.00    +0.065 C 
ATOM     10  C   UNL     1      -2.679   4.666   1.354  0.00  0.00    +0.189 C 
ATOM     11  N   UNL     1      -4.354   6.041   2.519  0.00  0.00    -0.304 NA
ATOM     12  H   UNL     1      -5.114   6.643   2.532  0.00  0.00    +0.186 HD
ENDROOT
BRANCH   1  17
ATOM     13  C   UNL     1       1.155   3.166  -0.053  0.00  0.00    +0.001 A 
ATOM     14  C   UNL     1       1.175   1.784   0.000  0.00  0.00    +0.004 A 
ATOM     15  C   UNL     1      -0.010   1.078   0.069  0.00  0.00    +0.046 A 
ATOM     16  C   UNL     1      -1.221   1.755   0.079  0.00  0.00    +0.120 A 
ATOM     17  C   UNL     1      -1.238   3.141   0.031  0.00  0.00    +0.001 A 
ATOM     18  C   UNL     1      -0.050   3.844  -0.038  0.00  0.00    +0.007 A 
BRANCH  16  19
ATOM     19  O   UNL     1      -2.388   1.062   0.140  0.00  0.00    -0.506 OA
ATOM     20  H   UNL     1      -2.700   0.895   1.040  0.00  0.00    +0.292 HD
ENDBRANCH  16  19
ENDBRANCH   1  17
BRANCH  10  21
ATOM     21  C   UNL     1      -2.839   3.720   2.470  0.00  0.00    +0.091 C 
ATOM     22  N   UNL     1      -2.962   2.990   3.332  0.00  0.00    -0.195 NA
ENDBRANCH  10  21
BRANCH  10  23
ATOM     23  C   UNL     1      -1.452   5.452   1.563  0.00  0.00    +0.091 C 
ATOM     24  N   UNL     1      -0.506   6.058   1.725  0.00  0.00    -0.195 NA
ENDBRANCH  10  23
BRANCH   8  25
ATOM     25  C   UNL     1      -5.561   6.921   0.238  0.00  0.00    +0.076 C 
ATOM     26  N   UNL     1      -6.439   7.641   0.281  0.00  0.00    -0.196 NA
ENDBRANCH   8  25
TORSDOF 5
