REMARK  Name = ZINC35747332
REMARK  16 active torsions:
REMARK  status: ('A' for Active; 'I' for Inactive)
REMARK    1  A    between atoms: C_1  and  O_2
REMARK    2  A    between atoms: O_2  and  C_3
REMARK    3  A    between atoms: C_6  and  C_11
REMARK    4  A    between atoms: C_8  and  O_9
REMARK    5  A    between atoms: O_9  and  C_10
REMARK    6  A    between atoms: C_20  and  C_22
REMARK    7  A    between atoms: C_22  and  N_23
REMARK    8  A    between atoms: N_23  and  C_24
REMARK    9  A    between atoms: N_23  and  C_27
REMARK   10  A    between atoms: C_24  and  C_25
REMARK   11  A    between atoms: C_27  and  C_28
REMARK   12  A    between atoms: C_28  and  C_30
REMARK   13  A    between atoms: C_28  and  O_35
REMARK   14  A    between atoms: C_30  and  O_31
REMARK   15  A    between atoms: O_31  and  C_32
REMARK   16  A    between atoms: C_32  and  C_33
REMARK                            x       y       z     vdW  Elec       q    Type
REMARK                         _______ _______ _______ _____ _____    ______ ____
ROOT
ATOM      1  C   UNL     1       2.312  -3.917   4.562  0.00  0.00    +0.004 A 
ATOM      2  C   UNL     1       2.142  -5.205   4.948  0.00  0.00    +0.056 A 
ATOM      3  S   UNL     1       3.519  -5.493   6.042  0.00  0.00    -0.076 S 
ATOM      4  C   UNL     1       4.283  -3.894   5.956  0.00  0.00    +0.116 A 
ATOM      5  C   UNL     1       3.456  -3.176   5.077  0.00  0.00    +0.080 A 
ATOM      6  C   UNL     1       3.851  -1.825   4.819  0.00  0.00    +0.260 A 
ATOM      7  O   UNL     1       3.193  -1.120   4.073  0.00  0.00    -0.267 OA
ATOM      8  N   UNL     1       4.959  -1.344   5.413  0.00  0.00    -0.312 N 
ATOM      9  H   UNL     1       5.231  -0.429   5.242  0.00  0.00    +0.170 HD
ATOM     10  C   UNL     1       5.702  -2.114   6.248  0.00  0.00    +0.094 A 
ATOM     11  N   UNL     1       5.363  -3.348   6.510  0.00  0.00    -0.229 NA
ENDROOT
BRANCH   1  15
ATOM     12  C   UNL     1      -0.434  -2.072   1.883  0.00  0.00    +0.162 A 
ATOM     13  C   UNL     1      -0.082  -1.435   3.064  0.00  0.00    +0.050 A 
ATOM     14  C   UNL     1       0.808  -2.031   3.934  0.00  0.00    +0.012 A 
ATOM     15  C   UNL     1       1.355  -3.276   3.628  0.00  0.00    -0.013 A 
ATOM     16  C   UNL     1       1.002  -3.917   2.441  0.00  0.00    +0.058 A 
ATOM     17  C   UNL     1       0.106  -3.318   1.574  0.00  0.00    +0.162 A 
BRANCH  12  19
ATOM     18  C   UNL     1      -1.826  -0.203   1.408  0.00  0.00    +0.277 C 
ATOM     19  O   UNL     1      -1.311  -1.481   1.028  0.00  0.00    -0.491 OA
ENDBRANCH  12  19
BRANCH  17  20
ATOM     20  O   UNL     1      -0.245  -3.943   0.419  0.00  0.00    -0.491 OA
ATOM     21  C   UNL     1       0.347  -5.219   0.166  0.00  0.00    +0.277 C 
ENDBRANCH  17  20
ENDBRANCH   1  15
BRANCH  10  22
ATOM     22  C   UNL     1       6.935  -1.533   6.891  0.00  0.00    -0.003 C 
BRANCH  22  23
ATOM     23  N   UNL     1       7.527  -2.523   7.799  0.00  0.00    +0.388 N 
ATOM     24  H   UNL     1       6.821  -2.861   8.436  0.00  0.00    -0.081 HD
BRANCH  23  25
ATOM     25  C   UNL     1       8.616  -1.899   8.563  0.00  0.00    -0.051 C 
BRANCH  25  26
ATOM     26  C   UNL     1       8.061  -0.777   9.402  0.00  0.00    -0.053 C 
ATOM     27  C   UNL     1       8.268  -0.762  10.695  0.00  0.00    +0.002 C 
ENDBRANCH  25  26
ENDBRANCH  23  25
BRANCH  23  28
ATOM     28  C   UNL     1       8.060  -3.648   7.018  0.00  0.00    -0.044 C 
BRANCH  28  29
ATOM     29  C   UNL     1       8.503  -4.763   7.966  0.00  0.00    +0.124 C 
BRANCH  29  30
ATOM     30  O   UNL     1       9.652  -4.335   8.701  0.00  0.00    -0.391 OA
ATOM     31  H   UNL     1      10.412  -4.112   8.147  0.00  0.00    +0.210 HD
ENDBRANCH  29  30
BRANCH  29  32
ATOM     32  C   UNL     1       8.853  -6.013   7.155  0.00  0.00    +0.190 C 
BRANCH  32  33
ATOM     33  O   UNL     1       9.155  -7.089   8.046  0.00  0.00    -0.365 OA
BRANCH  33  34
ATOM     34  C   UNL     1       9.497  -8.310   7.387  0.00  0.00    +0.248 C 
BRANCH  34  35
ATOM     35  C   UNL     1       9.788  -9.345   8.392  0.00  0.00    -0.077 C 
ATOM     36  C   UNL     1      10.019 -10.171   9.193  0.00  0.00    +0.006 C 
ENDBRANCH  34  35
ENDBRANCH  33  34
ENDBRANCH  32  33
ENDBRANCH  29  32
ENDBRANCH  28  29
ENDBRANCH  23  28
ENDBRANCH  22  23
ENDBRANCH  10  22
TORSDOF 14
