REMARK  Name = ZINC56947494
REMARK  8 active torsions:
REMARK  status: ('A' for Active; 'I' for Inactive)
REMARK    1  A    between atoms: C_1  and  C_2
REMARK    2  A    between atoms: C_5  and  C_31
REMARK    3  A    between atoms: N_8  and  C_10
REMARK    4  A    between atoms: C_10  and  C_11
REMARK    5  A    between atoms: C_11  and  C_13
REMARK    6  A    between atoms: C_11  and  N_14
REMARK    7  A    between atoms: C_25  and  N_26
REMARK    8  A    between atoms: C_27  and  C_29
REMARK                            x       y       z     vdW  Elec       q    Type
REMARK                         _______ _______ _______ _____ _____    ______ ____
ROOT
ATOM      1  N   UNL     1       3.508  -2.520   0.965  0.00  0.00    -0.298 N 
ATOM      2  C   UNL     1       4.533  -1.873   0.375  0.00  0.00    +0.303 C 
ATOM      3  O   UNL     1       4.970  -0.851   0.867  0.00  0.00    -0.253 OA
ATOM      4  N   UNL     1       5.073  -2.360  -0.759  0.00  0.00    -0.281 N 
ATOM      5  C   UNL     1       6.264  -1.742  -1.366  0.00  0.00    +0.114 C 
ATOM      6  C   UNL     1       7.399  -2.765  -1.320  0.00  0.00    +0.056 C 
ATOM      7  C   UNL     1       6.930  -4.109  -1.810  0.00  0.00    -0.020 A 
ATOM      8  C   UNL     1       5.602  -4.467  -1.853  0.00  0.00    -0.025 A 
ATOM      9  C   UNL     1       5.240  -5.730  -2.302  0.00  0.00    +0.005 A 
ATOM     10  C   UNL     1       6.200  -6.631  -2.718  0.00  0.00    +0.002 A 
ATOM     11  C   UNL     1       7.534  -6.276  -2.687  0.00  0.00    +0.023 A 
ATOM     12  C   UNL     1       7.900  -5.018  -2.233  0.00  0.00    +0.037 A 
ATOM     13  C   UNL     1       4.502  -3.529  -1.436  0.00  0.00    +0.144 C 
ATOM     14  H   UNL     1       3.110  -3.293   0.534  0.00  0.00    +0.150 HD
ENDROOT
BRANCH  12  15
ATOM     15  N   UNL     1       9.252  -4.658  -2.201  0.00  0.00    -0.285 N 
ATOM     16  C   UNL     1      10.092  -5.107  -3.154  0.00  0.00    +0.214 C 
ATOM     17  O   UNL     1       9.696  -5.889  -3.992  0.00  0.00    -0.276 OA
ATOM     18  C   UNL     1      11.524  -4.637  -3.178  0.00  0.00    +0.109 C 
ATOM     19  H   UNL     1       9.584  -4.085  -1.492  0.00  0.00    +0.155 HD
ENDBRANCH  12  15
BRANCH   1  20
ATOM     20  C   UNL     1       2.994  -2.055   2.256  0.00  0.00    +0.055 C 
ATOM     21  C   UNL     1       3.832  -2.658   3.385  0.00  0.00    +0.026 C 
BRANCH  20  22
ATOM     22  C   UNL     1       1.536  -2.493   2.412  0.00  0.00    -0.057 C 
BRANCH  22  28
ATOM     23  C   UNL     1      -0.038   1.489   0.039  0.00  0.00    +0.005 C 
ATOM     24  C   UNL     1      -0.012  -0.041   0.030  0.00  0.00    -0.031 C 
ATOM     25  C   UNL     1      -1.447  -0.576   0.049  0.00  0.00    +0.003 C 
ATOM     26  C   UNL     1      -1.409  -2.106   0.119  0.00  0.00    -0.031 C 
ATOM     27  C   UNL     1      -0.614  -2.535   1.353  0.00  0.00    -0.076 C 
ATOM     28  N   UNL     1       0.755  -2.014   1.264  0.00  0.00    +0.381 N 
ATOM     29  C   UNL     1       0.732  -0.546   1.268  0.00  0.00    -0.076 C 
ATOM     30  C   UNL     1      -0.738  -2.659  -1.140  0.00  0.00    +0.005 C 
ATOM     31  H   UNL     1       1.183  -2.340   0.409  0.00  0.00    -0.082 HD
ENDBRANCH  22  28
ENDBRANCH  20  22
ENDBRANCH   1  20
TORSDOF 4
