REMARK  Name = ZINC51355182
REMARK  7 active torsions:
REMARK  status: ('A' for Active; 'I' for Inactive)
REMARK    1  A    between atoms: C_4  and  S_11
REMARK    2  A    between atoms: C_6  and  C_7
REMARK    3  A    between atoms: S_11  and  N_14
REMARK    4  A    between atoms: N_14  and  C_15
REMARK    5  A    between atoms: C_15  and  C_16
REMARK    6  A    between atoms: C_16  and  C_17
REMARK    7  A    between atoms: C_17  and  N_18
REMARK                            x       y       z     vdW  Elec       q    Type
REMARK                         _______ _______ _______ _____ _____    ______ ____
ROOT
ATOM      1  S   UNL     1       3.954  -0.807  -0.041  0.00  0.00    +0.061 S 
ATOM      2  O   UNL     1       3.870  -1.782  -1.071  0.00  0.00    -0.153 OA
ATOM      3  O   UNL     1       4.965   0.192  -0.019  0.00  0.00    -0.153 OA
ENDROOT
BRANCH   1   7
ATOM      4  C   UNL     1      -0.017   1.394   0.010  0.00  0.00    +0.033 A 
ATOM      5  C   UNL     1       1.170   2.096   0.002  0.00  0.00    +0.021 A 
ATOM      6  C   UNL     1       2.380   1.421  -0.013  0.00  0.00    +0.046 A 
ATOM      7  C   UNL     1       2.409   0.040  -0.021  0.00  0.00    +0.142 A 
ATOM      8  C   UNL     1       1.228  -0.680  -0.014  0.00  0.00    +0.164 A 
ATOM      9  C   UNL     1       0.002  -0.004   0.002  0.00  0.00    +0.101 A 
ATOM     10  F   UNL     1       1.257  -2.031  -0.022  0.00  0.00    -0.203 F 
ATOM     11 BR   UNL     1       1.145   3.987   0.013  0.00  0.00    -0.050 Br
BRANCH   9  12
ATOM     12  C   UNL     1      -1.262  -0.762   0.011  0.00  0.00    +0.389 C 
ATOM     13  O   UNL     1      -2.331  -0.168   0.024  0.00  0.00    -0.240 OA
ATOM     14  O   UNL     1      -1.241  -1.985   0.004  0.00  0.00    -0.240 OA
ENDBRANCH   9  12
ENDBRANCH   1   7
BRANCH   1  15
ATOM     15  N   UNL     1       4.076  -1.636   1.387  0.00  0.00    -0.190 NA
ATOM     16  H   UNL     1       4.765  -1.399   2.028  0.00  0.00    +0.148 HD
BRANCH  15  17
ATOM     17  C   UNL     1       3.145  -2.728   1.682  0.00  0.00    +0.104 C 
BRANCH  17  18
ATOM     18  C   UNL     1       3.685  -3.557   2.850  0.00  0.00    -0.003 C 
BRANCH  18  19
ATOM     19  C   UNL     1       2.712  -4.697   3.158  0.00  0.00    -0.085 C 
BRANCH  19  20
ATOM     20  N   UNL     1       3.230  -5.493   4.279  0.00  0.00    +0.378 N 
ATOM     21  H   UNL     1       4.130  -5.877   4.031  0.00  0.00    -0.090 HD
ATOM     22  H   UNL     1       3.327  -4.905   5.093  0.00  0.00    -0.090 HD
ATOM     23  H   UNL     1       2.588  -6.245   4.482  0.00  0.00    -0.090 HD
ENDBRANCH  19  20
ENDBRANCH  18  19
ENDBRANCH  17  18
ENDBRANCH  15  17
ENDBRANCH   1  15
TORSDOF 7
