REMARK  Name = ZINC59531706
REMARK  9 active torsions:
REMARK  status: ('A' for Active; 'I' for Inactive)
REMARK    1  A    between atoms: C_1  and  C_2
REMARK    2  A    between atoms: C_2  and  C_3
REMARK    3  A    between atoms: C_3  and  C_5
REMARK    4  A    between atoms: C_3  and  O_6
REMARK    5  A    between atoms: O_6  and  C_7
REMARK    6  A    between atoms: C_12  and  C_13
REMARK    7  A    between atoms: C_24  and  C_27
REMARK    8  A    between atoms: C_31  and  O_33
REMARK    9  A    between atoms: O_33  and  C_34
REMARK                            x       y       z     vdW  Elec       q    Type
REMARK                         _______ _______ _______ _____ _____    ______ ____
ROOT
ATOM      1  C   UNL     1      -1.494   0.827  -4.636  0.00  0.00    +0.066 C 
ATOM      2  C   UNL     1      -2.105  -0.049  -5.731  0.00  0.00    +0.109 C 
ATOM      3  C   UNL     1      -1.798   0.556  -7.077  0.00  0.00    +0.218 C 
ATOM      4  O   UNL     1      -1.612  -0.162  -8.035  0.00  0.00    -0.275 OA
ATOM      5  N   UNL     1      -1.729   1.892  -7.216  0.00  0.00    -0.289 N 
ATOM      6  C   UNL     1      -1.961   2.729  -6.154  0.00  0.00    +0.018 C 
ATOM      7  C   UNL     1      -1.859   2.271  -4.888  0.00  0.00    +0.020 C 
ATOM      8  C   UNL     1      -2.085   3.112  -3.785  0.00  0.00    +0.162 C 
ATOM      9  O   UNL     1      -1.994   2.661  -2.661  0.00  0.00    -0.292 OA
ATOM     10  C   UNL     1      -2.438   4.563  -3.976  0.00  0.00    +0.088 C 
ATOM     11  C   UNL     1      -1.827   5.055  -5.292  0.00  0.00    +0.032 C 
ATOM     12  C   UNL     1      -2.335   4.164  -6.429  0.00  0.00    +0.059 C 
ATOM     13  H   UNL     1      -1.512   2.270  -8.082  0.00  0.00    +0.155 HD
ENDROOT
BRANCH   1  19
ATOM     14  C   UNL     1       0.667   0.205  -3.527  0.00  0.00    +0.125 A 
ATOM     15  C   UNL     1       2.047   0.064  -3.546  0.00  0.00    +0.046 A 
ATOM     16  C   UNL     1       2.759   0.399  -4.681  0.00  0.00    +0.004 A 
ATOM     17  C   UNL     1       2.098   0.874  -5.798  0.00  0.00    +0.001 A 
ATOM     18  C   UNL     1       0.723   1.016  -5.782  0.00  0.00    +0.008 A 
ATOM     19  C   UNL     1       0.005   0.678  -4.651  0.00  0.00    +0.002 A 
BRANCH  14  20
ATOM     20  O   UNL     1      -0.036  -0.123  -2.412  0.00  0.00    -0.489 OA
BRANCH  20  21
ATOM     21  C   UNL     1       0.718  -0.499  -1.257  0.00  0.00    +0.170 C 
ATOM     22  C   UNL     1       1.069  -1.986  -1.339  0.00  0.00    +0.052 C 
BRANCH  21  24
ATOM     23  C   UNL     1      -0.359   1.263   0.150  0.00  0.00    +0.007 C 
ATOM     24  C   UNL     1      -0.113  -0.240   0.001  0.00  0.00    +0.041 C 
ENDBRANCH  21  24
ENDBRANCH  20  21
ENDBRANCH  14  20
ENDBRANCH   1  19
BRANCH  11  25
ATOM     25  C   UNL     1      -2.241   6.482  -5.539  0.00  0.00    -0.040 A 
ATOM     26  C   UNL     1      -3.582   6.804  -5.650  0.00  0.00    +0.004 A 
ATOM     27  C   UNL     1      -3.965   8.112  -5.877  0.00  0.00    +0.004 A 
ATOM     28  C   UNL     1      -3.009   9.103  -5.995  0.00  0.00    +0.045 A 
ATOM     29  C   UNL     1      -1.664   8.783  -5.885  0.00  0.00    +0.120 A 
ATOM     30  C   UNL     1      -1.282   7.470  -5.651  0.00  0.00    +0.049 A 
BRANCH  29  31
ATOM     31  O   UNL     1      -0.722   9.756  -6.000  0.00  0.00    -0.495 OA
ATOM     32  C   UNL     1      -1.188  11.086  -6.235  0.00  0.00    +0.277 C 
ENDBRANCH  29  31
ENDBRANCH  11  25
TORSDOF 6
