REMARK  Name = ZINC00851387
REMARK  5 active torsions:
REMARK  status: ('A' for Active; 'I' for Inactive)
REMARK    1  A    between atoms: C_4  and  C_7
REMARK    2  A    between atoms: C_7  and  C_9
REMARK    3  A    between atoms: C_14  and  N_15
REMARK    4  A    between atoms: C_16  and  C_18
REMARK    5  A    between atoms: C_21  and  N_25
REMARK                            x       y       z     vdW  Elec       q    Type
REMARK                         _______ _______ _______ _____ _____    ______ ____
ROOT
ATOM      1  C   UNL     1       3.813  -2.296  -0.234  0.00  0.00    +0.045 A 
ATOM      2  C   UNL     1       5.064  -2.914  -0.326  0.00  0.00    +0.033 A 
ATOM      3  C   UNL     1       6.210  -2.148  -0.324  0.00  0.00    +0.042 A 
ATOM      4  C   UNL     1       6.129  -0.766  -0.238  0.00  0.00    +0.022 A 
ATOM      5  C   UNL     1       4.901  -0.142  -0.153  0.00  0.00    +0.025 A 
ATOM      6  C   UNL     1       3.735  -0.896  -0.153  0.00  0.00    +0.045 A 
ATOM      7 CL   UNL     1       7.763  -2.917  -0.431  0.00  0.00    -0.084 Cl
ENDROOT
BRANCH   6   8
ATOM      8  N   UNL     1       2.496  -0.269  -0.068  0.00  0.00    -0.281 N 
ATOM      9  C   UNL     1       2.395   0.949   0.500  0.00  0.00    +0.250 C 
ATOM     10  O   UNL     1       3.364   1.454   1.032  0.00  0.00    -0.270 OA
ATOM     11  H   UNL     1       1.704  -0.709  -0.416  0.00  0.00    +0.155 HD
BRANCH   9  12
ATOM     12  C   UNL     1       1.106   1.671   0.476  0.00  0.00    +0.055 A 
ATOM     13  C   UNL     1      -0.009   1.095  -0.135  0.00  0.00    +0.017 A 
ATOM     14  C   UNL     1      -1.208   1.776  -0.159  0.00  0.00    +0.033 A 
ATOM     15  C   UNL     1      -1.310   3.026   0.428  0.00  0.00    +0.128 A 
ATOM     16  C   UNL     1      -0.210   3.604   1.035  0.00  0.00    +0.053 A 
ATOM     17  C   UNL     1       0.998   2.934   1.063  0.00  0.00    +0.055 A 
ATOM     18 CL   UNL     1       2.379   3.661   1.825  0.00  0.00    -0.083 Cl
BRANCH  15  19
ATOM     19  N   UNL     1      -2.601   3.749   0.402  0.00  0.00    +0.056 N 
ATOM     20  O   UNL     1      -2.693   4.850   0.915  0.00  0.00    -0.126 OA
ATOM     21  O   UNL     1      -3.572   3.242  -0.131  0.00  0.00    -0.126 OA
ENDBRANCH  15  19
ENDBRANCH   9  12
ENDBRANCH   6   8
BRANCH   1  22
ATOM     22  C   UNL     1       2.583  -3.109  -0.229  0.00  0.00    +0.195 C 
ATOM     23  O   UNL     1       2.222  -3.671  -1.245  0.00  0.00    -0.287 OA
BRANCH  22  27
ATOM     24  C   UNL     1       0.304  -3.488   3.335  0.00  0.00    +0.000 A 
ATOM     25  C   UNL     1      -0.165  -4.040   2.156  0.00  0.00    +0.001 A 
ATOM     26  C   UNL     1       0.571  -3.921   0.995  0.00  0.00    +0.012 A 
ATOM     27  C   UNL     1       1.790  -3.241   1.011  0.00  0.00    +0.022 A 
ATOM     28  C   UNL     1       2.260  -2.691   2.206  0.00  0.00    +0.012 A 
ATOM     29  C   UNL     1       1.512  -2.813   3.358  0.00  0.00    +0.001 A 
ENDBRANCH  22  27
ENDBRANCH   1  22
TORSDOF 5
