REMARK  Name = ZINC25157814
REMARK  10 active torsions:
REMARK  status: ('A' for Active; 'I' for Inactive)
REMARK    1  A    between atoms: C_1  and  C_2
REMARK    2  A    between atoms: C_2  and  C_3
REMARK    3  A    between atoms: C_6  and  C_9
REMARK    4  A    between atoms: C_11  and  C_14
REMARK    5  A    between atoms: C_14  and  C_15
REMARK    6  A    between atoms: C_15  and  C_16
REMARK    7  A    between atoms: C_21  and  C_24
REMARK    8  A    between atoms: C_27  and  C_29
REMARK    9  A    between atoms: C_29  and  N_30
REMARK   10  A    between atoms: C_31  and  C_33
REMARK                            x       y       z     vdW  Elec       q    Type
REMARK                         _______ _______ _______ _____ _____    ______ ____
ROOT
ATOM      1  C   UNL     1      -3.032  -5.215   0.004  0.00  0.00    +0.219 C 
ATOM      2  O   UNL     1      -4.097  -4.635   0.018  0.00  0.00    -0.275 OA
ATOM      3  N   UNL     1      -1.882  -4.512  -0.003  0.00  0.00    -0.265 N 
ATOM      4  C   UNL     1      -1.917  -3.123   0.004  0.00  0.00    +0.165 A 
ATOM      5  N   UNL     1      -0.915  -2.264  -0.001  0.00  0.00    -0.224 NA
ATOM      6  C   UNL     1      -1.133  -0.951   0.008  0.00  0.00    +0.087 A 
ATOM      7  C   UNL     1      -2.421  -0.488   0.028  0.00  0.00    +0.077 A 
ATOM      8  S   UNL     1      -3.329  -2.029   0.024  0.00  0.00    -0.060 S 
ATOM      9  H   UNL     1      -0.916  -5.038  -0.015  0.00  0.00    +0.157 HD
ENDROOT
BRANCH   6  10
ATOM     10  C   UNL     1       0.002  -0.004   0.002  0.00  0.00    +0.038 A 
ATOM     11  C   UNL     1       1.345  -0.268  -0.012  0.00  0.00    +0.018 A 
ATOM     12  C   UNL     1       2.228   0.792  -0.015  0.00  0.00    +0.013 A 
ATOM     13  C   UNL     1       1.741   2.058  -0.004  0.00  0.00    +0.007 A 
ATOM     14  S   UNL     1      -0.022   1.781   0.012  0.00  0.00    -0.090 S 
BRANCH  13  15
ATOM     15  C   UNL     1       2.495   3.363  -0.004  0.00  0.00    +0.146 C 
BRANCH  15  16
ATOM     16  N   UNL     1       2.726   3.793  -1.385  0.00  0.00    -0.311 N 
ATOM     17  C   UNL     1       3.387   4.942  -1.631  0.00  0.00    +0.210 C 
ATOM     18  O   UNL     1       3.790   5.619  -0.710  0.00  0.00    -0.276 OA
ATOM     19  C   UNL     1       3.624   5.385  -3.052  0.00  0.00    +0.109 C 
ATOM     20  H   UNL     1       2.360   3.179  -2.221  0.00  0.00    +0.149 HD
ENDBRANCH  15  16
ENDBRANCH  13  15
ENDBRANCH   6  10
BRANCH   1  21
ATOM     21  C   UNL     1      -2.995  -6.722  -0.004  0.00  0.00    +0.105 C 
BRANCH  21  22
ATOM     22  C   UNL     1      -4.424  -7.267   0.007  0.00  0.00    +0.108 C 
BRANCH  22  25
ATOM     23  C   UNL     1      -4.330 -10.818   0.561  0.00  0.00    +0.202 A 
ATOM     24  N   UNL     1      -4.357  -9.557   1.049  0.00  0.00    -0.191 NA
ATOM     25  C   UNL     1      -4.386  -8.774  -0.000  0.00  0.00    +0.228 A 
ATOM     26  O   UNL     1      -4.383  -9.562  -1.080  0.00  0.00    -0.338 OA
ATOM     27  N   UNL     1      -4.345 -10.727  -0.743  0.00  0.00    -0.056 NA
BRANCH  23  31
ATOM     28  C   UNL     1      -4.215 -14.405   2.841  0.00  0.00    -0.048 A 
ATOM     29  C   UNL     1      -4.229 -14.467   1.459  0.00  0.00    +0.004 A 
ATOM     30  C   UNL     1      -4.266 -13.306   0.715  0.00  0.00    +0.012 A 
ATOM     31  C   UNL     1      -4.291 -12.070   1.357  0.00  0.00    +0.022 A 
ATOM     32  C   UNL     1      -4.272 -12.013   2.749  0.00  0.00    +0.012 A 
ATOM     33  C   UNL     1      -4.240 -13.181   3.484  0.00  0.00    +0.004 A 
BRANCH  28  35
ATOM     34  C   UNL     1      -2.718 -16.070   3.907  0.00  0.00    +0.009 C 
ATOM     35  C   UNL     1      -4.174 -15.677   3.649  0.00  0.00    +0.032 C 
ENDBRANCH  28  35
ENDBRANCH  23  31
ENDBRANCH  22  25
ENDBRANCH  21  22
ENDBRANCH   1  21
TORSDOF 8
