REMARK  Name = ZINC63961737
REMARK  6 active torsions:
REMARK  status: ('A' for Active; 'I' for Inactive)
REMARK    1  A    between atoms: C_1  and  C_2
REMARK    2  A    between atoms: C_5  and  C_24
REMARK    3  A    between atoms: C_7  and  N_8
REMARK    4  A    between atoms: C_9  and  C_11
REMARK    5  A    between atoms: C_14  and  N_16
REMARK    6  A    between atoms: C_17  and  C_19
REMARK                            x       y       z     vdW  Elec       q    Type
REMARK                         _______ _______ _______ _____ _____    ______ ____
ROOT
ATOM      1  C   UNL     1      -0.161   0.025   4.805  0.00  0.00    +0.076 A 
ATOM      2  C   UNL     1      -0.250  -0.476   6.097  0.00  0.00    +0.022 A 
ATOM      3  C   UNL     1      -0.342   0.458   7.096  0.00  0.00    +0.032 A 
ATOM      4  C   UNL     1      -0.340   1.791   6.756  0.00  0.00    +0.073 A 
ATOM      5  S   UNL     1      -0.206   1.785   5.081  0.00  0.00    -0.069 S 
ENDROOT
BRANCH   1   7
ATOM      6  N   UNL     1       0.025  -0.008   2.417  0.00  0.00    -0.281 N 
ATOM      7  C   UNL     1      -0.057  -0.683   3.580  0.00  0.00    +0.255 C 
ATOM      8  O   UNL     1      -0.040  -1.901   3.580  0.00  0.00    -0.269 OA
ATOM      9  H   UNL     1       0.078   0.961   2.421  0.00  0.00    +0.155 HD
BRANCH   6  16
ATOM     10  C   UNL     1      -1.267   1.183   0.183  0.00  0.00    +0.045 C 
ATOM     11  C   UNL     1      -0.587  -0.158   0.086  0.00  0.00    -0.029 A 
ATOM     12  C   UNL     1      -0.577  -0.839  -1.118  0.00  0.00    +0.006 A 
ATOM     13  C   UNL     1       0.044  -2.068  -1.215  0.00  0.00    +0.019 A 
ATOM     14  C   UNL     1       0.665  -2.627  -0.096  0.00  0.00    +0.054 A 
ATOM     15  C   UNL     1       0.655  -1.940   1.118  0.00  0.00    +0.042 A 
ATOM     16  C   UNL     1       0.033  -0.704   1.204  0.00  0.00    +0.038 A 
BRANCH  14  17
ATOM     17  C   UNL     1       1.309  -3.902  -0.195  0.00  0.00    +0.099 C 
ATOM     18  N   UNL     1       1.820  -4.914  -0.273  0.00  0.00    -0.191 NA
ENDBRANCH  14  17
ENDBRANCH   6  16
ENDBRANCH   1   7
BRANCH   4  19
ATOM     19  N   UNL     1      -0.424   2.888   7.602  0.00  0.00    -0.273 N 
ATOM     20  C   UNL     1      -0.408   4.135   7.091  0.00  0.00    +0.284 C 
ATOM     21  O   UNL     1      -0.320   4.300   5.889  0.00  0.00    -0.266 OA
ATOM     22  H   UNL     1      -0.494   2.757   8.560  0.00  0.00    +0.156 HD
BRANCH  20  23
ATOM     23  C   UNL     1      -0.496   5.294   7.985  0.00  0.00    +0.189 A 
ATOM     24  C   UNL     1      -0.497   6.605   7.601  0.00  0.00    +0.054 A 
ATOM     25  C   UNL     1      -0.597   7.369   8.775  0.00  0.00    +0.042 A 
ATOM     26  C   UNL     1      -0.653   6.502   9.810  0.00  0.00    +0.196 A 
ATOM     27  O   UNL     1      -0.598   5.253   9.329  0.00  0.00    -0.458 OA
ENDBRANCH  20  23
ENDBRANCH   4  19
TORSDOF 5
