REMARK  Name = ZINC36201786
REMARK  2 active torsions:
REMARK  status: ('A' for Active; 'I' for Inactive)
REMARK    1  A    between atoms: C_6  and  C_7
REMARK    2  A    between atoms: C_18  and  C_20
REMARK                            x       y       z     vdW  Elec       q    Type
REMARK                         _______ _______ _______ _____ _____    ______ ____
ROOT
ATOM      1  C   UNL     1      -1.258  -0.759   0.011  0.00  0.00    +0.013 C 
ATOM      2  C   UNL     1      -1.290  -2.112  -0.084  0.00  0.00    -0.027 C 
ATOM      3  C   UNL     1       0.011  -2.845  -0.084  0.00  0.00    +0.037 C 
ATOM      4  C   UNL     1      -0.163  -4.354  -0.126  0.00  0.00    +0.005 C 
ATOM      5  C   UNL     1      -1.358  -4.743  -0.994  0.00  0.00    +0.012 C 
ATOM      6  C   UNL     1      -2.641  -4.230  -0.335  0.00  0.00    +0.063 C 
ATOM      7  C   UNL     1      -2.540  -2.734  -0.170  0.00  0.00    +0.027 C 
ATOM      8  N   UNL     1      -3.636  -2.010  -0.090  0.00  0.00    -0.339 N 
ATOM      9  C   UNL     1      -4.851  -2.555  -0.225  0.00  0.00    +0.152 C 
ATOM     10  S   UNL     1      -6.189  -1.686   0.234  0.00  0.00    -0.013 SA
ATOM     11  N   UNL     1      -5.011  -3.817  -0.735  0.00  0.00    -0.358 N 
ATOM     12  C   UNL     1      -3.840  -4.565  -1.226  0.00  0.00    +0.120 C 
ATOM     13  H   UNL     1      -3.562  -1.056   0.070  0.00  0.00    +0.167 HD
ATOM     14  H   UNL     1      -5.895  -4.215  -0.779  0.00  0.00    +0.162 HD
ENDROOT
BRANCH   1  20
ATOM     15  C   UNL     1       0.966  -0.396  -1.043  0.00  0.00    +0.011 A 
ATOM     16  C   UNL     1       2.166   0.276  -1.109  0.00  0.00    +0.039 A 
ATOM     17  C   UNL     1       2.445   1.295  -0.210  0.00  0.00    +0.123 A 
ATOM     18  C   UNL     1       1.518   1.645   0.761  0.00  0.00    +0.039 A 
ATOM     19  C   UNL     1       0.313   0.982   0.838  0.00  0.00    +0.011 A 
ATOM     20  C   UNL     1       0.025  -0.048  -0.066  0.00  0.00    -0.025 A 
ATOM     21  F   UNL     1       3.625   1.949  -0.280  0.00  0.00    -0.205 F 
ENDBRANCH   1  20
BRANCH  12  22
ATOM     22  C   UNL     1      -4.125  -6.043  -1.153  0.00  0.00    -0.024 A 
ATOM     23  C   UNL     1      -4.829  -6.559  -0.081  0.00  0.00    +0.008 A 
ATOM     24  C   UNL     1      -5.092  -7.914  -0.014  0.00  0.00    +0.038 A 
ATOM     25  C   UNL     1      -4.649  -8.755  -1.020  0.00  0.00    +0.123 A 
ATOM     26  C   UNL     1      -3.944  -8.238  -2.094  0.00  0.00    +0.038 A 
ATOM     27  C   UNL     1      -3.687  -6.881  -2.162  0.00  0.00    +0.008 A 
ATOM     28  F   UNL     1      -4.904 -10.081  -0.955  0.00  0.00    -0.205 F 
ENDBRANCH  12  22
TORSDOF 2
