REMARK  Name = ZINC39482229
REMARK  10 active torsions:
REMARK  status: ('A' for Active; 'I' for Inactive)
REMARK    1  A    between atoms: C_1  and  C_2
REMARK    2  A    between atoms: C_2  and  O_3
REMARK    3  A    between atoms: O_3  and  S_4
REMARK    4  A    between atoms: S_4  and  N_7
REMARK    5  A    between atoms: N_7  and  C_8
REMARK    6  A    between atoms: C_11  and  C_31
REMARK    7  A    between atoms: C_13  and  N_14
REMARK    8  A    between atoms: C_18  and  S_21
REMARK    9  A    between atoms: S_21  and  O_24
REMARK   10  A    between atoms: O_24  and  C_25
REMARK                            x       y       z     vdW  Elec       q    Type
REMARK                         _______ _______ _______ _____ _____    ______ ____
ROOT
ATOM      1  C   UNL     1      -1.142  -3.878   1.828  0.00  0.00    +0.097 A 
ATOM      2  C   UNL     1      -1.544  -4.735   0.814  0.00  0.00    +0.029 A 
ATOM      3  C   UNL     1      -1.444  -6.101   0.981  0.00  0.00    +0.010 A 
ATOM      4  C   UNL     1      -0.939  -6.625   2.169  0.00  0.00    -0.016 A 
ATOM      5  C   UNL     1      -0.534  -5.767   3.191  0.00  0.00    +0.033 A 
ATOM      6  C   UNL     1      -0.630  -4.397   3.019  0.00  0.00    +0.055 A 
ENDROOT
BRANCH   6   7
ATOM      7  N   UNL     1      -0.219  -3.532   4.040  0.00  0.00    -0.330 N 
ATOM      8  C   UNL     1      -1.158  -3.094   5.085  0.00  0.00    +0.086 C 
ATOM      9  C   UNL     1      -1.085  -1.567   5.194  0.00  0.00    -0.061 C 
ATOM     10  N   UNL     1       0.307  -1.160   5.422  0.00  0.00    +0.398 N 
ATOM     11  C   UNL     1       1.127  -1.511   4.256  0.00  0.00    +0.133 C 
ATOM     12  C   UNL     1       1.166  -3.040   4.103  0.00  0.00    +0.115 C 
ATOM     13  H   UNL     1       0.344  -0.162   5.569  0.00  0.00    -0.083 HD
ATOM     14  H   UNL     1       0.665  -1.631   6.239  0.00  0.00    -0.083 HD
BRANCH  11  15
ATOM     15  S   UNL     1       2.814  -0.886   4.493  0.00  0.00    +0.109 S 
ATOM     16  O   UNL     1       3.353  -1.383   5.710  0.00  0.00    -0.138 OA
ATOM     17  O   UNL     1       3.548  -0.987   3.280  0.00  0.00    -0.138 OA
BRANCH  15  18
ATOM     18  O   UNL     1       2.648   0.609   4.723  0.00  0.00    -0.347 OA
BRANCH  18  19
ATOM     19  C   UNL     1       3.759   1.220   5.211  0.00  0.00    +0.156 A 
ATOM     20  C   UNL     1       3.906   1.406   6.578  0.00  0.00    +0.048 A 
ATOM     21  C   UNL     1       5.037   2.027   7.072  0.00  0.00    +0.004 A 
ATOM     22  C   UNL     1       6.022   2.463   6.206  0.00  0.00    +0.000 A 
ATOM     23  C   UNL     1       5.878   2.278   4.843  0.00  0.00    +0.004 A 
ATOM     24  C   UNL     1       4.752   1.653   4.344  0.00  0.00    +0.048 A 
ENDBRANCH  18  19
ENDBRANCH  15  18
ENDBRANCH  11  15
ENDBRANCH   6   7
BRANCH   4  25
ATOM     25  C   UNL     1      -0.833  -8.094   2.348  0.00  0.00    -0.018 A 
ATOM     26  C   UNL     1      -0.333  -8.619   3.538  0.00  0.00    +0.008 A 
ATOM     27  C   UNL     1      -0.236  -9.986   3.699  0.00  0.00    +0.001 A 
ATOM     28  C   UNL     1      -0.634 -10.835   2.681  0.00  0.00    +0.000 A 
ATOM     29  C   UNL     1      -1.131 -10.319   1.498  0.00  0.00    +0.001 A 
ATOM     30  C   UNL     1      -1.238  -8.953   1.328  0.00  0.00    +0.008 A 
ENDBRANCH   4  25
BRANCH   1  31
ATOM     31  N   UNL     1      -1.244  -2.494   1.656  0.00  0.00    -0.075 NA
BRANCH  31  32
ATOM     32  S   UNL     1      -1.851  -1.878   0.243  0.00  0.00    +0.186 S 
ATOM     33  O   UNL     1      -3.218  -2.263   0.187  0.00  0.00    -0.125 OA
ATOM     34  O   UNL     1      -0.923  -2.214  -0.778  0.00  0.00    -0.125 OA
BRANCH  32  35
ATOM     35  O   UNL     1      -1.831  -0.361   0.368  0.00  0.00    -0.221 OA
BRANCH  35  37
ATOM     36  C   UNL     1      -0.629   1.735   0.379  0.00  0.00    +0.036 C 
ATOM     37  C   UNL     1      -0.530   0.215   0.237  0.00  0.00    +0.192 C 
ENDBRANCH  35  37
ENDBRANCH  32  35
ENDBRANCH  31  32
ENDBRANCH   1  31
TORSDOF 9
