REMARK  Name = ZINC39665415
REMARK  9 active torsions:
REMARK  status: ('A' for Active; 'I' for Inactive)
REMARK    1  A    between atoms: C_1  and  C_2
REMARK    2  A    between atoms: C_3  and  C_13
REMARK    3  A    between atoms: C_4  and  C_7
REMARK    4  A    between atoms: C_17  and  C_26
REMARK    5  A    between atoms: N_28  and  C_29
REMARK    6  A    between atoms: C_29  and  C_30
REMARK    7  A    between atoms: C_30  and  C_32
REMARK    8  A    between atoms: C_30  and  O_33
REMARK    9  A    between atoms: O_33  and  C_34
REMARK                            x       y       z     vdW  Elec       q    Type
REMARK                         _______ _______ _______ _____ _____    ______ ____
ROOT
ATOM      1  C   UNL     1      -2.482  -0.406   0.228  0.00  0.00    +0.252 C 
ATOM      2  O   UNL     1      -3.173  -0.326  -0.770  0.00  0.00    -0.270 OA
ATOM      3  N   UNL     1      -3.004  -0.111   1.434  0.00  0.00    -0.296 N 
ATOM      4  C   UNL     1      -2.303  -0.055   2.739  0.00  0.00    +0.121 C 
ATOM      5  C   UNL     1      -2.920   1.163   3.462  0.00  0.00    +0.100 C 
ATOM      6  C   UNL     1      -4.303   1.345   2.815  0.00  0.00    -0.004 C 
ATOM      7  C   UNL     1      -4.409   0.237   1.756  0.00  0.00    +0.115 C 
ATOM      8  C   UNL     1      -4.399   2.714   2.149  0.00  0.00    -0.010 C 
ATOM      9  C   UNL     1      -5.802   2.893   1.562  0.00  0.00    -0.082 C 
ATOM     10  N   UNL     1      -6.800   2.776   2.632  0.00  0.00    +0.379 N 
ATOM     11  C   UNL     1      -6.764   1.425   3.205  0.00  0.00    -0.082 C 
ATOM     12  C   UNL     1      -5.402   1.184   3.861  0.00  0.00    -0.010 C 
ATOM     13  H   UNL     1      -6.599   3.452   3.354  0.00  0.00    -0.086 HD
ATOM     14  H   UNL     1      -7.719   2.955   2.254  0.00  0.00    -0.086 HD
ENDROOT
BRANCH   1  17
ATOM     15  C   UNL     1      -0.057   1.466  -0.393  0.00  0.00    +0.090 C 
ATOM     16  C   UNL     1      -0.006  -0.021  -0.153  0.00  0.00    +0.147 A 
ATOM     17  C   UNL     1      -1.075  -0.825   0.117  0.00  0.00    +0.106 A 
ATOM     18  C   UNL     1      -0.550  -2.189   0.276  0.00  0.00    +0.126 A 
ATOM     19  N   UNL     1       0.745  -2.122   0.099  0.00  0.00    -0.077 NA
ATOM     20  O   UNL     1       1.093  -0.780  -0.174  0.00  0.00    -0.359 OA
BRANCH  18  21
ATOM     21  C   UNL     1      -1.338  -3.409   0.578  0.00  0.00    +0.004 A 
ATOM     22  C   UNL     1      -2.454  -3.332   1.410  0.00  0.00    +0.010 A 
ATOM     23  C   UNL     1      -3.184  -4.470   1.688  0.00  0.00    +0.001 A 
ATOM     24  C   UNL     1      -2.809  -5.685   1.143  0.00  0.00    +0.000 A 
ATOM     25  C   UNL     1      -1.703  -5.767   0.318  0.00  0.00    +0.001 A 
ATOM     26  C   UNL     1      -0.969  -4.635   0.028  0.00  0.00    +0.010 A 
ENDBRANCH  18  21
ENDBRANCH   1  17
BRANCH   5  27
ATOM     27  C   UNL     1      -2.070   2.388   3.243  0.00  0.00    +0.218 C 
ATOM     28  O   UNL     1      -1.370   2.472   2.257  0.00  0.00    -0.275 OA
ATOM     29  N   UNL     1      -2.089   3.391   4.143  0.00  0.00    -0.312 N 
ATOM     30  H   UNL     1      -2.650   3.324   4.932  0.00  0.00    +0.149 HD
BRANCH  29  31
ATOM     31  C   UNL     1      -1.264   4.582   3.931  0.00  0.00    +0.148 C 
BRANCH  31  32
ATOM     32  C   UNL     1      -1.469   5.559   5.090  0.00  0.00    +0.187 C 
ATOM     33  C   UNL     1      -0.607   6.803   4.868  0.00  0.00    +0.053 C 
BRANCH  32  34
ATOM     34  O   UNL     1      -2.845   5.939   5.155  0.00  0.00    -0.488 OA
BRANCH  34  35
ATOM     35  C   UNL     1      -3.316   6.351   6.362  0.00  0.00    +0.121 A 
ATOM     36  C   UNL     1      -4.667   6.620   6.526  0.00  0.00    +0.045 A 
ATOM     37  C   UNL     1      -5.142   7.038   7.754  0.00  0.00    +0.004 A 
ATOM     38  C   UNL     1      -4.273   7.188   8.818  0.00  0.00    +0.000 A 
ATOM     39  C   UNL     1      -2.926   6.921   8.657  0.00  0.00    +0.004 A 
ATOM     40  C   UNL     1      -2.446   6.496   7.433  0.00  0.00    +0.045 A 
ENDBRANCH  34  35
ENDBRANCH  32  34
ENDBRANCH  31  32
ENDBRANCH  29  31
ENDBRANCH   5  27
TORSDOF 7
