REMARK  Name = ZINC45510835
REMARK  6 active torsions:
REMARK  status: ('A' for Active; 'I' for Inactive)
REMARK    1  A    between atoms: C_1  and  C_2
REMARK    2  A    between atoms: C_2  and  N_3
REMARK    3  A    between atoms: N_3  and  C_4
REMARK    4  A    between atoms: C_7  and  C_11
REMARK    5  A    between atoms: C_9  and  C_10
REMARK    6  A    between atoms: C_12  and  C_14
REMARK                            x       y       z     vdW  Elec       q    Type
REMARK                         _______ _______ _______ _____ _____    ______ ____
ROOT
ATOM      1  N   UNL     1       0.697  -0.121  -1.272  0.00  0.00    -0.267 N 
ATOM      2  C   UNL     1       0.045  -0.550  -2.371  0.00  0.00    +0.251 C 
ATOM      3  O   UNL     1      -1.163  -0.687  -2.347  0.00  0.00    -0.270 OA
ENDROOT
BRANCH   2   4
ATOM      4  C   UNL     1       0.798  -0.854  -3.603  0.00  0.00    +0.039 A 
ATOM      5  C   UNL     1       1.995  -1.572  -3.533  0.00  0.00    +0.017 A 
ATOM      6  C   UNL     1       2.699  -1.857  -4.684  0.00  0.00    +0.048 A 
ATOM      7  C   UNL     1       2.221  -1.431  -5.914  0.00  0.00    +0.142 A 
ATOM      8  C   UNL     1       1.026  -0.712  -5.991  0.00  0.00    +0.076 A 
ATOM      9  C   UNL     1       0.313  -0.428  -4.843  0.00  0.00    +0.040 A 
ATOM     10  N   UNL     1       0.560  -0.290  -7.245  0.00  0.00    -0.280 N 
ATOM     11  C   UNL     1       1.086  -0.843  -8.359  0.00  0.00    +0.255 C 
ATOM     12  O   UNL     1       0.721  -0.472  -9.454  0.00  0.00    -0.272 OA
ATOM     13  C   UNL     1       2.131  -1.923  -8.235  0.00  0.00    +0.325 C 
ATOM     14  O   UNL     1       2.907  -1.708  -7.054  0.00  0.00    -0.481 OA
ATOM     15  H   UNL     1      -0.130   0.389  -7.311  0.00  0.00    +0.155 HD
ENDBRANCH   2   4
BRANCH   1  16
ATOM     16  C   UNL     1       2.069   0.144  -1.330  0.00  0.00    +0.039 A 
ATOM     17  C   UNL     1       2.980  -0.803  -0.881  0.00  0.00    +0.024 A 
ATOM     18  C   UNL     1       4.334  -0.538  -0.941  0.00  0.00    +0.005 A 
ATOM     19  C   UNL     1       4.783   0.668  -1.447  0.00  0.00    -0.050 A 
ATOM     20  C   UNL     1       3.878   1.613  -1.895  0.00  0.00    +0.008 A 
ATOM     21  C   UNL     1       2.523   1.352  -1.844  0.00  0.00    -0.029 A 
ATOM     22  C   UNL     1       1.537   2.379  -2.338  0.00  0.00    +0.045 C 
ATOM     23  C   UNL     1       6.261   0.954  -1.510  0.00  0.00    +0.044 C 
ENDBRANCH   1  16
BRANCH   1  25
ATOM     24  C   UNL     1      -0.675   1.456  -0.002  0.00  0.00    +0.025 C 
ATOM     25  C   UNL     1      -0.033   0.068  -0.015  0.00  0.00    +0.110 C 
ENDBRANCH   1  25
TORSDOF 3
