REMARK  Name = ZINC36306851
REMARK  15 active torsions:
REMARK  status: ('A' for Active; 'I' for Inactive)
REMARK    1  A    between atoms: C_1  and  C_2
REMARK    2  A    between atoms: C_2  and  O_3
REMARK    3  A    between atoms: O_3  and  C_4
REMARK    4  A    between atoms: C_4  and  C_5
REMARK    5  A    between atoms: C_5  and  C_7
REMARK    6  A    between atoms: C_5  and  O_37
REMARK    7  A    between atoms: C_7  and  N_8
REMARK    8  A    between atoms: N_8  and  C_9
REMARK    9  A    between atoms: N_8  and  C_30
REMARK   10  A    between atoms: C_9  and  C_10
REMARK   11  A    between atoms: C_11  and  C_24
REMARK   12  A    between atoms: N_13  and  C_23
REMARK   13  A    between atoms: C_14  and  O_15
REMARK   14  A    between atoms: O_15  and  C_16
REMARK   15  A    between atoms: C_30  and  C_31
REMARK                            x       y       z     vdW  Elec       q    Type
REMARK                         _______ _______ _______ _____ _____    ______ ____
ROOT
ATOM      1  C   UNL     1      -6.154  -5.801   0.081  0.00  0.00    +0.025 A 
ATOM      2  C   UNL     1      -6.929  -5.907   1.251  0.00  0.00    +0.098 A 
ATOM      3  N   UNL     1      -8.146  -6.269   0.905  0.00  0.00    -0.168 NA
ATOM      4  N   UNL     1      -8.185  -6.404  -0.488  0.00  0.00    -0.235 N 
ATOM      5  C   UNL     1      -6.952  -6.106  -0.974  0.00  0.00    +0.221 A 
ATOM      6  C   UNL     1      -9.352  -6.793  -1.284  0.00  0.00    +0.176 C 
ENDROOT
BRANCH   2   7
ATOM      7  C   UNL     1      -6.456  -5.655   2.635  0.00  0.00    +0.002 A 
ATOM      8  C   UNL     1      -5.214  -6.132   3.047  0.00  0.00    +0.010 A 
ATOM      9  C   UNL     1      -4.779  -5.894   4.335  0.00  0.00    +0.001 A 
ATOM     10  C   UNL     1      -5.574  -5.184   5.217  0.00  0.00    +0.000 A 
ATOM     11  C   UNL     1      -6.808  -4.707   4.813  0.00  0.00    +0.001 A 
ATOM     12  C   UNL     1      -7.250  -4.934   3.525  0.00  0.00    +0.010 A 
ENDBRANCH   2   7
BRANCH   1  13
ATOM     13  C   UNL     1      -4.700  -5.412   0.011  0.00  0.00    -0.035 C 
BRANCH  13  14
ATOM     14  N   UNL     1      -4.590  -3.978  -0.287  0.00  0.00    +0.386 N 
ATOM     15  H   UNL     1      -5.131  -3.764  -1.111  0.00  0.00    -0.081 HD
BRANCH  14  16
ATOM     16  C   UNL     1      -5.103  -3.201   0.850  0.00  0.00    -0.044 C 
BRANCH  16  17
ATOM     17  C   UNL     1      -5.146  -1.718   0.476  0.00  0.00    +0.124 C 
BRANCH  17  18
ATOM     18  O   UNL     1      -3.814  -1.230   0.305  0.00  0.00    -0.391 OA
ATOM     19  H   UNL     1      -3.262  -1.309   1.095  0.00  0.00    +0.210 HD
ENDBRANCH  17  18
BRANCH  17  20
ATOM     20  C   UNL     1      -5.839  -0.931   1.590  0.00  0.00    +0.189 C 
BRANCH  20  21
ATOM     21  O   UNL     1      -5.984   0.433   1.190  0.00  0.00    -0.378 OA
BRANCH  21  23
ATOM     22  C   UNL     1      -6.724   2.691   1.633  0.00  0.00    +0.034 C 
ATOM     23  C   UNL     1      -6.623   1.260   2.165  0.00  0.00    +0.156 C 
ENDBRANCH  21  23
ENDBRANCH  20  21
ENDBRANCH  17  20
ENDBRANCH  16  17
ENDBRANCH  14  16
BRANCH  14  24
ATOM     24  C   UNL     1      -3.182  -3.633  -0.521  0.00  0.00    -0.046 C 
BRANCH  24  25
ATOM     25  C   UNL     1      -2.388  -3.824   0.773  0.00  0.00    +0.102 C 
ATOM     26  C   UNL     1      -0.933  -3.351   0.570  0.00  0.00    +0.032 C 
ATOM     27  C   UNL     1      -0.126  -4.418   1.359  0.00  0.00    +0.030 C 
ATOM     28  C   UNL     1      -0.989  -5.681   1.113  0.00  0.00    +0.160 C 
ATOM     29  O   UNL     1      -2.350  -5.213   1.119  0.00  0.00    -0.378 OA
ENDBRANCH  24  25
ENDBRANCH  14  24
ENDBRANCH  13  14
ENDBRANCH   1  13
BRANCH   5  30
ATOM     30  O   UNL     1      -6.583  -6.115  -2.280  0.00  0.00    -0.435 OA
BRANCH  30  31
ATOM     31  C   UNL     1      -6.153  -7.289  -2.814  0.00  0.00    +0.165 A 
ATOM     32  C   UNL     1      -6.200  -8.453  -2.061  0.00  0.00    +0.049 A 
ATOM     33  C   UNL     1      -5.763  -9.646  -2.606  0.00  0.00    +0.004 A 
ATOM     34  C   UNL     1      -5.279  -9.680  -3.900  0.00  0.00    +0.003 A 
ATOM     35  C   UNL     1      -5.230  -8.522  -4.654  0.00  0.00    +0.042 A 
ATOM     36  C   UNL     1      -5.672  -7.327  -4.117  0.00  0.00    +0.165 A 
ATOM     37  F   UNL     1      -5.629  -6.196  -4.855  0.00  0.00    -0.202 F 
ENDBRANCH  30  31
ENDBRANCH   5  30
TORSDOF 13
