REMARK  Name = ZINC63160068
REMARK  6 active torsions:
REMARK  status: ('A' for Active; 'I' for Inactive)
REMARK    1  A    between atoms: C_1  and  C_2
REMARK    2  A    between atoms: C_2  and  C_31
REMARK    3  A    between atoms: C_6  and  C_18
REMARK    4  A    between atoms: C_20  and  O_26
REMARK    5  A    between atoms: C_21  and  O_25
REMARK    6  A    between atoms: O_26  and  C_27
REMARK                            x       y       z     vdW  Elec       q    Type
REMARK                         _______ _______ _______ _____ _____    ______ ____
ROOT
ATOM      1  C   UNL     1      -0.019   1.526   0.010  0.00  0.00    +0.011 C 
ATOM      2  C   UNL     1       0.002  -0.004   0.002  0.00  0.00    -0.023 C 
ATOM      3  C   UNL     1      -1.431  -0.540   0.042  0.00  0.00    +0.058 C 
ATOM      4  C   UNL     1      -1.407  -2.050   0.074  0.00  0.00    +0.016 C 
ATOM      5  C   UNL     1      -0.394  -2.715   0.660  0.00  0.00    +0.021 C 
ATOM      6  C   UNL     1      -0.337  -4.225   0.698  0.00  0.00    +0.073 C 
ATOM      7  C   UNL     1      -1.735  -4.815   0.502  0.00  0.00    +0.148 C 
ATOM      8  C   UNL     1      -2.386  -4.070  -0.639  0.00  0.00    +0.106 C 
ATOM      9  N   UNL     1      -2.837  -4.673  -1.695  0.00  0.00    -0.151 NA
ATOM     10  C   UNL     1      -2.738  -5.999  -1.866  0.00  0.00    +0.331 C 
ATOM     11  O   UNL     1      -3.205  -6.505  -2.869  0.00  0.00    -0.250 OA
ATOM     12  N   UNL     1      -2.135  -6.783  -0.958  0.00  0.00    -0.238 N 
ATOM     13  C   UNL     1      -1.636  -6.280   0.189  0.00  0.00    +0.231 C 
ATOM     14  O   UNL     1      -1.093  -7.020   0.981  0.00  0.00    -0.275 OA
ATOM     15  N   UNL     1      -2.466  -2.711  -0.509  0.00  0.00    -0.307 N 
ATOM     16  C   UNL     1       0.674  -2.019   1.263  0.00  0.00    +0.162 C 
ATOM     17  O   UNL     1       1.558  -2.647   1.812  0.00  0.00    -0.292 OA
ATOM     18  C   UNL     1       0.742  -0.518   1.242  0.00  0.00    +0.086 C 
ATOM     19  C   UNL     1       0.705  -0.503  -1.262  0.00  0.00    +0.011 C 
ATOM     20  H   UNL     1      -2.060  -7.735  -1.128  0.00  0.00    +0.159 HD
ATOM     21  H   UNL     1      -3.247  -2.226  -0.818  0.00  0.00    +0.153 HD
ENDROOT
BRANCH   6  22
ATOM     22  C   UNL     1       0.206  -4.670   2.031  0.00  0.00    -0.034 A 
ATOM     23  C   UNL     1       1.370  -5.415   2.087  0.00  0.00    +0.053 A 
ATOM     24  C   UNL     1       1.871  -5.825   3.312  0.00  0.00    +0.163 A 
ATOM     25  C   UNL     1       1.202  -5.487   4.484  0.00  0.00    +0.173 A 
ATOM     26  C   UNL     1       0.036  -4.739   4.420  0.00  0.00    +0.063 A 
ATOM     27  C   UNL     1      -0.456  -4.329   3.194  0.00  0.00    +0.023 A 
ATOM     28 BR   UNL     1      -0.878  -4.276   6.010  0.00  0.00    -0.046 Br
BRANCH  25  29
ATOM     29  O   UNL     1       1.690  -5.888   5.688  0.00  0.00    -0.503 OA
ATOM     30  H   UNL     1       2.305  -5.260   6.092  0.00  0.00    +0.292 HD
ENDBRANCH  25  29
BRANCH  24  31
ATOM     31  O   UNL     1       3.015  -6.559   3.369  0.00  0.00    -0.491 OA
ATOM     32  C   UNL     1       3.649  -6.870   2.126  0.00  0.00    +0.277 C 
ENDBRANCH  24  31
ENDBRANCH   6  22
TORSDOF 3
