REMARK  Name = ZINC35954614
REMARK  15 active torsions:
REMARK  status: ('A' for Active; 'I' for Inactive)
REMARK    1  A    between atoms: C_1  and  C_2
REMARK    2  A    between atoms: C_2  and  N_3
REMARK    3  A    between atoms: N_6  and  C_9
REMARK    4  A    between atoms: C_10  and  C_22
REMARK    5  A    between atoms: C_11  and  C_21
REMARK    6  A    between atoms: N_13  and  C_14
REMARK    7  A    between atoms: C_22  and  N_23
REMARK    8  A    between atoms: N_23  and  C_24
REMARK    9  A    between atoms: N_23  and  C_28
REMARK   10  A    between atoms: C_24  and  C_25
REMARK   11  A    between atoms: C_25  and  O_26
REMARK   12  A    between atoms: O_26  and  C_27
REMARK   13  A    between atoms: C_28  and  C_29
REMARK   14  A    between atoms: C_31  and  C_36
REMARK   15  A    between atoms: C_34  and  O_35
REMARK                            x       y       z     vdW  Elec       q    Type
REMARK                         _______ _______ _______ _____ _____    ______ ____
ROOT
ATOM      1  C   UNL     1      -4.535  -3.126  -1.791  0.00  0.00    +0.126 A 
ATOM      2  C   UNL     1      -4.480  -4.475  -1.612  0.00  0.00    -0.001 A 
ATOM      3  C   UNL     1      -5.327  -5.067  -2.553  0.00  0.00    +0.064 A 
ATOM      4  N   UNL     1      -5.873  -4.121  -3.273  0.00  0.00    -0.170 NA
ATOM      5  N   UNL     1      -5.399  -2.885  -2.814  0.00  0.00    -0.218 N 
ATOM      6  C   UNL     1      -5.569  -6.546  -2.713  0.00  0.00    +0.068 C 
ENDROOT
BRANCH   1  10
ATOM      7  N   UNL     1      -2.129  -1.054   0.850  0.00  0.00    +0.382 N 
ATOM      8  C   UNL     1      -1.560  -1.807  -0.275  0.00  0.00    -0.060 C 
ATOM      9  C   UNL     1      -2.504  -1.717  -1.478  0.00  0.00    +0.088 C 
ATOM     10  N   UNL     1      -3.840  -2.169  -1.058  0.00  0.00    -0.318 N 
ATOM     11  C   UNL     1      -4.419  -1.581   0.160  0.00  0.00    +0.088 C 
ATOM     12  C   UNL     1      -3.385  -1.677   1.286  0.00  0.00    -0.060 C 
ATOM     13  H   UNL     1      -2.309  -0.104   0.559  0.00  0.00    -0.082 HD
BRANCH   7  15
ATOM     14  C   UNL     1       0.089  -0.289   1.553  0.00  0.00    -0.017 C 
ATOM     15  C   UNL     1      -1.174  -1.048   1.966  0.00  0.00    -0.082 C 
ENDBRANCH   7  15
ENDBRANCH   1  10
BRANCH   5  16
ATOM     16  C   UNL     1      -5.751  -1.626  -3.320  0.00  0.00    +0.068 A 
ATOM     17  C   UNL     1      -6.024  -0.579  -2.450  0.00  0.00    +0.030 A 
ATOM     18  C   UNL     1      -6.370   0.661  -2.950  0.00  0.00    +0.040 A 
ATOM     19  C   UNL     1      -6.444   0.861  -4.319  0.00  0.00    +0.124 A 
ATOM     20  C   UNL     1      -6.172  -0.182  -5.188  0.00  0.00    +0.040 A 
ATOM     21  C   UNL     1      -5.821  -1.422  -4.692  0.00  0.00    +0.030 A 
ATOM     22  F   UNL     1      -6.783   2.074  -4.806  0.00  0.00    -0.205 F 
ENDBRANCH   5  16
BRANCH   2  23
ATOM     23  C   UNL     1      -3.652  -5.200  -0.583  0.00  0.00    -0.037 C 
BRANCH  23  24
ATOM     24  N   UNL     1      -4.426  -5.340   0.658  0.00  0.00    +0.387 N 
ATOM     25  H   UNL     1      -4.764  -4.435   0.948  0.00  0.00    -0.081 HD
BRANCH  24  26
ATOM     26  C   UNL     1      -5.567  -6.236   0.425  0.00  0.00    -0.049 C 
BRANCH  26  27
ATOM     27  C   UNL     1      -5.057  -7.596  -0.056  0.00  0.00    +0.141 C 
BRANCH  27  28
ATOM     28  O   UNL     1      -4.469  -8.300   1.041  0.00  0.00    -0.385 OA
ATOM     29  C   UNL     1      -3.958  -9.589   0.698  0.00  0.00    +0.193 C 
ENDBRANCH  27  28
ENDBRANCH  26  27
ENDBRANCH  24  26
BRANCH  24  30
ATOM     30  C   UNL     1      -3.568  -5.903   1.710  0.00  0.00    -0.039 C 
BRANCH  30  31
ATOM     31  C   UNL     1      -4.339  -5.972   3.003  0.00  0.00    -0.022 A 
ATOM     32  C   UNL     1      -4.686  -7.198   3.536  0.00  0.00    +0.008 A 
ATOM     33  C   UNL     1      -5.393  -7.263   4.722  0.00  0.00    -0.050 A 
ATOM     34  C   UNL     1      -5.755  -6.100   5.378  0.00  0.00    +0.007 A 
ATOM     35  C   UNL     1      -5.411  -4.872   4.849  0.00  0.00    +0.046 A 
ATOM     36  C   UNL     1      -4.696  -4.804   3.661  0.00  0.00    +0.118 A 
ATOM     37  C   UNL     1      -5.771  -8.602   5.301  0.00  0.00    +0.044 C 
BRANCH  36  38
ATOM     38  O   UNL     1      -4.351  -3.597   3.142  0.00  0.00    -0.507 OA
ATOM     39  H   UNL     1      -5.011  -3.225   2.540  0.00  0.00    +0.292 HD
ENDBRANCH  36  38
ENDBRANCH  30  31
ENDBRANCH  24  30
ENDBRANCH  23  24
ENDBRANCH   2  23
TORSDOF 11
