REMARK  Name = ZINC40322808
REMARK  12 active torsions:
REMARK  status: ('A' for Active; 'I' for Inactive)
REMARK    1  A    between atoms: C_1  and  C_2
REMARK    2  A    between atoms: C_2  and  C_3
REMARK    3  A    between atoms: C_3  and  O_4
REMARK    4  A    between atoms: O_4  and  C_5
REMARK    5  A    between atoms: C_8  and  C_11
REMARK    6  A    between atoms: C_11  and  C_13
REMARK    7  A    between atoms: C_11  and  N_32
REMARK    8  A    between atoms: C_13  and  N_14
REMARK    9  A    between atoms: C_15  and  C_17
REMARK   10  A    between atoms: C_20  and  S_22
REMARK   11  A    between atoms: S_22  and  C_25
REMARK   12  A    between atoms: C_28  and  C_31
REMARK                            x       y       z     vdW  Elec       q    Type
REMARK                         _______ _______ _______ _____ _____    ______ ____
ROOT
ATOM      1  N   UNL     1      -6.906  -3.792   2.303  0.00  0.00    -0.310 N 
ATOM      2  C   UNL     1      -7.189  -3.907   3.616  0.00  0.00    +0.279 C 
ATOM      3  O   UNL     1      -7.406  -5.004   4.098  0.00  0.00    -0.267 OA
ATOM      4  H   UNL     1      -6.734  -2.918   1.919  0.00  0.00    +0.149 HD
ENDROOT
BRANCH   2   5
ATOM      5  C   UNL     1      -7.236  -2.712   4.464  0.00  0.00    +0.192 A 
ATOM      6  C   UNL     1      -7.503  -2.687   5.803  0.00  0.00    +0.056 A 
ATOM      7  C   UNL     1      -7.443  -1.343   6.202  0.00  0.00    +0.070 A 
ATOM      8  C   UNL     1      -7.145  -0.615   5.103  0.00  0.00    +0.246 A 
ATOM      9  O   UNL     1      -7.016  -1.444   4.059  0.00  0.00    -0.433 OA
BRANCH   8  10
ATOM     10  S   UNL     1      -6.952   1.136   5.054  0.00  0.00    +0.058 S 
ATOM     11  O   UNL     1      -7.205   1.534   3.714  0.00  0.00    -0.161 OA
ATOM     12  O   UNL     1      -7.685   1.656   6.154  0.00  0.00    -0.161 OA
BRANCH  10  13
ATOM     13  C   UNL     1      -5.254   1.482   5.371  0.00  0.00    +0.097 A 
ATOM     14  C   UNL     1      -4.818   1.671   6.669  0.00  0.00    +0.028 A 
ATOM     15  C   UNL     1      -3.486   1.943   6.918  0.00  0.00    +0.005 A 
ATOM     16  C   UNL     1      -2.589   2.026   5.868  0.00  0.00    -0.050 A 
ATOM     17  C   UNL     1      -3.026   1.836   4.570  0.00  0.00    +0.005 A 
ATOM     18  C   UNL     1      -4.357   1.560   4.322  0.00  0.00    +0.028 A 
ATOM     19  C   UNL     1      -1.137   2.323   6.139  0.00  0.00    +0.044 C 
ENDBRANCH  10  13
ENDBRANCH   8  10
ENDBRANCH   2   5
BRANCH   1  20
ATOM     20  C   UNL     1      -6.860  -4.986   1.456  0.00  0.00    +0.094 C 
BRANCH  20  21
ATOM     21  C   UNL     1      -6.390  -4.598   0.053  0.00  0.00    -0.020 C 
BRANCH  21  25
ATOM     22  C   UNL     1      -2.351  -3.214   0.234  0.00  0.00    +0.121 A 
ATOM     23  C   UNL     1      -3.396  -2.303   0.175  0.00  0.00    +0.046 A 
ATOM     24  C   UNL     1      -4.701  -2.753   0.116  0.00  0.00    +0.005 A 
ATOM     25  C   UNL     1      -4.966  -4.110   0.117  0.00  0.00    -0.059 A 
ATOM     26  C   UNL     1      -3.927  -5.020   0.176  0.00  0.00    +0.005 A 
ATOM     27  C   UNL     1      -2.620  -4.575   0.229  0.00  0.00    +0.046 A 
BRANCH  22  28
ATOM     28  O   UNL     1      -1.067  -2.774   0.292  0.00  0.00    -0.492 OA
BRANCH  28  29
ATOM     29  C   UNL     1      -0.865  -1.359   0.294  0.00  0.00    +0.229 C 
BRANCH  29  31
ATOM     30  C   UNL     1       0.849   0.458   0.364  0.00  0.00    +0.007 C 
ATOM     31  C   UNL     1       0.633  -1.057   0.362  0.00  0.00    +0.038 C 
ENDBRANCH  29  31
ENDBRANCH  28  29
ENDBRANCH  22  28
ENDBRANCH  21  25
BRANCH  21  32
ATOM     32  N   UNL     1      -6.467  -5.769  -0.831  0.00  0.00    +0.385 N 
ATOM     33  C   UNL     1      -7.877  -6.216  -0.967  0.00  0.00    -0.078 C 
ATOM     34  C   UNL     1      -7.868  -7.021  -2.290  0.00  0.00    -0.020 C 
ATOM     35  C   UNL     1      -6.894  -6.214  -3.179  0.00  0.00    -0.020 C 
ATOM     36  C   UNL     1      -6.025  -5.409  -2.195  0.00  0.00    -0.078 C 
ATOM     37  H   UNL     1      -5.897  -6.518  -0.467  0.00  0.00    -0.081 HD
ENDBRANCH  21  32
ENDBRANCH  20  21
ENDBRANCH   1  20
TORSDOF 10
