REMARK  Name = ZINC39545478
REMARK  8 active torsions:
REMARK  status: ('A' for Active; 'I' for Inactive)
REMARK    1  A    between atoms: C_1  and  S_2
REMARK    2  A    between atoms: S_2  and  N_3
REMARK    3  A    between atoms: N_3  and  C_4
REMARK    4  A    between atoms: C_9  and  O_10
REMARK    5  A    between atoms: C_11  and  C_13
REMARK    6  A    between atoms: C_16  and  S_27
REMARK    7  A    between atoms: S_27  and  O_30
REMARK    8  A    between atoms: O_30  and  C_31
REMARK                            x       y       z     vdW  Elec       q    Type
REMARK                         _______ _______ _______ _____ _____    ______ ____
ROOT
ATOM      1  C   UNL     1      -1.354  -0.167  -2.030  0.00  0.00    +0.151 C 
ATOM      2  C   UNL     1      -1.674   1.278  -1.603  0.00  0.00    +0.092 C 
ATOM      3  C   UNL     1      -2.637   1.770  -2.660  0.00  0.00    +0.142 C 
ATOM      4  C   UNL     1      -2.854   0.816  -3.529  0.00  0.00    +0.100 C 
ATOM      5  N   UNL     1      -3.664   0.910  -4.675  0.00  0.00    -0.302 N 
ATOM      6  C   UNL     1      -3.184   0.213  -5.797  0.00  0.00    +0.037 A 
ATOM      7  C   UNL     1      -3.840   0.329  -7.014  0.00  0.00    +0.023 A 
ATOM      8  C   UNL     1      -3.374  -0.364  -8.114  0.00  0.00    +0.002 A 
ATOM      9  C   UNL     1      -2.255  -1.169  -7.997  0.00  0.00    +0.000 A 
ATOM     10  C   UNL     1      -1.600  -1.281  -6.786  0.00  0.00    +0.007 A 
ATOM     11  C   UNL     1      -2.057  -0.587  -5.678  0.00  0.00    -0.010 A 
ATOM     12  C   UNL     1      -1.306  -0.709  -4.378  0.00  0.00    +0.124 C 
ATOM     13  N   UNL     1      -2.167  -0.374  -3.239  0.00  0.00    -0.368 NA
ATOM     14  H   UNL     1      -4.491   1.417  -4.690  0.00  0.00    +0.153 HD
ATOM     15  H   UNL     1      -2.828  -1.120  -3.081  0.00  0.00    +0.129 HD
ENDROOT
BRANCH   1  17
ATOM     16  N   UNL     1       0.808  -1.358  -1.862  0.00  0.00    -0.209 N 
ATOM     17  C   UNL     1       0.112  -0.311  -2.348  0.00  0.00    +0.249 C 
ATOM     18  O   UNL     1       0.666   0.515  -3.042  0.00  0.00    -0.272 OA
BRANCH  16  19
ATOM     19  C   UNL     1       2.191  -1.437  -2.068  0.00  0.00    +0.089 A 
ATOM     20  C   UNL     1       3.062  -0.793  -1.201  0.00  0.00    +0.028 A 
ATOM     21  C   UNL     1       4.426  -0.872  -1.407  0.00  0.00    +0.002 A 
ATOM     22  C   UNL     1       4.927  -1.592  -2.476  0.00  0.00    +0.004 A 
ATOM     23  C   UNL     1       4.066  -2.236  -3.345  0.00  0.00    +0.047 A 
ATOM     24  C   UNL     1       2.697  -2.167  -3.142  0.00  0.00    +0.139 A 
BRANCH  24  25
ATOM     25  O   UNL     1       1.849  -2.805  -3.992  0.00  0.00    -0.505 OA
ATOM     26  H   UNL     1       1.568  -2.267  -4.745  0.00  0.00    +0.292 HD
ENDBRANCH  24  25
ENDBRANCH  16  19
BRANCH  16  28
ATOM     27  C   UNL     1      -0.012  -1.932   0.685  0.00  0.00    +0.107 C 
ATOM     28  S   UNL     1       0.027  -2.551  -1.020  0.00  0.00    -0.055 S 
ENDBRANCH  16  28
ENDBRANCH   1  17
BRANCH   3  29
ATOM     29  S   UNL     1      -3.356   3.378  -2.713  0.00  0.00    +0.150 S 
ATOM     30  O   UNL     1      -2.312   4.299  -2.429  0.00  0.00    -0.132 OA
ATOM     31  O   UNL     1      -4.123   3.441  -3.908  0.00  0.00    -0.132 OA
BRANCH  29  32
ATOM     32  O   UNL     1      -4.343   3.468  -1.558  0.00  0.00    -0.342 OA
BRANCH  32  33
ATOM     33  C   UNL     1      -5.490   2.767  -1.755  0.00  0.00    +0.157 A 
ATOM     34  C   UNL     1      -6.551   3.348  -2.434  0.00  0.00    +0.048 A 
ATOM     35  C   UNL     1      -7.716   2.633  -2.634  0.00  0.00    +0.004 A 
ATOM     36  C   UNL     1      -7.826   1.340  -2.156  0.00  0.00    +0.000 A 
ATOM     37  C   UNL     1      -6.770   0.759  -1.478  0.00  0.00    +0.004 A 
ATOM     38  C   UNL     1      -5.600   1.468  -1.282  0.00  0.00    +0.048 A 
ENDBRANCH  32  33
ENDBRANCH  29  32
ENDBRANCH   3  29
TORSDOF 7
