REMARK  Name = ZINC37061617
REMARK  4 active torsions:
REMARK  status: ('A' for Active; 'I' for Inactive)
REMARK    1  A    between atoms: C_5  and  C_7
REMARK    2  A    between atoms: C_9  and  N_11
REMARK    3  A    between atoms: N_11  and  C_12
REMARK    4  A    between atoms: C_15  and  N_18
REMARK                            x       y       z     vdW  Elec       q    Type
REMARK                         _______ _______ _______ _____ _____    ______ ____
ROOT
ATOM      1  C   UNL     1       1.229  -2.186  -0.022  0.00  0.00    +0.024 C 
ATOM      2  C   UNL     1       0.111  -2.812  -0.872  0.00  0.00    +0.030 C 
ATOM      3  C   UNL     1      -0.035  -3.867   0.237  0.00  0.00    +0.072 C 
ATOM      4  C   UNL     1       0.544  -2.818   1.201  0.00  0.00    +0.030 C 
ENDROOT
BRANCH   1   9
ATOM      5  C   UNL     1      -0.017   1.378   0.010  0.00  0.00    +0.000 A 
ATOM      6  C   UNL     1       1.171   2.086   0.002  0.00  0.00    +0.001 A 
ATOM      7  C   UNL     1       2.377   1.412  -0.013  0.00  0.00    +0.015 A 
ATOM      8  C   UNL     1       2.397   0.029  -0.021  0.00  0.00    +0.021 A 
ATOM      9  C   UNL     1       1.208  -0.679  -0.013  0.00  0.00    -0.030 A 
ATOM     10  C   UNL     1       0.002  -0.004   0.002  0.00  0.00    +0.005 A 
ATOM     11 BR   UNL     1       4.047  -0.894  -0.042  0.00  0.00    -0.050 Br
ENDBRANCH   1   9
BRANCH   3  12
ATOM     12  N   UNL     1      -1.425  -4.226   0.527  0.00  0.00    -0.341 N 
ATOM     13  H   UNL     1      -2.139  -3.599   0.332  0.00  0.00    +0.146 HD
BRANCH  12  14
ATOM     14  C   UNL     1      -1.723  -5.472   1.083  0.00  0.00    +0.027 A 
ATOM     15  C   UNL     1      -0.702  -6.370   1.367  0.00  0.00    +0.025 A 
ATOM     16  C   UNL     1      -1.000  -7.601   1.918  0.00  0.00    +0.034 A 
ATOM     17  C   UNL     1      -2.314  -7.940   2.186  0.00  0.00    +0.126 A 
ATOM     18  C   UNL     1      -3.333  -7.049   1.904  0.00  0.00    +0.034 A 
ATOM     19  C   UNL     1      -3.041  -5.814   1.358  0.00  0.00    +0.025 A 
BRANCH  17  20
ATOM     20  N   UNL     1      -2.629  -9.261   2.775  0.00  0.00    +0.056 N 
ATOM     21  O   UNL     1      -1.740 -10.041   3.022  0.00  0.00    -0.126 OA
ATOM     22  O   UNL     1      -3.777  -9.559   3.010  0.00  0.00    -0.126 OA
ENDBRANCH  17  20
ENDBRANCH  12  14
ENDBRANCH   3  12
TORSDOF 4
