REMARK  Name = ZINC06046039
REMARK  7 active torsions:
REMARK  status: ('A' for Active; 'I' for Inactive)
REMARK    1  A    between atoms: C_1  and  C_2
REMARK    2  A    between atoms: C_2  and  C_3
REMARK    3  A    between atoms: C_3  and  C_4
REMARK    4  A    between atoms: C_11  and  N_16
REMARK    5  A    between atoms: C_12  and  C_13
REMARK    6  A    between atoms: C_17  and  C_19
REMARK    7  A    between atoms: C_24  and  C_25
REMARK                            x       y       z     vdW  Elec       q    Type
REMARK                         _______ _______ _______ _____ _____    ______ ____
ROOT
ATOM      1  C   UNL     1       0.566  -2.634  -2.203  0.00  0.00    -0.006 C 
ATOM      2  C   UNL     1      -0.692  -2.261  -1.413  0.00  0.00    +0.008 C 
ATOM      3  C   UNL     1      -1.054  -0.797  -1.670  0.00  0.00    +0.037 C 
ATOM      4  C   UNL     1       0.175   0.065  -1.406  0.00  0.00    -0.023 A 
ATOM      5  C   UNL     1       1.411  -0.478  -1.375  0.00  0.00    -0.004 A 
ATOM      6  S   UNL     1       2.494   0.883  -1.042  0.00  0.00    -0.077 S 
ATOM      7  C   UNL     1       1.322   2.155  -0.945  0.00  0.00    +0.085 A 
ATOM      8  C   UNL     1       0.121   1.498  -1.173  0.00  0.00    +0.068 A 
ATOM      9  C   UNL     1       1.772  -1.917  -1.580  0.00  0.00    +0.046 C 
ENDROOT
BRANCH   8  10
ATOM     10  C   UNL     1      -1.153   2.223  -1.184  0.00  0.00    +0.244 C 
ATOM     11  O   UNL     1      -1.788   2.352  -0.154  0.00  0.00    -0.270 OA
ATOM     12  N   UNL     1      -1.620   2.747  -2.334  0.00  0.00    -0.325 N 
ATOM     13  H   UNL     1      -1.113   2.645  -3.155  0.00  0.00    +0.145 HD
ATOM     14  H   UNL     1      -2.463   3.227  -2.341  0.00  0.00    +0.145 HD
ENDBRANCH   8  10
BRANCH   7  15
ATOM     15  N   UNL     1       1.533   3.503  -0.700  0.00  0.00    -0.275 N 
ATOM     16  C   UNL     1       2.783   3.964  -0.500  0.00  0.00    +0.249 C 
ATOM     17  O   UNL     1       3.727   3.198  -0.535  0.00  0.00    -0.270 OA
ATOM     18  H   UNL     1       0.780   4.114  -0.671  0.00  0.00    +0.156 HD
BRANCH  16  19
ATOM     19  C   UNL     1       3.008   5.401  -0.238  0.00  0.00    +0.040 A 
ATOM     20  C   UNL     1       1.946   6.304  -0.326  0.00  0.00    +0.013 A 
ATOM     21  C   UNL     1       2.162   7.643  -0.075  0.00  0.00    +0.001 A 
ATOM     22  C   UNL     1       3.429   8.094   0.253  0.00  0.00    +0.000 A 
ATOM     23  C   UNL     1       4.486   7.205   0.336  0.00  0.00    +0.004 A 
ATOM     24  C   UNL     1       4.283   5.862   0.093  0.00  0.00    -0.038 A 
ATOM     25  C   UNL     1       5.436   4.896   0.183  0.00  0.00    +0.044 C 
ENDBRANCH  16  19
ENDBRANCH   7  15
BRANCH   1  26
ATOM     26  C   UNL     1       0.781  -4.147  -2.142  0.00  0.00    +0.003 C 
BRANCH  26  28
ATOM     27  C   UNL     1       2.179  -6.045  -2.972  0.00  0.00    +0.004 C 
ATOM     28  C   UNL     1       1.964  -4.531  -3.033  0.00  0.00    -0.003 C 
ENDBRANCH  26  28
ENDBRANCH   1  26
TORSDOF 5
