REMARK  Name = ZINC12503317
REMARK  12 active torsions:
REMARK  status: ('A' for Active; 'I' for Inactive)
REMARK    1  A    between atoms: C_1  and  C_2
REMARK    2  A    between atoms: C_2  and  C_32
REMARK    3  A    between atoms: C_3  and  C_21
REMARK    4  A    between atoms: C_9  and  N_63
REMARK    5  A    between atoms: C_21  and  O_23
REMARK    6  A    between atoms: O_23  and  C_24
REMARK    7  A    between atoms: C_24  and  O_25
REMARK    8  A    between atoms: O_25  and  C_26
REMARK    9  A    between atoms: C_26  and  C_28
REMARK   10  A    between atoms: C_28  and  C_29
REMARK   11  A    between atoms: C_28  and  C_30
REMARK   12  A    between atoms: C_28  and  C_31
REMARK                            x       y       z     vdW  Elec       q    Type
REMARK                         _______ _______ _______ _____ _____    ______ ____
ROOT
ATOM      1  C   UNL     1      -0.710   5.306   1.019  0.00  0.00    +0.025 C 
ATOM      2  C   UNL     1      -0.570   5.272  -0.504  0.00  0.00    +0.042 C 
ATOM      3  C   UNL     1       0.821   4.720  -0.942  0.00  0.00    +0.201 C 
ATOM      4  N   UNL     1       0.850   3.264  -0.787  0.00  0.00    -0.270 N 
ATOM      5  C   UNL     1      -0.415   2.572  -1.116  0.00  0.00    +0.167 C 
ATOM      6  S   UNL     1      -1.625   3.954  -1.258  0.00  0.00    -0.127 S 
ATOM      7  C   UNL     1      -0.296   2.022   0.306  0.00  0.00    +0.197 C 
ATOM      8  C   UNL     1       1.020   2.743   0.451  0.00  0.00    +0.242 C 
ATOM      9  O   UNL     1       1.871   2.823   1.312  0.00  0.00    -0.273 OA
ATOM     10  C   UNL     1      -0.852   6.643  -1.122  0.00  0.00    +0.025 C 
ENDROOT
BRANCH   7  19
ATOM     11  C   UNL     1      -2.189   1.782   1.850  0.00  0.00    +0.154 C 
ATOM     12  N   UNL     1      -3.118   2.360   2.674  0.00  0.00    -0.323 N 
ATOM     13  C   UNL     1      -3.117   3.798   2.819  0.00  0.00    +0.106 C 
ATOM     14  C   UNL     1      -2.180   4.209   3.974  0.00  0.00    +0.019 C 
ATOM     15  C   UNL     1      -2.770   3.834   5.268  0.00  0.00    +0.002 C 
ATOM     16  C   UNL     1      -2.970   2.334   5.457  0.00  0.00    +0.002 C 
ATOM     17  C   UNL     1      -4.286   1.923   4.844  0.00  0.00    +0.019 C 
ATOM     18  C   UNL     1      -4.075   1.487   3.382  0.00  0.00    +0.106 C 
ATOM     19  N   UNL     1      -1.341   2.591   1.226  0.00  0.00    -0.366 N 
ATOM     20  H   UNL     1      -1.398   3.606   1.371  0.00  0.00    +0.161 HD
ENDBRANCH   7  19
BRANCH   3  21
ATOM     21  C   UNL     1       1.897   5.336  -0.084  0.00  0.00    +0.332 C 
ATOM     22  O   UNL     1       2.010   5.005   1.073  0.00  0.00    -0.249 OA
BRANCH  21  23
ATOM     23  O   UNL     1       2.728   6.252  -0.605  0.00  0.00    -0.426 OA
BRANCH  23  24
ATOM     24  C   UNL     1       3.740   6.802   0.280  0.00  0.00    +0.472 C 
BRANCH  24  25
ATOM     25  O   UNL     1       4.791   5.822   0.482  0.00  0.00    -0.427 OA
BRANCH  25  26
ATOM     26  C   UNL     1       5.652   5.633  -0.531  0.00  0.00    +0.315 C 
ATOM     27  O   UNL     1       5.531   6.266  -1.552  0.00  0.00    -0.250 OA
BRANCH  26  28
ATOM     28  C   UNL     1       6.769   4.631  -0.393  0.00  0.00    +0.059 C 
ATOM     29  C   UNL     1       7.598   4.612  -1.679  0.00  0.00    +0.022 C 
ATOM     30  C   UNL     1       7.664   5.024   0.784  0.00  0.00    +0.022 C 
ATOM     31  C   UNL     1       6.181   3.241  -0.145  0.00  0.00    +0.022 C 
ENDBRANCH  26  28
ENDBRANCH  25  26
ENDBRANCH  24  25
ENDBRANCH  23  24
ENDBRANCH  21  23
ENDBRANCH   3  21
TORSDOF 7
