REMARK  Name = ZINC41252303
REMARK  6 active torsions:
REMARK  status: ('A' for Active; 'I' for Inactive)
REMARK    1  A    between atoms: C_6  and  C_7
REMARK    2  A    between atoms: N_12  and  C_14
REMARK    3  A    between atoms: C_14  and  C_15
REMARK    4  A    between atoms: C_15  and  C_16
REMARK    5  A    between atoms: C_21  and  C_24
REMARK    6  A    between atoms: C_21  and  N_27
REMARK                            x       y       z     vdW  Elec       q    Type
REMARK                         _______ _______ _______ _____ _____    ______ ____
ROOT
ATOM      1  C   UNL     1      -2.571  -6.215  -1.643  0.00  0.00    +0.217 C 
ATOM      2  O   UNL     1      -2.633  -6.816  -0.592  0.00  0.00    -0.276 OA
ATOM      3  N   UNL     1      -2.352  -6.886  -2.791  0.00  0.00    -0.302 N 
ATOM      4  C   UNL     1      -2.268  -6.171  -4.072  0.00  0.00    +0.107 C 
ATOM      5  C   UNL     1      -0.955  -6.549  -4.763  0.00  0.00    +0.016 C 
ATOM      6  C   UNL     1      -0.868  -8.072  -4.887  0.00  0.00    +0.015 C 
ATOM      7  C   UNL     1      -0.878  -8.700  -3.491  0.00  0.00    +0.016 C 
ATOM      8  C   UNL     1      -2.184  -8.346  -2.785  0.00  0.00    +0.107 C 
ENDROOT
BRANCH   6   9
ATOM      9  N   UNL     1       0.375  -8.437  -5.579  0.00  0.00    +0.389 N 
ATOM     10  C   UNL     1       0.384  -7.832  -6.917  0.00  0.00    -0.077 C 
ATOM     11  C   UNL     1       1.712  -8.142  -7.612  0.00  0.00    -0.019 C 
ATOM     12  C   UNL     1       1.876  -9.660  -7.734  0.00  0.00    -0.004 C 
ATOM     13  C   UNL     1       1.790 -10.287  -6.340  0.00  0.00    -0.019 C 
ATOM     14  C   UNL     1       0.460  -9.898  -5.692  0.00  0.00    -0.077 C 
ATOM     15  H   UNL     1       1.165  -8.095  -5.053  0.00  0.00    -0.080 HD
ENDBRANCH   6   9
BRANCH   6  16
ATOM     16  C   UNL     1      -2.048  -8.580  -5.674  0.00  0.00    +0.200 C 
ATOM     17  O   UNL     1      -2.724  -7.807  -6.320  0.00  0.00    -0.278 OA
ATOM     18  N   UNL     1      -2.353  -9.893  -5.660  0.00  0.00    -0.330 N 
ATOM     19  H   UNL     1      -1.861 -10.499  -5.085  0.00  0.00    +0.145 HD
ATOM     20  H   UNL     1      -3.065 -10.231  -6.226  0.00  0.00    +0.145 HD
ENDBRANCH   6  16
BRANCH   1  21
ATOM     21  C   UNL     1      -2.741  -4.718  -1.666  0.00  0.00    +0.119 C 
BRANCH  21  22
ATOM     22  C   UNL     1      -2.977  -4.209  -0.242  0.00  0.00    +0.156 C 
BRANCH  22  28
ATOM     23  C   UNL     1      -2.181  -0.696  -0.147  0.00  0.00    +0.092 A 
ATOM     24  C   UNL     1      -3.433  -0.055  -0.304  0.00  0.00    +0.035 A 
ATOM     25  C   UNL     1      -4.543  -0.834  -0.441  0.00  0.00    +0.074 A 
ATOM     26  C   UNL     1      -4.375  -2.237  -0.419  0.00  0.00    +0.267 A 
ATOM     27  O   UNL     1      -5.340  -2.974  -0.538  0.00  0.00    -0.266 OA
ATOM     28  N   UNL     1      -3.141  -2.754  -0.264  0.00  0.00    -0.228 N 
ATOM     29  N   UNL     1      -2.105  -2.006  -0.142  0.00  0.00    -0.168 NA
BRANCH  23  35
ATOM     30  C   UNL     1      -1.026   1.508  -0.000  0.00  0.00    +0.014 A 
ATOM     31  C   UNL     1       0.121   2.263   0.143  0.00  0.00    +0.050 A 
ATOM     32  C   UNL     1       1.351   1.641   0.291  0.00  0.00    +0.166 A 
ATOM     33  C   UNL     1       1.433   0.249   0.297  0.00  0.00    +0.167 A 
ATOM     34  C   UNL     1       0.287  -0.511   0.155  0.00  0.00    +0.059 A 
ATOM     35  C   UNL     1      -0.949   0.116   0.005  0.00  0.00    +0.006 A 
ATOM     36  O   UNL     1       2.741  -0.110   0.456  0.00  0.00    -0.453 OA
ATOM     37  C   UNL     1       3.504   1.068   0.137  0.00  0.00    +0.466 C 
ATOM     38  O   UNL     1       2.607   2.151   0.447  0.00  0.00    -0.453 OA
ENDBRANCH  23  35
ENDBRANCH  22  28
ENDBRANCH  21  22
ENDBRANCH   1  21
TORSDOF 6
