REMARK  Name = ZINC49147402
REMARK  7 active torsions:
REMARK  status: ('A' for Active; 'I' for Inactive)
REMARK    1  A    between atoms: C_1  and  C_2
REMARK    2  A    between atoms: C_2  and  C_4
REMARK    3  A    between atoms: C_2  and  N_10
REMARK    4  A    between atoms: N_10  and  S_11
REMARK    5  A    between atoms: S_11  and  C_14
REMARK    6  A    between atoms: C_19  and  N_20
REMARK    7  A    between atoms: N_20  and  N_21
REMARK                            x       y       z     vdW  Elec       q    Type
REMARK                         _______ _______ _______ _____ _____    ______ ____
ROOT
ATOM      1  S   UNL     1       2.353  -0.735  -1.193  0.00  0.00    +0.062 S 
ATOM      2  O   UNL     1       2.846  -1.062  -2.485  0.00  0.00    -0.153 OA
ATOM      3  O   UNL     1       2.820   0.391  -0.462  0.00  0.00    -0.153 OA
ENDROOT
BRANCH   1   4
ATOM      4  C   UNL     1       2.630  -2.146  -0.175  0.00  0.00    +0.147 A 
ATOM      5  C   UNL     1       3.236  -2.011   1.061  0.00  0.00    +0.048 A 
ATOM      6  C   UNL     1       3.435  -3.150   1.830  0.00  0.00    +0.038 A 
ATOM      7  C   UNL     1       3.024  -4.375   1.342  0.00  0.00    +0.128 A 
ATOM      8  N   UNL     1       2.448  -4.474   0.159  0.00  0.00    -0.236 NA
ATOM      9  C   UNL     1       2.236  -3.410  -0.601  0.00  0.00    +0.159 A 
ATOM     10 BR   UNL     1       4.260  -3.026   3.527  0.00  0.00    -0.049 Br
BRANCH   9  11
ATOM     11  N   UNL     1       1.619  -3.559  -1.838  0.00  0.00    -0.266 N 
ATOM     12  H   UNL     1       1.391  -2.777  -2.364  0.00  0.00    +0.167 HD
BRANCH  11  13
ATOM     13  N   UNL     1       1.335  -4.808  -2.314  0.00  0.00    -0.255 NA
ATOM     14  H   UNL     1       0.766  -5.323  -1.659  0.00  0.00    +0.140 HD
ATOM     15  H   UNL     1       0.891  -4.758  -3.218  0.00  0.00    +0.140 HD
ENDBRANCH  11  13
ENDBRANCH   9  11
ENDBRANCH   1   4
BRANCH   1  16
ATOM     16  N   UNL     1       0.714  -0.554  -1.344  0.00  0.00    -0.182 NA
ATOM     17  H   UNL     1       0.292  -0.656  -2.212  0.00  0.00    +0.149 HD
BRANCH  16  19
ATOM     18  C   UNL     1      -0.325   1.271  -0.090  0.00  0.00    +0.031 C 
ATOM     19  C   UNL     1      -0.101  -0.241  -0.168  0.00  0.00    +0.110 C 
BRANCH  19  20
ATOM     20  C   UNL     1      -1.431  -0.941  -0.276  0.00  0.00    +0.009 A 
ATOM     21  C   UNL     1      -2.154  -1.555   0.692  0.00  0.00    +0.014 A 
ATOM     22  C   UNL     1      -3.362  -2.137   0.359  0.00  0.00    +0.028 A 
ATOM     23  C   UNL     1      -3.789  -2.077  -0.928  0.00  0.00    +0.078 A 
ATOM     24  S   UNL     1      -2.467  -1.169  -1.712  0.00  0.00    -0.080 S 
ATOM     25 CL   UNL     1      -5.245  -2.711  -1.628  0.00  0.00    -0.076 Cl
ENDBRANCH  19  20
ENDBRANCH  16  19
ENDBRANCH   1  16
TORSDOF 6
