REMARK  Name = ZINC00288866
REMARK  4 active torsions:
REMARK  status: ('A' for Active; 'I' for Inactive)
REMARK    1  A    between atoms: C_1  and  C_2
REMARK    2  A    between atoms: C_5  and  C_8
REMARK    3  A    between atoms: C_22  and  N_26
REMARK    4  A    between atoms: C_23  and  C_24
REMARK                            x       y       z     vdW  Elec       q    Type
REMARK                         _______ _______ _______ _____ _____    ______ ____
ROOT
ATOM      1  C   UNL     1       1.296  -2.135  -0.021  0.00  0.00    +0.105 C 
ATOM      2  C   UNL     1       1.212  -0.632  -0.012  0.00  0.00    +0.092 A 
ATOM      3  C   UNL     1       0.002  -0.004   0.002  0.00  0.00    +0.152 A 
ATOM      4  C   UNL     1      -0.018   1.467   0.010  0.00  0.00    +0.060 A 
ATOM      5  C   UNL     1      -1.223   2.172   0.031  0.00  0.00    +0.015 A 
ATOM      6  C   UNL     1      -1.206   3.549   0.032  0.00  0.00    +0.001 A 
ATOM      7  C   UNL     1       0.001   4.235   0.024  0.00  0.00    +0.004 A 
ATOM      8  C   UNL     1       1.198   3.550   0.009  0.00  0.00    +0.047 A 
ATOM      9  C   UNL     1       1.202   2.162   0.002  0.00  0.00    +0.143 A 
ATOM     10  O   UNL     1       2.365   1.475  -0.012  0.00  0.00    -0.422 OA
ATOM     11  C   UNL     1       2.392   0.133  -0.018  0.00  0.00    +0.345 A 
ATOM     12  O   UNL     1       3.468  -0.438  -0.030  0.00  0.00    -0.245 OA
ATOM     13  O   UNL     1      -1.152  -0.698   0.008  0.00  0.00    -0.440 OA
ATOM     14  C   UNL     1      -1.157  -1.991   0.379  0.00  0.00    +0.199 C 
ATOM     15  C   UNL     1      -0.022  -2.731   0.387  0.00  0.00    +0.098 C 
ENDROOT
BRANCH   1  20
ATOM     16  C   UNL     1       2.647  -3.944  -5.340  0.00  0.00    +0.044 C 
ATOM     17  C   UNL     1       2.295  -3.472  -3.954  0.00  0.00    -0.050 A 
ATOM     18  C   UNL     1       3.135  -3.755  -2.893  0.00  0.00    +0.003 A 
ATOM     19  C   UNL     1       2.812  -3.322  -1.621  0.00  0.00    +0.005 A 
ATOM     20  C   UNL     1       1.649  -2.606  -1.409  0.00  0.00    -0.034 A 
ATOM     21  C   UNL     1       0.806  -2.328  -2.468  0.00  0.00    +0.005 A 
ATOM     22  C   UNL     1       1.132  -2.756  -3.742  0.00  0.00    +0.003 A 
ENDBRANCH   1  20
BRANCH  14  23
ATOM     23  N   UNL     1      -2.339  -2.574   0.759  0.00  0.00    -0.328 N 
ATOM     24  H   UNL     1      -3.159  -2.055   0.758  0.00  0.00    +0.145 HD
ATOM     25  H   UNL     1      -2.356  -3.506   1.029  0.00  0.00    +0.145 HD
ENDBRANCH  14  23
BRANCH  15  26
ATOM     26  C   UNL     1      -0.079  -4.103   0.791  0.00  0.00    +0.101 C 
ATOM     27  N   UNL     1      -0.124  -5.192   1.112  0.00  0.00    -0.191 NA
ENDBRANCH  15  26
TORSDOF 3
