REMARK  Name = ZINC12635452
REMARK  12 active torsions:
REMARK  status: ('A' for Active; 'I' for Inactive)
REMARK    1  A    between atoms: C_1  and  C_2
REMARK    2  A    between atoms: C_2  and  C_3
REMARK    3  A    between atoms: C_8  and  N_9
REMARK    4  A    between atoms: N_9  and  C_10
REMARK    5  A    between atoms: C_10  and  N_12
REMARK    6  A    between atoms: N_12  and  C_13
REMARK    7  A    between atoms: N_12  and  C_27
REMARK    8  A    between atoms: C_13  and  C_14
REMARK    9  A    between atoms: C_19  and  C_26
REMARK   10  A    between atoms: C_27  and  C_28
REMARK   11  A    between atoms: C_33  and  C_34
REMARK   12  A    between atoms: C_33  and  N_67
REMARK                            x       y       z     vdW  Elec       q    Type
REMARK                         _______ _______ _______ _____ _____    ______ ____
ROOT
ATOM      1  N   UNL     1      -1.441  -0.686   1.685  0.00  0.00    -0.309 N 
ENDROOT
BRANCH   1   2
ATOM      2  C   UNL     1      -1.209  -1.756   2.472  0.00  0.00    +0.137 C 
ATOM      3  S   UNL     1       0.091  -2.812   2.120  0.00  0.00    -0.018 S 
BRANCH   2   4
ATOM      4  N   UNL     1      -2.001  -1.993   3.537  0.00  0.00    -0.297 N 
ATOM      5  H   UNL     1      -2.712  -1.373   3.760  0.00  0.00    +0.154 HD
BRANCH   4  11
ATOM      6  C   UNL     1      -1.925  -3.063   5.700  0.00  0.00    -0.026 A 
ATOM      7  C   UNL     1      -1.727  -4.193   6.470  0.00  0.00    +0.005 A 
ATOM      8  C   UNL     1      -1.391  -5.391   5.868  0.00  0.00    +0.000 A 
ATOM      9  C   UNL     1      -1.257  -5.464   4.494  0.00  0.00    +0.002 A 
ATOM     10  C   UNL     1      -1.458  -4.340   3.718  0.00  0.00    +0.023 A 
ATOM     11  C   UNL     1      -1.796  -3.134   4.320  0.00  0.00    +0.036 A 
BRANCH   6  13
ATOM     12  C   UNL     1      -3.805  -1.585   6.355  0.00  0.00    +0.009 C 
ATOM     13  C   UNL     1      -2.285  -1.756   6.358  0.00  0.00    +0.033 C 
ENDBRANCH   6  13
ENDBRANCH   4  11
ENDBRANCH   2   4
ENDBRANCH   1   2
BRANCH   1  14
ATOM     14  C   UNL     1      -0.580  -0.428   0.528  0.00  0.00    +0.147 C 
BRANCH  14  15
ATOM     15  C   UNL     1       0.574   0.446   0.945  0.00  0.00    +0.035 A 
ATOM     16  C   UNL     1       1.758  -0.118   1.293  0.00  0.00    +0.020 A 
ATOM     17  C   UNL     1       2.859   0.759   1.694  0.00  0.00    -0.001 A 
ATOM     18  C   UNL     1       4.103   0.236   2.062  0.00  0.00    +0.010 A 
ATOM     19  C   UNL     1       5.111   1.081   2.431  0.00  0.00    +0.004 A 
ATOM     20  C   UNL     1       4.911   2.455   2.443  0.00  0.00    -0.048 A 
ATOM     21  C   UNL     1       3.694   2.993   2.084  0.00  0.00    +0.029 A 
ATOM     22  C   UNL     1       2.653   2.152   1.704  0.00  0.00    +0.049 A 
ATOM     23  N   UNL     1       1.425   2.662   1.341  0.00  0.00    -0.322 N 
ATOM     24  H   UNL     1       1.285   3.622   1.349  0.00  0.00    +0.169 HD
ATOM     25  C   UNL     1       0.420   1.849   0.974  0.00  0.00    +0.254 A 
ATOM     26  O   UNL     1      -0.651   2.335   0.653  0.00  0.00    -0.268 OA
ATOM     27  C   UNL     1       6.038   3.369   2.854  0.00  0.00    +0.044 C 
ENDBRANCH  14  15
ENDBRANCH   1  14
BRANCH   1  28
ATOM     28  C   UNL     1      -2.553   0.218   1.987  0.00  0.00    +0.092 C 
BRANCH  28  29
ATOM     29  C   UNL     1      -3.844  -0.343   1.385  0.00  0.00    -0.051 C 
ATOM     30  C   UNL     1      -3.768  -0.333  -0.157  0.00  0.00    -0.016 C 
ATOM     31  C   UNL     1      -5.190   0.035  -0.626  0.00  0.00    -0.020 C 
ATOM     32  C   UNL     1      -6.006   0.216   0.672  0.00  0.00    -0.078 C 
ATOM     33  N   UNL     1      -4.991   0.523   1.678  0.00  0.00    +0.382 N 
ATOM     34  H   UNL     1      -4.714   1.509   1.607  0.00  0.00    -0.081 HD
BRANCH  33  35
ATOM     35  C   UNL     1      -5.508   0.257   3.058  0.00  0.00    -0.082 C 
ATOM     36  C   UNL     1      -6.562   1.302   3.431  0.00  0.00    -0.017 C 
ENDBRANCH  33  35
ENDBRANCH  28  29
ENDBRANCH   1  28
TORSDOF 9
