REMARK  Name = ZINC38970866
REMARK  5 active torsions:
REMARK  status: ('A' for Active; 'I' for Inactive)
REMARK    1  A    between atoms: N_7  and  S_8
REMARK    2  A    between atoms: S_8  and  C_11
REMARK    3  A    between atoms: C_19  and  N_24
REMARK    4  A    between atoms: N_24  and  C_25
REMARK    5  A    between atoms: C_25  and  C_26
REMARK                            x       y       z     vdW  Elec       q    Type
REMARK                         _______ _______ _______ _____ _____    ______ ____
ROOT
ATOM      1  C   UNL     1      -0.016   1.347   0.009  0.00  0.00    +0.002 A 
ATOM      2  C   UNL     1       1.169   2.102   0.002  0.00  0.00    +0.002 A 
ATOM      3  C   UNL     1       2.395   1.536  -0.013  0.00  0.00    +0.030 A 
ATOM      4  C   UNL     1       2.534   0.125  -0.021  0.00  0.00    +0.089 A 
ATOM      5  N   UNL     1       3.732  -0.421  -0.035  0.00  0.00    -0.226 NA
ATOM      6  C   UNL     1       3.898  -1.753  -0.044  0.00  0.00    +0.188 C 
ATOM      7  N   UNL     1       5.092  -2.269  -0.057  0.00  0.00    -0.110 NA
ATOM      8  C   UNL     1       2.677  -2.645  -0.038  0.00  0.00    +0.220 C 
ATOM      9  N   UNL     1       1.355  -2.000  -0.022  0.00  0.00    -0.362 N 
ATOM     10  C   UNL     1       1.299  -0.697  -0.014  0.00  0.00    +0.063 A 
ATOM     11  C   UNL     1       0.002  -0.004   0.002  0.00  0.00    +0.027 A 
ATOM     12  H   UNL     1       0.544  -2.532  -0.018  0.00  0.00    +0.162 HD
ENDROOT
BRANCH   7  13
ATOM     13  S   UNL     1       6.421  -1.280  -0.064  0.00  0.00    +0.102 S 
ATOM     14  O   UNL     1       6.407  -0.589  -1.305  0.00  0.00    -0.146 OA
ATOM     15  O   UNL     1       6.429  -0.603   1.185  0.00  0.00    -0.146 OA
BRANCH  13  16
ATOM     16  C   UNL     1       7.843  -2.320  -0.082  0.00  0.00    +0.132 A 
ATOM     17  C   UNL     1       8.693  -2.309  -1.172  0.00  0.00    +0.050 A 
ATOM     18  C   UNL     1       9.810  -3.126  -1.186  0.00  0.00    +0.043 A 
ATOM     19  C   UNL     1      10.076  -3.953  -0.109  0.00  0.00    +0.021 A 
ATOM     20  C   UNL     1       9.226  -3.964   0.981  0.00  0.00    +0.023 A 
ATOM     21  C   UNL     1       8.112  -3.143   0.997  0.00  0.00    +0.068 A 
ATOM     22 CL   UNL     1       7.049  -3.151   2.369  0.00  0.00    -0.082 Cl
ATOM     23 CL   UNL     1      10.877  -3.112  -2.555  0.00  0.00    -0.083 Cl
ENDBRANCH  13  16
ENDBRANCH   7  13
BRANCH   8  24
ATOM     24  N   UNL     1       2.764  -3.516   1.142  0.00  0.00    -0.284 NA
ATOM     25  H   UNL     1       3.677  -3.456   1.569  0.00  0.00    +0.125 HD
BRANCH  24  26
ATOM     26  C   UNL     1       2.435  -4.905   0.796  0.00  0.00    +0.157 C 
BRANCH  26  27
ATOM     27  C   UNL     1       2.535  -5.767   2.029  0.00  0.00    +0.119 A 
ATOM     28  C   UNL     1       1.535  -6.026   2.890  0.00  0.00    +0.046 A 
ATOM     29  C   UNL     1       2.066  -6.871   3.892  0.00  0.00    +0.041 A 
ATOM     30  C   UNL     1       3.359  -7.076   3.583  0.00  0.00    +0.195 A 
ATOM     31  O   UNL     1       3.636  -6.410   2.451  0.00  0.00    -0.467 OA
ENDBRANCH  26  27
ENDBRANCH  24  26
ENDBRANCH   8  24
TORSDOF 5
