REMARK  Name = ZINC50436732
REMARK  6 active torsions:
REMARK  status: ('A' for Active; 'I' for Inactive)
REMARK    1  A    between atoms: C_1  and  C_2
REMARK    2  A    between atoms: C_5  and  C_19
REMARK    3  A    between atoms: C_7  and  N_8
REMARK    4  A    between atoms: N_8  and  C_9
REMARK    5  A    between atoms: C_12  and  N_18
REMARK    6  A    between atoms: C_14  and  C_15
REMARK                            x       y       z     vdW  Elec       q    Type
REMARK                         _______ _______ _______ _____ _____    ______ ____
ROOT
ATOM      1  C   UNL     1       0.106  -0.790   3.565  0.00  0.00    +0.044 A 
ATOM      2  C   UNL     1       0.198  -2.173   3.462  0.00  0.00    +0.026 A 
ATOM      3  C   UNL     1       0.228  -2.951   4.600  0.00  0.00    +0.024 A 
ATOM      4  C   UNL     1       0.166  -2.361   5.859  0.00  0.00    +0.025 A 
ATOM      5  C   UNL     1       0.075  -0.985   5.978  0.00  0.00    +0.037 A 
ATOM      6  C   UNL     1       0.050  -0.188   4.831  0.00  0.00    +0.059 A 
ENDROOT
BRANCH   6   7
ATOM      7  C   UNL     1      -0.042   1.279   4.950  0.00  0.00    +0.243 C 
ATOM      8  O   UNL     1      -0.182   1.962   3.954  0.00  0.00    -0.270 OA
ATOM      9  N   UNL     1       0.031   1.863   6.162  0.00  0.00    -0.325 N 
ATOM     10  H   UNL     1       0.143   1.318   6.957  0.00  0.00    +0.145 HD
ATOM     11  H   UNL     1      -0.030   2.828   6.241  0.00  0.00    +0.145 HD
ENDBRANCH   6   7
BRANCH   4  12
ATOM     12  N   UNL     1       0.196  -3.160   7.008  0.00  0.00    -0.358 N 
ATOM     13  H   UNL     1       0.260  -4.125   6.926  0.00  0.00    +0.142 HD
ATOM     14  H   UNL     1       0.153  -2.750   7.885  0.00  0.00    +0.142 HD
ENDBRANCH   4  12
BRANCH   1  15
ATOM     15  N   UNL     1       0.076  -0.005   2.416  0.00  0.00    -0.314 N 
ATOM     16  H   UNL     1      -0.741   0.064   1.897  0.00  0.00    +0.152 HD
BRANCH  15  23
ATOM     17  C   UNL     1      -0.021   1.419  -0.040  0.00  0.00    +0.045 C 
ATOM     18  C   UNL     1       1.220   1.393   0.815  0.00  0.00    -0.029 A 
ATOM     19  C   UNL     1       2.349   2.080   0.411  0.00  0.00    +0.006 A 
ATOM     20  C   UNL     1       3.489   2.062   1.189  0.00  0.00    +0.019 A 
ATOM     21  C   UNL     1       3.504   1.347   2.389  0.00  0.00    +0.054 A 
ATOM     22  C   UNL     1       2.364   0.653   2.796  0.00  0.00    +0.042 A 
ATOM     23  C   UNL     1       1.222   0.683   2.010  0.00  0.00    +0.036 A 
BRANCH  21  24
ATOM     24  C   UNL     1       4.686   1.325   3.197  0.00  0.00    +0.099 C 
ATOM     25  N   UNL     1       5.623   1.308   3.838  0.00  0.00    -0.191 NA
ENDBRANCH  21  24
ENDBRANCH  15  23
ENDBRANCH   1  15
TORSDOF 5
