REMARK  Name = ZINC11752578
REMARK  6 active torsions:
REMARK  status: ('A' for Active; 'I' for Inactive)
REMARK    1  A    between atoms: C_1  and  C_2
REMARK    2  A    between atoms: C_2  and  C_3
REMARK    3  A    between atoms: C_2  and  C_4
REMARK    4  A    between atoms: C_4  and  C_6
REMARK    5  A    between atoms: C_4  and  N_22
REMARK    6  A    between atoms: C_23  and  C_25
REMARK                            x       y       z     vdW  Elec       q    Type
REMARK                         _______ _______ _______ _____ _____    ______ ____
ROOT
ATOM      1  C   UNL     1      -2.342   0.036   0.869  0.00  0.00    +0.239 C 
ATOM      2  O   UNL     1      -3.364   0.585   0.515  0.00  0.00    -0.273 OA
ATOM      3  N   UNL     1      -2.029  -0.025   2.178  0.00  0.00    -0.263 N 
ATOM      4  C   UNL     1      -2.816   0.631   3.111  0.00  0.00    +0.165 A 
ATOM      5  N   UNL     1      -3.897   1.349   2.916  0.00  0.00    -0.224 NA
ATOM      6  C   UNL     1      -4.571   1.938   3.929  0.00  0.00    +0.084 A 
ATOM      7  C   UNL     1      -5.738   2.732   3.853  0.00  0.00    +0.078 A 
ATOM      8  C   UNL     1      -6.309   3.265   4.988  0.00  0.00    +0.164 A 
ATOM      9  C   UNL     1      -5.751   3.034   6.245  0.00  0.00    +0.163 A 
ATOM     10  C   UNL     1      -4.606   2.261   6.351  0.00  0.00    +0.066 A 
ATOM     11  C   UNL     1      -4.037   1.730   5.220  0.00  0.00    +0.044 A 
ATOM     12  S   UNL     1      -2.623   0.708   4.886  0.00  0.00    -0.052 S 
ATOM     13  O   UNL     1      -6.315   3.552   7.370  0.00  0.00    -0.485 OA
ATOM     14  C   UNL     1      -7.248   4.623   7.187  0.00  0.00    +0.270 C 
ATOM     15  C   UNL     1      -8.205   4.236   6.052  0.00  0.00    +0.270 C 
ATOM     16  O   UNL     1      -7.434   4.028   4.864  0.00  0.00    -0.485 OA
ATOM     17  H   UNL     1      -1.252  -0.529   2.467  0.00  0.00    +0.157 HD
ENDROOT
BRANCH   1  18
ATOM     18  C   UNL     1      -1.423  -0.577  -0.156  0.00  0.00    +0.162 C 
BRANCH  18  19
ATOM     19  N   UNL     1      -2.180  -0.877  -1.374  0.00  0.00    -0.304 N 
ATOM     20  C   UNL     1      -1.754  -1.845  -2.211  0.00  0.00    +0.217 C 
ATOM     21  O   UNL     1      -0.745  -2.466  -1.955  0.00  0.00    -0.275 OA
ATOM     22  H   UNL     1      -2.987  -0.380  -1.578  0.00  0.00    +0.149 HD
BRANCH  20  23
ATOM     23  C   UNL     1      -2.533  -2.153  -3.463  0.00  0.00    +0.075 C 
ATOM     24  C   UNL     1      -3.952  -2.586  -3.089  0.00  0.00    +0.013 C 
ATOM     25  C   UNL     1      -4.742  -2.899  -4.361  0.00  0.00    +0.001 C 
ATOM     26  C   UNL     1      -4.050  -4.029  -5.126  0.00  0.00    +0.000 C 
ATOM     27  C   UNL     1      -2.631  -3.595  -5.501  0.00  0.00    +0.001 C 
ATOM     28  C   UNL     1      -1.841  -3.282  -4.229  0.00  0.00    +0.013 C 
ENDBRANCH  20  23
ENDBRANCH  18  19
BRANCH  18  30
ATOM     29  C   UNL     1       0.711  -0.267  -1.418  0.00  0.00    +0.009 C 
ATOM     30  C   UNL     1      -0.297   0.405  -0.484  0.00  0.00    +0.012 C 
ATOM     31  C   UNL     1      -0.883   1.641  -1.170  0.00  0.00    +0.009 C 
ENDBRANCH  18  30
ENDBRANCH   1  18
TORSDOF 4
