REMARK  Name = ZINC34945101
REMARK  9 active torsions:
REMARK  status: ('A' for Active; 'I' for Inactive)
REMARK    1  A    between atoms: C_10  and  N_12
REMARK    2  A    between atoms: C_13  and  C_15
REMARK    3  A    between atoms: C_15  and  C_16
REMARK    4  A    between atoms: C_16  and  N_17
REMARK    5  A    between atoms: N_17  and  C_18
REMARK    6  A    between atoms: N_17  and  S_24
REMARK    7  A    between atoms: C_18  and  C_19
REMARK    8  A    between atoms: S_24  and  C_27
REMARK    9  A    between atoms: C_31  and  N_33
REMARK                            x       y       z     vdW  Elec       q    Type
REMARK                         _______ _______ _______ _____ _____    ______ ____
ROOT
ATOM      1  N   UNL     1       7.823   3.693   1.568  0.00  0.00    -0.169 NA
ENDROOT
BRANCH   1   2
ATOM      2  S   UNL     1       7.295   5.009   2.424  0.00  0.00    +0.061 S 
ATOM      3  O   UNL     1       8.450   5.772   2.748  0.00  0.00    -0.153 OA
ATOM      4  O   UNL     1       6.201   5.553   1.699  0.00  0.00    -0.153 OA
BRANCH   2   5
ATOM      5  C   UNL     1       6.642   4.411   3.948  0.00  0.00    +0.108 A 
ATOM      6  C   UNL     1       5.306   4.066   4.039  0.00  0.00    +0.030 A 
ATOM      7  C   UNL     1       4.794   3.597   5.234  0.00  0.00    +0.024 A 
ATOM      8  C   UNL     1       5.618   3.473   6.338  0.00  0.00    +0.071 A 
ATOM      9  C   UNL     1       6.954   3.818   6.246  0.00  0.00    +0.146 A 
ATOM     10  C   UNL     1       7.467   4.282   5.049  0.00  0.00    +0.062 A 
ATOM     11 CL   UNL     1       4.975   2.884   7.840  0.00  0.00    -0.081 Cl
BRANCH   9  12
ATOM     12  N   UNL     1       7.836   3.684   7.427  0.00  0.00    +0.058 N 
ATOM     13  O   UNL     1       9.004   3.986   7.347  0.00  0.00    -0.126 OA
ATOM     14  O   UNL     1       7.389   3.274   8.473  0.00  0.00    -0.126 OA
ENDBRANCH   9  12
ENDBRANCH   2   5
ENDBRANCH   1   2
BRANCH   1  15
ATOM     15  C   UNL     1       6.910   3.000   0.655  0.00  0.00    +0.119 C 
BRANCH  15  16
ATOM     16  C   UNL     1       6.269   1.814   1.377  0.00  0.00    +0.113 C 
BRANCH  16  18
ATOM     17  N   UNL     1       4.649   0.018   0.860  0.00  0.00    -0.308 N 
ATOM     18  C   UNL     1       5.330   1.101   0.438  0.00  0.00    +0.215 C 
ATOM     19  O   UNL     1       5.189   1.502  -0.698  0.00  0.00    -0.276 OA
ATOM     20  H   UNL     1       4.762  -0.302   1.769  0.00  0.00    +0.149 HD
BRANCH  17  30
ATOM     21  C   UNL     1      -0.017   1.375   0.010  0.00  0.00    +0.000 A 
ATOM     22  C   UNL     1       1.174   2.078   0.002  0.00  0.00    +0.000 A 
ATOM     23  C   UNL     1       2.372   1.395  -0.016  0.00  0.00    +0.006 A 
ATOM     24  C   UNL     1       2.393   0.006  -0.025  0.00  0.00    -0.024 A 
ATOM     25  C   UNL     1       1.208  -0.694  -0.013  0.00  0.00    -0.042 A 
ATOM     26  C   UNL     1       0.002  -0.004   0.002  0.00  0.00    +0.004 A 
ATOM     27  C   UNL     1       1.155  -2.199  -0.005  0.00  0.00    +0.035 C 
ATOM     28  C   UNL     1       2.493  -2.786  -0.452  0.00  0.00    +0.007 C 
ATOM     29  C   UNL     1       3.607  -2.135   0.376  0.00  0.00    +0.027 C 
ATOM     30  C   UNL     1       3.736  -0.675  -0.053  0.00  0.00    +0.103 C 
ENDBRANCH  17  30
ENDBRANCH  16  18
ENDBRANCH  15  16
ENDBRANCH   1  15
BRANCH   1  31
ATOM     31  C   UNL     1       9.201   3.223   1.723  0.00  0.00    +0.183 C 
BRANCH  31  32
ATOM     32  C   UNL     1      10.062   3.821   0.641  0.00  0.00    +0.120 A 
ATOM     33  C   UNL     1      10.733   4.984   0.722  0.00  0.00    +0.046 A 
ATOM     34  C   UNL     1      11.403   5.157  -0.511  0.00  0.00    +0.041 A 
ATOM     35  C   UNL     1      11.101   4.090  -1.272  0.00  0.00    +0.195 A 
ATOM     36  O   UNL     1      10.292   3.282  -0.567  0.00  0.00    -0.466 OA
ENDBRANCH  31  32
ENDBRANCH   1  31
TORSDOF 9
