REMARK  Name = ZINC49116528
REMARK  8 active torsions:
REMARK  status: ('A' for Active; 'I' for Inactive)
REMARK    1  A    between atoms: C_1  and  C_2
REMARK    2  A    between atoms: C_2  and  C_3
REMARK    3  A    between atoms: C_9  and  N_11
REMARK    4  A    between atoms: C_12  and  C_14
REMARK    5  A    between atoms: C_14  and  N_15
REMARK    6  A    between atoms: C_16  and  C_22
REMARK    7  A    between atoms: C_17  and  N_21
REMARK    8  A    between atoms: C_18  and  C_20
REMARK                            x       y       z     vdW  Elec       q    Type
REMARK                         _______ _______ _______ _____ _____    ______ ____
ROOT
ATOM      1  N   UNL     1       1.267  -2.605  -0.145  0.00  0.00    -0.311 N 
ATOM      2  C   UNL     1       0.902  -3.830   0.284  0.00  0.00    +0.235 C 
ATOM      3  O   UNL     1       0.045  -4.450  -0.311  0.00  0.00    -0.274 OA
ATOM      4  H   UNL     1       1.952  -2.110   0.331  0.00  0.00    +0.149 HD
ENDROOT
BRANCH   1  10
ATOM      5  C   UNL     1       0.718  -0.497  -1.257  0.00  0.00    +0.009 C 
ATOM      6  C   UNL     1       2.187  -0.073  -1.207  0.00  0.00    +0.005 C 
ATOM      7  C   UNL     1       2.904  -0.566  -2.466  0.00  0.00    +0.000 C 
ATOM      8  C   UNL     1       2.816  -2.092  -2.538  0.00  0.00    +0.002 C 
ATOM      9  C   UNL     1       1.347  -2.517  -2.587  0.00  0.00    +0.022 C 
ATOM     10  C   UNL     1       0.630  -2.023  -1.329  0.00  0.00    +0.076 C 
BRANCH   5  12
ATOM     11  C   UNL     1      -0.019   1.526   0.010  0.00  0.00    +0.004 C 
ATOM     12  C   UNL     1       0.002  -0.004   0.002  0.00  0.00    +0.002 C 
ENDBRANCH   5  12
ENDBRANCH   1  10
BRANCH   2  13
ATOM     13  C   UNL     1       1.557  -4.429   1.502  0.00  0.00    +0.239 C 
BRANCH  13  14
ATOM     14  N   UNL     1       0.990  -5.755   1.759  0.00  0.00    -0.258 N 
ATOM     15  C   UNL     1      -0.095  -6.025   2.533  0.00  0.00    +0.058 A 
ATOM     16  C   UNL     1      -0.289  -7.368   2.511  0.00  0.00    +0.068 A 
ATOM     17  C   UNL     1       0.706  -7.933   1.699  0.00  0.00    +0.081 A 
ATOM     18  N   UNL     1       1.465  -6.968   1.246  0.00  0.00    -0.174 NA
ATOM     19  C   UNL     1       0.869  -9.400   1.396  0.00  0.00    +0.069 C 
ATOM     20  C   UNL     1      -0.929  -5.017   3.281  0.00  0.00    +0.067 C 
BRANCH  16  21
ATOM     21  N   UNL     1      -1.308  -8.070   3.182  0.00  0.00    -0.355 N 
ATOM     22  H   UNL     1      -1.953  -7.588   3.723  0.00  0.00    +0.142 HD
ATOM     23  H   UNL     1      -1.365  -9.035   3.105  0.00  0.00    +0.142 HD
ENDBRANCH  16  21
ENDBRANCH  13  14
ENDBRANCH   2  13
TORSDOF 5
