REMARK  Name = ZINC07483435
REMARK  6 active torsions:
REMARK  status: ('A' for Active; 'I' for Inactive)
REMARK    1  A    between atoms: C_6  and  C_7
REMARK    2  A    between atoms: C_7  and  S_8
REMARK    3  A    between atoms: S_8  and  C_9
REMARK    4  A    between atoms: C_9  and  C_10
REMARK    5  A    between atoms: N_12  and  C_13
REMARK    6  A    between atoms: C_14  and  C_22
REMARK                            x       y       z     vdW  Elec       q    Type
REMARK                         _______ _______ _______ _____ _____    ______ ____
ROOT
ATOM      1  C   UNL     1       1.141   2.072   0.002  0.00  0.00    +0.227 C 
ATOM      2  O   UNL     1       2.200   1.480  -0.011  0.00  0.00    -0.275 OA
ATOM      3  N   UNL     1      -0.017   1.382   0.010  0.00  0.00    -0.279 N 
ATOM      4  H   UNL     1      -0.863   1.856   0.016  0.00  0.00    +0.155 HD
ENDROOT
BRANCH   3   5
ATOM      5  C   UNL     1       0.002  -0.004   0.002  0.00  0.00    +0.084 A 
ATOM      6  C   UNL     1      -1.073  -0.881   0.013  0.00  0.00    +0.068 A 
ATOM      7  C   UNL     1      -0.780  -2.304  -0.003  0.00  0.00    -0.023 A 
ATOM      8  C   UNL     1       0.533  -2.620  -0.016  0.00  0.00    -0.004 A 
ATOM      9  S   UNL     1       1.374  -1.062  -0.016  0.00  0.00    -0.077 S 
ATOM     10  C   UNL     1       1.132  -3.993  -0.028  0.00  0.00    +0.043 C 
ATOM     11  C   UNL     1       0.038  -5.000   0.356  0.00  0.00    +0.005 C 
ATOM     12  C   UNL     1      -1.218  -4.703  -0.467  0.00  0.00    +0.005 C 
ATOM     13  C   UNL     1      -1.848  -3.390   0.002  0.00  0.00    +0.037 C 
BRANCH   6  14
ATOM     14  C   UNL     1      -2.455  -0.390   0.036  0.00  0.00    +0.244 C 
ATOM     15  O   UNL     1      -3.044  -0.181  -1.008  0.00  0.00    -0.270 OA
ATOM     16  N   UNL     1      -3.072  -0.170   1.214  0.00  0.00    -0.325 N 
ATOM     17  H   UNL     1      -2.603  -0.337   2.046  0.00  0.00    +0.145 HD
ATOM     18  H   UNL     1      -3.986   0.155   1.229  0.00  0.00    +0.145 HD
ENDBRANCH   6  14
ENDBRANCH   3   5
BRANCH   1  19
ATOM     19  C   UNL     1       1.121   3.579   0.011  0.00  0.00    +0.165 C 
BRANCH  19  20
ATOM     20  S   UNL     1       2.823   4.207  -0.002  0.00  0.00    -0.147 S 
BRANCH  20  21
ATOM     21  C   UNL     1       2.625   6.010   0.009  0.00  0.00    +0.104 C 
BRANCH  21  27
ATOM     22  C   UNL     1       4.614   6.963   1.193  0.00  0.00    +0.006 A 
ATOM     23  C   UNL     1       5.862   7.557   1.185  0.00  0.00    +0.020 A 
ATOM     24  C   UNL     1       6.474   7.864  -0.018  0.00  0.00    +0.041 A 
ATOM     25  C   UNL     1       5.839   7.570  -1.211  0.00  0.00    +0.020 A 
ATOM     26  C   UNL     1       4.594   6.970  -1.202  0.00  0.00    +0.006 A 
ATOM     27  C   UNL     1       3.983   6.664  -0.000  0.00  0.00    -0.037 A 
ATOM     28 CL   UNL     1       8.038   8.617  -0.028  0.00  0.00    -0.084 Cl
ENDBRANCH  21  27
ENDBRANCH  20  21
ENDBRANCH  19  20
ENDBRANCH   1  19
TORSDOF 6
