REMARK  Name = ZINC59166769
REMARK  6 active torsions:
REMARK  status: ('A' for Active; 'I' for Inactive)
REMARK    1  A    between atoms: C_3  and  O_17
REMARK    2  A    between atoms: C_6  and  C_7
REMARK    3  A    between atoms: N_8  and  N_9
REMARK    4  A    between atoms: N_9  and  C_10
REMARK    5  A    between atoms: O_17  and  C_18
REMARK    6  A    between atoms: C_18  and  C_19
REMARK                            x       y       z     vdW  Elec       q    Type
REMARK                         _______ _______ _______ _____ _____    ______ ____
ROOT
ATOM      1  C   UNL     1      -0.017   1.393   0.010  0.00  0.00    +0.013 A 
ATOM      2  C   UNL     1       1.169   2.096   0.002  0.00  0.00    +0.046 A 
ATOM      3  C   UNL     1       2.380   1.418  -0.013  0.00  0.00    +0.121 A 
ATOM      4  C   UNL     1       2.404   0.030  -0.021  0.00  0.00    +0.046 A 
ATOM      5  C   UNL     1       1.224  -0.682  -0.014  0.00  0.00    +0.013 A 
ATOM      6  C   UNL     1       0.002  -0.004   0.002  0.00  0.00    -0.005 A 
ENDROOT
BRANCH   6   7
ATOM      7  C   UNL     1      -1.263  -0.761   0.011  0.00  0.00    +0.138 C 
ATOM      8  N   UNL     1      -1.243  -2.059   0.003  0.00  0.00    -0.190 NA
BRANCH   8   9
ATOM      9  N   UNL     1      -2.446  -2.778   0.011  0.00  0.00    -0.238 N 
ATOM     10  H   UNL     1      -3.293  -2.306   0.022  0.00  0.00    +0.174 HD
BRANCH   9  11
ATOM     11  C   UNL     1      -2.424  -4.173   0.004  0.00  0.00    +0.048 A 
ATOM     12  C   UNL     1      -1.211  -4.851  -0.006  0.00  0.00    +0.026 A 
ATOM     13  C   UNL     1      -1.193  -6.232  -0.014  0.00  0.00    +0.016 A 
ATOM     14  C   UNL     1      -2.382  -6.940  -0.012  0.00  0.00    +0.013 A 
ATOM     15  C   UNL     1      -3.591  -6.269  -0.002  0.00  0.00    +0.016 A 
ATOM     16  C   UNL     1      -3.616  -4.888   0.012  0.00  0.00    +0.026 A 
ATOM     17  I   UNL     1      -2.350  -9.035  -0.023  0.00  0.00    -0.044 I 
ENDBRANCH   9  11
ENDBRANCH   8   9
ENDBRANCH   6   7
BRANCH   3  18
ATOM     18  O   UNL     1       3.546   2.116  -0.022  0.00  0.00    -0.483 OA
BRANCH  18  19
ATOM     19  C   UNL     1       4.757   1.356  -0.038  0.00  0.00    +0.324 C 
BRANCH  19  20
ATOM     20  C   UNL     1       5.938   2.292  -0.045  0.00  0.00    +0.248 C 
ATOM     21  O   UNL     1       5.760   3.492  -0.037  0.00  0.00    -0.272 OA
ATOM     22  N   UNL     1       7.191   1.796  -0.060  0.00  0.00    -0.327 N 
ATOM     23  H   UNL     1       7.332   0.837  -0.067  0.00  0.00    +0.145 HD
ATOM     24  H   UNL     1       7.951   2.399  -0.065  0.00  0.00    +0.145 HD
ENDBRANCH  19  20
ENDBRANCH  18  19
ENDBRANCH   3  18
TORSDOF 6
