REMARK  Name = ZINC06601042
REMARK  14 active torsions:
REMARK  status: ('A' for Active; 'I' for Inactive)
REMARK    1  A    between atoms: C_1  and  C_2
REMARK    2  A    between atoms: C_2  and  O_3
REMARK    3  A    between atoms: O_3  and  C_4
REMARK    4  A    between atoms: C_7  and  N_10
REMARK    5  A    between atoms: N_10  and  C_11
REMARK    6  A    between atoms: C_11  and  C_13
REMARK    7  A    between atoms: C_11  and  C_20
REMARK    8  A    between atoms: N_22  and  C_23
REMARK    9  A    between atoms: C_23  and  C_24
REMARK   10  A    between atoms: C_24  and  O_25
REMARK   11  A    between atoms: O_25  and  C_26
REMARK   12  A    between atoms: C_27  and  C_29
REMARK   13  A    between atoms: C_30  and  N_37
REMARK   14  A    between atoms: C_31  and  C_34
REMARK                            x       y       z     vdW  Elec       q    Type
REMARK                         _______ _______ _______ _____ _____    ______ ____
ROOT
ATOM      1  N   UNL     1      -0.619   3.083   1.182  0.00  0.00    -0.251 N 
ATOM      2  C   UNL     1      -0.126   4.178   0.570  0.00  0.00    +0.262 C 
ATOM      3  O   UNL     1      -0.295   5.278   1.063  0.00  0.00    -0.269 OA
ENDROOT
BRANCH   1   7
ATOM      4  C   UNL     1      -3.041   3.488   4.551  0.00  0.00    +0.121 A 
ATOM      5  C   UNL     1      -2.654   4.612   3.836  0.00  0.00    +0.047 A 
ATOM      6  C   UNL     1      -1.851   4.479   2.720  0.00  0.00    +0.027 A 
ATOM      7  C   UNL     1      -1.432   3.219   2.313  0.00  0.00    +0.038 A 
ATOM      8  C   UNL     1      -1.825   2.094   3.026  0.00  0.00    +0.027 A 
ATOM      9  C   UNL     1      -2.623   2.229   4.145  0.00  0.00    +0.047 A 
BRANCH   4  10
ATOM     10  O   UNL     1      -3.831   3.620   5.649  0.00  0.00    -0.492 OA
BRANCH  10  12
ATOM     11  C   UNL     1      -5.075   2.767   7.537  0.00  0.00    +0.048 C 
ATOM     12  C   UNL     1      -4.191   2.421   6.337  0.00  0.00    +0.225 C 
ENDBRANCH  10  12
ENDBRANCH   4  10
ENDBRANCH   1   7
BRANCH   2  13
ATOM     13  C   UNL     1       0.611   4.045  -0.688  0.00  0.00    +0.116 A 
ATOM     14  C   UNL     1       1.762   4.710  -1.114  0.00  0.00    +0.076 A 
ATOM     15  C   UNL     1       2.172   4.308  -2.385  0.00  0.00    +0.155 A 
ATOM     16  N   UNL     1       1.472   3.401  -3.030  0.00  0.00    -0.203 NA
ATOM     17  S   UNL     1       0.274   2.997  -2.088  0.00  0.00    +0.019 S 
BRANCH  15  18
ATOM     18  C   UNL     1       3.374   4.897  -3.002  0.00  0.00    +0.262 C 
ATOM     19  O   UNL     1       4.017   5.736  -2.400  0.00  0.00    -0.269 OA
ATOM     20  N   UNL     1       3.761   4.507  -4.232  0.00  0.00    -0.324 N 
ATOM     21  H   UNL     1       3.248   3.838  -4.713  0.00  0.00    +0.145 HD
ATOM     22  H   UNL     1       4.552   4.895  -4.638  0.00  0.00    +0.145 HD
ENDBRANCH  15  18
BRANCH  14  23
ATOM     23  N   UNL     1       2.428   5.663  -0.354  0.00  0.00    -0.355 N 
ATOM     24  H   UNL     1       2.096   5.900   0.526  0.00  0.00    +0.142 HD
ATOM     25  H   UNL     1       3.224   6.091  -0.704  0.00  0.00    +0.142 HD
ENDBRANCH  14  23
ENDBRANCH   2  13
BRANCH   1  26
ATOM     26  C   UNL     1      -0.302   1.749   0.663  0.00  0.00    +0.197 C 
BRANCH  26  27
ATOM     27  C   UNL     1      -1.578   1.044   0.280  0.00  0.00    -0.018 A 
ATOM     28  C   UNL     1      -2.796   1.674   0.457  0.00  0.00    +0.009 A 
ATOM     29  C   UNL     1      -3.966   1.026   0.112  0.00  0.00    +0.038 A 
ATOM     30  C   UNL     1      -3.919  -0.255  -0.412  0.00  0.00    +0.123 A 
ATOM     31  C   UNL     1      -2.699  -0.885  -0.589  0.00  0.00    +0.038 A 
ATOM     32  C   UNL     1      -1.530  -0.235  -0.243  0.00  0.00    +0.009 A 
ATOM     33  F   UNL     1      -5.063  -0.889  -0.751  0.00  0.00    -0.205 F 
ENDBRANCH  26  27
BRANCH  26  34
ATOM     34  C   UNL     1       0.412   0.954   1.724  0.00  0.00    +0.239 C 
ATOM     35  O   UNL     1       0.636   1.451   2.808  0.00  0.00    -0.273 OA
ATOM     36  N   UNL     1       0.803  -0.311   1.470  0.00  0.00    -0.311 N 
ATOM     37  H   UNL     1       0.625  -0.709   0.604  0.00  0.00    +0.149 HD
BRANCH  36  38
ATOM     38  C   UNL     1       1.498  -1.084   2.502  0.00  0.00    +0.132 C 
BRANCH  38  39
ATOM     39  C   UNL     1       1.829  -2.476   1.960  0.00  0.00    +0.178 C 
BRANCH  39  40
ATOM     40  O   UNL     1       2.761  -2.360   0.884  0.00  0.00    -0.381 OA
ATOM     41  C   UNL     1       3.137  -3.610   0.303  0.00  0.00    +0.194 C 
ENDBRANCH  39  40
ENDBRANCH  38  39
ENDBRANCH  36  38
ENDBRANCH  26  34
ENDBRANCH   1  26
TORSDOF 12
