REMARK  Name = ZINC21462982
REMARK  16 active torsions:
REMARK  status: ('A' for Active; 'I' for Inactive)
REMARK    1  A    between atoms: C_1  and  C_2
REMARK    2  A    between atoms: C_2  and  C_3
REMARK    3  A    between atoms: C_3  and  C_4
REMARK    4  A    between atoms: C_4  and  N_5
REMARK    5  A    between atoms: N_5  and  C_6
REMARK    6  A    between atoms: C_7  and  N_19
REMARK    7  A    between atoms: N_8  and  C_15
REMARK    8  A    between atoms: C_15  and  C_16
REMARK    9  A    between atoms: C_16  and  C_17
REMARK   10  A    between atoms: C_16  and  C_18
REMARK   11  A    between atoms: C_20  and  C_22
REMARK   12  A    between atoms: C_22  and  S_23
REMARK   13  A    between atoms: S_23  and  C_24
REMARK   14  A    between atoms: N_28  and  C_29
REMARK   15  A    between atoms: C_32  and  C_36
REMARK   16  A    between atoms: C_34  and  C_35
REMARK                            x       y       z     vdW  Elec       q    Type
REMARK                         _______ _______ _______ _____ _____    ______ ____
ROOT
ATOM      1  N   UNL     1       5.780   4.774   0.258  0.00  0.00    -0.264 N 
ATOM      2  C   UNL     1       5.188   3.588   0.007  0.00  0.00    +0.230 C 
ATOM      3  O   UNL     1       5.849   2.654  -0.398  0.00  0.00    -0.274 OA
ENDROOT
BRANCH   1   4
ATOM      4  C   UNL     1       7.180   4.903   0.143  0.00  0.00    +0.140 A 
ATOM      5  C   UNL     1       8.021   4.206   0.986  0.00  0.00    +0.127 A 
ATOM      6  N   UNL     1       9.382   4.352   0.849  0.00  0.00    -0.280 N 
ATOM      7  C   UNL     1       9.887   5.165  -0.096  0.00  0.00    +0.331 A 
ATOM      8  O   UNL     1      11.093   5.281  -0.201  0.00  0.00    -0.246 OA
ATOM      9  N   UNL     1       9.083   5.853  -0.926  0.00  0.00    -0.273 N 
ATOM     10  H   UNL     1       9.518   6.516  -1.689  0.00  0.00    +0.173 HD
ATOM     11  C   UNL     1       7.744   5.740  -0.838  0.00  0.00    +0.277 A 
ATOM     12  O   UNL     1       7.024   6.364  -1.600  0.00  0.00    -0.266 OA
BRANCH   5  13
ATOM     13  N   UNL     1       7.505   3.375   1.952  0.00  0.00    -0.343 N 
ATOM     14  H   UNL     1       8.181   2.822   2.621  0.00  0.00    +0.144 HD
ATOM     15  H   UNL     1       6.415   3.263   2.056  0.00  0.00    +0.144 HD
ENDBRANCH   5  13
BRANCH   6  16
ATOM     16  C   UNL     1      10.286   3.617   1.737  0.00  0.00    +0.131 C 
BRANCH  16  17
ATOM     17  C   UNL     1      10.625   2.262   1.113  0.00  0.00    +0.003 C 
ATOM     18  C   UNL     1      11.665   1.548   1.978  0.00  0.00    +0.009 C 
ATOM     19  C   UNL     1       9.358   1.408   1.028  0.00  0.00    +0.009 C 
ENDBRANCH  16  17
ENDBRANCH   6  16
ENDBRANCH   1   4
BRANCH   1  20
ATOM     20  C   UNL     1       4.968   5.929   0.651  0.00  0.00    +0.114 C 
BRANCH  20  21
ATOM     21  C   UNL     1       4.880   5.995   2.177  0.00  0.00    +0.019 C 
BRANCH  21  23
ATOM     22  C   UNL     1       3.944   7.268   4.112  0.00  0.00    +0.004 C 
ATOM     23  C   UNL     1       4.032   7.201   2.586  0.00  0.00    -0.002 C 
ENDBRANCH  21  23
ENDBRANCH  20  21
ENDBRANCH   1  20
BRANCH   2  24
ATOM     24  C   UNL     1       3.707   3.422   0.231  0.00  0.00    +0.173 C 
BRANCH  24  25
ATOM     25  S   UNL     1       3.219   1.731  -0.192  0.00  0.00    -0.076 S 
BRANCH  25  26
ATOM     26  C   UNL     1       1.493   1.816   0.152  0.00  0.00    +0.196 A 
ATOM     27  N   UNL     1       0.835   2.863   0.592  0.00  0.00    -0.122 NA
ATOM     28  N   UNL     1      -0.409   2.571   0.734  0.00  0.00    -0.137 NA
ATOM     29  C   UNL     1      -0.620   1.331   0.396  0.00  0.00    +0.230 A 
ATOM     30  N   UNL     1       0.585   0.802   0.013  0.00  0.00    -0.277 N 
BRANCH  30  31
ATOM     31  C   UNL     1       0.834  -0.504  -0.431  0.00  0.00    +0.053 A 
ATOM     32  C   UNL     1       0.277  -0.954  -1.620  0.00  0.00    +0.027 A 
ATOM     33  C   UNL     1       0.524  -2.241  -2.055  0.00  0.00    +0.005 A 
ATOM     34  C   UNL     1       1.328  -3.082  -1.307  0.00  0.00    -0.050 A 
ATOM     35  C   UNL     1       1.885  -2.638  -0.122  0.00  0.00    +0.008 A 
ATOM     36  C   UNL     1       1.644  -1.349   0.315  0.00  0.00    -0.026 A 
ATOM     37  C   UNL     1       2.257  -0.864   1.603  0.00  0.00    +0.046 C 
ATOM     38  C   UNL     1       1.597  -4.486  -1.784  0.00  0.00    +0.044 C 
ENDBRANCH  30  31
ENDBRANCH  25  26
ENDBRANCH  24  25
ENDBRANCH   2  24
TORSDOF 11
