REMARK  Name = ZINC02076521
REMARK  11 active torsions:
REMARK  status: ('A' for Active; 'I' for Inactive)
REMARK    1  A    between atoms: C_1  and  C_2
REMARK    2  A    between atoms: C_5  and  N_8
REMARK    3  A    between atoms: C_9  and  C_37
REMARK    4  A    between atoms: C_10  and  C_33
REMARK    5  A    between atoms: C_12  and  C_13
REMARK    6  A    between atoms: C_16  and  C_18
REMARK    7  A    between atoms: C_18  and  N_19
REMARK    8  A    between atoms: C_20  and  C_22
REMARK    9  A    between atoms: N_24  and  C_25
REMARK   10  A    between atoms: C_33  and  O_35
REMARK   11  A    between atoms: O_35  and  C_36
REMARK                            x       y       z     vdW  Elec       q    Type
REMARK                         _______ _______ _______ _____ _____    ______ ____
ROOT
ATOM      1  C   UNL     1       6.581   3.131   0.433  0.00  0.00    +0.129 A 
ATOM      2  C   UNL     1       7.928   2.814   0.452  0.00  0.00    +0.049 A 
ATOM      3  C   UNL     1       8.008   1.417   0.516  0.00  0.00    +0.047 A 
ATOM      4  C   UNL     1       6.740   0.943   0.525  0.00  0.00    +0.123 A 
ATOM      5  O   UNL     1       5.886   1.974   0.475  0.00  0.00    -0.459 OA
ENDROOT
BRANCH   1  10
ATOM      6  N   UNL     1       2.436   4.185   0.353  0.00  0.00    -0.239 N 
ATOM      7  C   UNL     1       2.588   5.537   0.293  0.00  0.00    +0.030 C 
ATOM      8  C   UNL     1       3.905   5.875   0.295  0.00  0.00    +0.088 C 
ATOM      9  C   UNL     1       4.661   4.598   0.355  0.00  0.00    +0.056 C 
ATOM     10  C   UNL     1       6.034   4.428   0.374  0.00  0.00    +0.060 C 
ATOM     11  C   UNL     1       3.626   3.558   0.390  0.00  0.00    +0.256 C 
ATOM     12  O   UNL     1       3.809   2.354   0.441  0.00  0.00    -0.269 OA
ATOM     13  C   UNL     1       1.451   6.524   0.235  0.00  0.00    +0.062 C 
BRANCH   6  18
ATOM     14  C   UNL     1      -2.586   1.542   0.411  0.00  0.00    +0.044 C 
ATOM     15  C   UNL     1      -1.251   2.241   0.397  0.00  0.00    -0.050 A 
ATOM     16  C   UNL     1      -0.393   2.070  -0.674  0.00  0.00    +0.005 A 
ATOM     17  C   UNL     1       0.828   2.714  -0.693  0.00  0.00    +0.024 A 
ATOM     18  C   UNL     1       1.197   3.530   0.369  0.00  0.00    +0.041 A 
ATOM     19  C   UNL     1       0.336   3.696   1.445  0.00  0.00    +0.024 A 
ATOM     20  C   UNL     1      -0.884   3.049   1.458  0.00  0.00    +0.005 A 
ENDBRANCH   6  18
BRANCH   8  21
ATOM     21  C   UNL     1       4.467   7.229   0.244  0.00  0.00    +0.341 C 
ATOM     22  O   UNL     1       3.727   8.193   0.197  0.00  0.00    -0.245 OA
BRANCH  21  23
ATOM     23  O   UNL     1       5.804   7.405   0.248  0.00  0.00    -0.464 OA
ATOM     24  C   UNL     1       6.290   8.773   0.196  0.00  0.00    +0.280 C 
ENDBRANCH  21  23
ENDBRANCH   8  21
ENDBRANCH   1  10
BRANCH   4  25
ATOM     25  C   UNL     1       6.351  -0.512   0.583  0.00  0.00    +0.179 C 
BRANCH  25  26
ATOM     26  N   UNL     1       6.214  -0.925   1.981  0.00  0.00    -0.300 N 
ATOM     27  C   UNL     1       5.870  -2.194   2.278  0.00  0.00    +0.300 C 
ATOM     28  O   UNL     1       5.674  -2.994   1.387  0.00  0.00    -0.265 OA
ATOM     29  H   UNL     1       6.370  -0.286   2.694  0.00  0.00    +0.150 HD
BRANCH  27  30
ATOM     30  C   UNL     1       5.729  -2.616   3.704  0.00  0.00    +0.303 C 
ATOM     31  O   UNL     1       5.925  -1.815   4.596  0.00  0.00    -0.265 OA
ATOM     32  N   UNL     1       5.385  -3.885   4.001  0.00  0.00    -0.278 N 
ATOM     33  H   UNL     1       5.305  -4.543   3.294  0.00  0.00    +0.155 HD
BRANCH  32  34
ATOM     34  C   UNL     1       5.144  -4.251   5.328  0.00  0.00    +0.034 A 
ATOM     35  C   UNL     1       5.487  -5.521   5.773  0.00  0.00    +0.023 A 
ATOM     36  C   UNL     1       5.252  -5.878   7.086  0.00  0.00    +0.002 A 
ATOM     37  C   UNL     1       4.665  -4.976   7.955  0.00  0.00    +0.000 A 
ATOM     38  C   UNL     1       4.317  -3.712   7.514  0.00  0.00    +0.002 A 
ATOM     39  C   UNL     1       4.555  -3.347   6.203  0.00  0.00    +0.023 A 
ENDBRANCH  32  34
ENDBRANCH  27  30
ENDBRANCH  25  26
ENDBRANCH   4  25
TORSDOF 8
