REMARK  Name = ZINC39920667
REMARK  7 active torsions:
REMARK  status: ('A' for Active; 'I' for Inactive)
REMARK    1  A    between atoms: C_1  and  C_2
REMARK    2  A    between atoms: C_5  and  O_8
REMARK    3  A    between atoms: O_8  and  C_9
REMARK    4  A    between atoms: C_9  and  C_11
REMARK    5  A    between atoms: C_9  and  C_12
REMARK    6  A    between atoms: N_14  and  N_15
REMARK    7  A    between atoms: C_16  and  C_28
REMARK                            x       y       z     vdW  Elec       q    Type
REMARK                         _______ _______ _______ _____ _____    ______ ____
ROOT
ATOM      1  N   UNL     1      -1.046  -8.220   2.176  0.00  0.00    -0.188 N 
ATOM      2  C   UNL     1      -2.396  -8.457   2.688  0.00  0.00    +0.247 C 
ATOM      3  N   UNL     1      -2.505  -9.818   3.227  0.00  0.00    -0.318 N 
ATOM      4  C   UNL     1      -1.941 -10.869   2.511  0.00  0.00    +0.041 A 
ATOM      5  C   UNL     1      -2.451 -12.154   2.582  0.00  0.00    +0.025 A 
ATOM      6  C   UNL     1      -1.852 -13.169   1.861  0.00  0.00    +0.017 A 
ATOM      7  C   UNL     1      -0.743 -12.910   1.069  0.00  0.00    +0.019 A 
ATOM      8  C   UNL     1      -0.225 -11.633   0.985  0.00  0.00    +0.030 A 
ATOM      9  C   UNL     1      -0.824 -10.600   1.702  0.00  0.00    +0.060 A 
ATOM     10  C   UNL     1      -0.326  -9.215   1.622  0.00  0.00    +0.267 C 
ATOM     11  O   UNL     1       0.727  -8.973   1.064  0.00  0.00    -0.268 OA
ATOM     12 BR   UNL     1       0.065 -14.316   0.097  0.00  0.00    -0.050 Br
ATOM     13  H   UNL     1      -2.961  -9.981   4.068  0.00  0.00    +0.148 HD
ENDROOT
BRANCH   2  14
ATOM     14  C   UNL     1      -3.391  -8.287   1.569  0.00  0.00    +0.145 A 
ATOM     15  C   UNL     1      -4.571  -8.924   1.462  0.00  0.00    +0.048 A 
ATOM     16  C   UNL     1      -5.176  -8.468   0.268  0.00  0.00    +0.041 A 
ATOM     17  C   UNL     1      -4.330  -7.580  -0.283  0.00  0.00    +0.195 A 
ATOM     18  O   UNL     1      -3.253  -7.470   0.512  0.00  0.00    -0.464 OA
ENDBRANCH   2  14
BRANCH   1  21
ATOM     19  C   UNL     1      -0.410  -6.166   1.155  0.00  0.00    +0.270 C 
ATOM     20  O   UNL     1      -0.811  -6.587   0.090  0.00  0.00    -0.270 OA
ATOM     21  N   UNL     1      -0.495  -6.935   2.259  0.00  0.00    -0.226 N 
ATOM     22  H   UNL     1      -0.175  -6.598   3.110  0.00  0.00    +0.173 HD
BRANCH  19  23
ATOM     23  C   UNL     1       0.182  -4.783   1.244  0.00  0.00    +0.257 C 
ATOM     24  C   UNL     1       1.662  -4.886   1.620  0.00  0.00    +0.062 C 
BRANCH  23  25
ATOM     25  O   UNL     1       0.057  -4.129  -0.021  0.00  0.00    -0.480 OA
BRANCH  25  30
ATOM     26  C   UNL     1      -0.008   1.503   0.009  0.00  0.00    +0.044 C 
ATOM     27  C   UNL     1       0.009  -0.004   0.001  0.00  0.00    -0.050 A 
ATOM     28  C   UNL     1       0.240  -0.698   1.175  0.00  0.00    +0.007 A 
ATOM     29  C   UNL     1       0.257  -2.079   1.170  0.00  0.00    +0.046 A 
ATOM     30  C   UNL     1       0.041  -2.770  -0.013  0.00  0.00    +0.122 A 
ATOM     31  C   UNL     1      -0.192  -2.072  -1.189  0.00  0.00    +0.046 A 
ATOM     32  C   UNL     1      -0.213  -0.690  -1.178  0.00  0.00    +0.007 A 
ENDBRANCH  25  30
ENDBRANCH  23  25
ENDBRANCH  19  23
ENDBRANCH   1  21
TORSDOF 5
