REMARK  Name = ZINC39966993
REMARK  10 active torsions:
REMARK  status: ('A' for Active; 'I' for Inactive)
REMARK    1  A    between atoms: C_1  and  O_2
REMARK    2  A    between atoms: O_2  and  C_3
REMARK    3  A    between atoms: C_6  and  C_9
REMARK    4  A    between atoms: C_9  and  N_10
REMARK    5  A    between atoms: C_11  and  C_13
REMARK    6  A    between atoms: C_13  and  S_14
REMARK    7  A    between atoms: S_14  and  C_15
REMARK    8  A    between atoms: C_18  and  C_27
REMARK    9  A    between atoms: N_19  and  C_20
REMARK   10  A    between atoms: C_20  and  C_21
REMARK                            x       y       z     vdW  Elec       q    Type
REMARK                         _______ _______ _______ _____ _____    ______ ____
ROOT
ATOM      1  C   UNL     1      -9.250  -4.639  -4.686  0.00  0.00    +0.192 A 
ATOM      2  N   UNL     1      -8.396  -4.248  -5.603  0.00  0.00    -0.122 NA
ATOM      3  N   UNL     1      -8.749  -4.692  -6.756  0.00  0.00    -0.128 NA
ATOM      4  C   UNL     1      -9.853  -5.394  -6.647  0.00  0.00    +0.166 A 
ATOM      5  N   UNL     1     -10.206  -5.387  -5.317  0.00  0.00    -0.300 N 
ENDROOT
BRANCH   4   6
ATOM      6  C   UNL     1     -10.577  -6.070  -7.745  0.00  0.00    +0.030 A 
ATOM      7  C   UNL     1     -10.973  -7.368  -7.608  0.00  0.00    +0.057 A 
ATOM      8  S   UNL     1     -11.776  -7.673  -9.173  0.00  0.00    -0.101 S 
ATOM      9  C   UNL     1     -11.537  -6.067  -9.889  0.00  0.00    -0.006 A 
ATOM     10  C   UNL     1     -10.867  -5.374  -8.936  0.00  0.00    -0.026 A 
ATOM     11  C   UNL     1     -10.431  -3.926  -9.143  0.00  0.00    +0.036 C 
ATOM     12  C   UNL     1     -11.359  -3.241 -10.140  0.00  0.00    +0.005 C 
ATOM     13  C   UNL     1     -10.843  -3.417 -11.567  0.00  0.00    +0.001 C 
ATOM     14  C   UNL     1     -10.828  -4.896 -11.940  0.00  0.00    +0.005 C 
ATOM     15  C   UNL     1     -11.989  -5.590 -11.231  0.00  0.00    +0.043 C 
ENDBRANCH   4   6
BRANCH   1  16
ATOM     16  S   UNL     1      -9.177  -4.274  -2.964  0.00  0.00    -0.077 S 
BRANCH  16  17
ATOM     17  C   UNL     1      -7.685  -3.255  -2.795  0.00  0.00    +0.173 C 
BRANCH  17  19
ATOM     18  N   UNL     1      -6.453  -2.107  -0.984  0.00  0.00    -0.311 N 
ATOM     19  C   UNL     1      -7.502  -2.869  -1.350  0.00  0.00    +0.224 C 
ATOM     20  O   UNL     1      -8.300  -3.244  -0.516  0.00  0.00    -0.275 OA
ATOM     21  H   UNL     1      -5.815  -1.807  -1.651  0.00  0.00    +0.149 HD
BRANCH  18  22
ATOM     22  C   UNL     1      -6.275  -1.731   0.421  0.00  0.00    +0.139 C 
BRANCH  22  26
ATOM     23  C   UNL     1      -2.761   0.669   0.820  0.00  0.00    +0.120 A 
ATOM     24  C   UNL     1      -3.988   1.268   0.574  0.00  0.00    +0.046 A 
ATOM     25  C   UNL     1      -5.122   0.490   0.445  0.00  0.00    +0.009 A 
ATOM     26  C   UNL     1      -5.036  -0.885   0.561  0.00  0.00    -0.030 A 
ATOM     27  C   UNL     1      -3.815  -1.485   0.808  0.00  0.00    +0.009 A 
ATOM     28  C   UNL     1      -2.676  -0.712   0.931  0.00  0.00    +0.046 A 
BRANCH  23  30
ATOM     29  C   UNL     1      -1.806   2.846   0.821  0.00  0.00    +0.277 C 
ATOM     30  O   UNL     1      -1.644   1.432   0.947  0.00  0.00    -0.495 OA
ENDBRANCH  23  30
ENDBRANCH  22  26
ENDBRANCH  18  22
ENDBRANCH  17  19
ENDBRANCH  16  17
ENDBRANCH   1  16
BRANCH   5  31
ATOM     31  C   UNL     1     -11.365  -6.042  -4.705  0.00  0.00    +0.157 C 
BRANCH  31  32
ATOM     32  C   UNL     1     -12.515  -5.040  -4.591  0.00  0.00    +0.138 C 
ATOM     33  C   UNL     1     -13.699  -5.686  -3.838  0.00  0.00    +0.035 C 
ATOM     34  C   UNL     1     -14.924  -5.142  -4.622  0.00  0.00    +0.031 C 
ATOM     35  C   UNL     1     -14.349  -5.078  -6.060  0.00  0.00    +0.160 C 
ATOM     36  O   UNL     1     -12.976  -4.679  -5.898  0.00  0.00    -0.375 OA
ENDBRANCH  31  32
ENDBRANCH   5  31
TORSDOF 9
