REMARK  Name = ZINC02682864
REMARK  11 active torsions:
REMARK  status: ('A' for Active; 'I' for Inactive)
REMARK    1  A    between atoms: C_1  and  C_2
REMARK    2  A    between atoms: C_2  and  C_3
REMARK    3  A    between atoms: C_3  and  C_4
REMARK    4  A    between atoms: N_6  and  C_7
REMARK    5  A    between atoms: C_7  and  C_9
REMARK    6  A    between atoms: C_7  and  N_13
REMARK    7  A    between atoms: N_13  and  C_14
REMARK    8  A    between atoms: C_14  and  N_16
REMARK    9  A    between atoms: N_16  and  C_17
REMARK   10  A    between atoms: C_20  and  C_24
REMARK   11  A    between atoms: C_22  and  C_23
REMARK                            x       y       z     vdW  Elec       q    Type
REMARK                         _______ _______ _______ _____ _____    ______ ____
ROOT
ATOM      1  N   UNL     1      -1.660   0.395   3.956  0.00  0.00    -0.305 N 
ATOM      2  H   UNL     1      -1.193  -0.093   4.652  0.00  0.00    +0.150 HD
ENDROOT
BRANCH   1   3
ATOM      3  C   UNL     1      -3.001   0.302   3.852  0.00  0.00    +0.136 C 
ATOM      4  S   UNL     1      -3.826   1.164   2.625  0.00  0.00    -0.019 S 
BRANCH   3   5
ATOM      5  N   UNL     1      -3.692  -0.469   4.715  0.00  0.00    -0.297 N 
ATOM      6  H   UNL     1      -3.219  -1.019   5.359  0.00  0.00    +0.154 HD
BRANCH   5   7
ATOM      7  C   UNL     1      -5.090  -0.477   4.680  0.00  0.00    +0.036 A 
ATOM      8  C   UNL     1      -5.790   0.717   4.569  0.00  0.00    +0.024 A 
ATOM      9  C   UNL     1      -7.171   0.706   4.535  0.00  0.00    +0.005 A 
ATOM     10  C   UNL     1      -7.856  -0.493   4.612  0.00  0.00    -0.050 A 
ATOM     11  C   UNL     1      -7.162  -1.684   4.722  0.00  0.00    +0.008 A 
ATOM     12  C   UNL     1      -5.781  -1.680   4.752  0.00  0.00    -0.029 A 
ATOM     13  C   UNL     1      -5.026  -2.978   4.866  0.00  0.00    +0.045 C 
ATOM     14  C   UNL     1      -9.363  -0.501   4.574  0.00  0.00    +0.044 C 
ENDBRANCH   5   7
ENDBRANCH   3   5
ENDBRANCH   1   3
BRANCH   1  15
ATOM     15  C   UNL     1      -0.909   1.234   3.019  0.00  0.00    +0.211 C 
BRANCH  15  18
ATOM     16  C   UNL     1      -0.685   0.281   0.787  0.00  0.00    +0.214 C 
ATOM     17  O   UNL     1      -1.677   0.896   0.457  0.00  0.00    -0.276 OA
ATOM     18  N   UNL     1      -0.218   0.382   2.048  0.00  0.00    -0.294 N 
ATOM     19  H   UNL     1       0.576  -0.109   2.312  0.00  0.00    +0.151 HD
BRANCH  16  20
ATOM     20  C   UNL     1       0.026  -0.595  -0.211  0.00  0.00    +0.095 C 
BRANCH  20  22
ATOM     21  C   UNL     1       0.019  -1.421  -2.569  0.00  0.00    +0.004 C 
ATOM     22  C   UNL     1      -0.703  -0.532  -1.555  0.00  0.00    +0.006 C 
ENDBRANCH  20  22
ENDBRANCH  16  20
ENDBRANCH  15  18
BRANCH  15  23
ATOM     23  C   UNL     1       0.118   2.066   3.789  0.00  0.00    +0.225 C 
ATOM     24 CL   UNL     1       1.042   3.098   2.636  0.00  0.00    -0.080 Cl
ATOM     25 CL   UNL     1      -0.733   3.114   4.985  0.00  0.00    -0.080 Cl
ATOM     26 CL   UNL     1       1.254   0.967   4.656  0.00  0.00    -0.080 Cl
ENDBRANCH  15  23
ENDBRANCH   1  15
TORSDOF 8
