REMARK  Name = ZINC04123742
REMARK  5 active torsions:
REMARK  status: ('A' for Active; 'I' for Inactive)
REMARK    1  A    between atoms: C_1  and  C_2
REMARK    2  A    between atoms: C_2  and  N_3
REMARK    3  A    between atoms: C_15  and  C_21
REMARK    4  A    between atoms: C_17  and  O_19
REMARK    5  A    between atoms: O_19  and  C_20
REMARK                            x       y       z     vdW  Elec       q    Type
REMARK                         _______ _______ _______ _____ _____    ______ ____
ROOT
ATOM      1  N   UNL     1      -1.372  -0.511   0.012  0.00  0.00    -0.321 N 
ATOM      2  C   UNL     1      -2.082  -0.777   1.210  0.00  0.00    +0.051 A 
ATOM      3  C   UNL     1      -1.647  -0.217   2.399  0.00  0.00    +0.025 A 
ATOM      4  C   UNL     1      -2.348  -0.455   3.569  0.00  0.00    +0.002 A 
ATOM      5  C   UNL     1      -3.480  -1.247   3.554  0.00  0.00    +0.002 A 
ATOM      6  C   UNL     1      -3.917  -1.817   2.372  0.00  0.00    +0.025 A 
ATOM      7  C   UNL     1      -3.216  -1.592   1.200  0.00  0.00    +0.050 A 
ATOM      8  N   UNL     1      -3.637  -2.219  -0.001  0.00  0.00    -0.320 N 
ATOM      9  C   UNL     1      -2.632  -2.251  -1.042  0.00  0.00    +0.214 C 
ATOM     10  C   UNL     1      -2.124  -0.778  -1.208  0.00  0.00    +0.132 C 
ATOM     11  C   UNL     1      -1.308  -1.002  -2.490  0.00  0.00    +0.128 C 
ATOM     12  C   UNL     1      -2.213  -1.979  -3.243  0.00  0.00    +0.196 C 
ATOM     13  N   UNL     1      -2.955  -2.635  -2.394  0.00  0.00    -0.230 NA
ATOM     14  H   UNL     1      -4.524  -2.595  -0.115  0.00  0.00    +0.148 HD
ENDROOT
BRANCH  11  15
ATOM     15  C   UNL     1      -1.138   0.284  -3.258  0.00  0.00    -0.034 A 
ATOM     16  C   UNL     1      -2.249   0.971  -3.710  0.00  0.00    +0.004 A 
ATOM     17  C   UNL     1      -2.094   2.150  -4.414  0.00  0.00    +0.000 A 
ATOM     18  C   UNL     1      -0.827   2.643  -4.666  0.00  0.00    +0.000 A 
ATOM     19  C   UNL     1       0.284   1.956  -4.213  0.00  0.00    +0.000 A 
ATOM     20  C   UNL     1       0.129   0.779  -3.505  0.00  0.00    +0.004 A 
ENDBRANCH  11  15
BRANCH   1  22
ATOM     21  C   UNL     1      -0.019   1.526   0.010  0.00  0.00    +0.024 C 
ATOM     22  C   UNL     1       0.002  -0.004   0.002  0.00  0.00    +0.102 C 
ENDBRANCH   1  22
BRANCH  12  23
ATOM     23  O   UNL     1      -2.240  -2.135  -4.583  0.00  0.00    -0.482 OA
ATOM     24  C   UNL     1      -3.155  -3.100  -5.106  0.00  0.00    +0.278 C 
ENDBRANCH  12  23
TORSDOF 3
