REMARK  Name = ZINC49887525
REMARK  9 active torsions:
REMARK  status: ('A' for Active; 'I' for Inactive)
REMARK    1  A    between atoms: C_1  and  C_2
REMARK    2  A    between atoms: C_5  and  C_9
REMARK    3  A    between atoms: C_6  and  C_8
REMARK    4  A    between atoms: C_9  and  C_10
REMARK    5  A    between atoms: C_12  and  C_15
REMARK    6  A    between atoms: C_15  and  C_16
REMARK    7  A    between atoms: C_16  and  C_17
REMARK    8  A    between atoms: C_17  and  O_19
REMARK    9  A    between atoms: O_19  and  C_20
REMARK                            x       y       z     vdW  Elec       q    Type
REMARK                         _______ _______ _______ _____ _____    ______ ____
ROOT
ATOM      1  C   UNL     1      -1.349  -4.797   0.107  0.00  0.00    +0.083 A 
ATOM      2  N   UNL     1      -2.202  -5.079  -0.845  0.00  0.00    -0.249 NA
ATOM      3  C   UNL     1      -3.410  -5.531  -0.572  0.00  0.00    +0.049 A 
ATOM      4  C   UNL     1      -3.725  -5.690   0.739  0.00  0.00    +0.070 A 
ATOM      5  S   UNL     1      -2.203  -5.164   1.510  0.00  0.00    -0.080 S 
ENDROOT
BRANCH   1   6
ATOM      6  C   UNL     1       0.059  -4.275  -0.021  0.00  0.00    +0.098 C 
BRANCH   6  11
ATOM      7  C   UNL     1      -0.018   1.503   0.010  0.00  0.00    +0.044 C 
ATOM      8  C   UNL     1       0.002  -0.004   0.002  0.00  0.00    -0.050 A 
ATOM      9  C   UNL     1       0.006  -0.689  -1.199  0.00  0.00    +0.003 A 
ATOM     10  C   UNL     1       0.025  -2.071  -1.207  0.00  0.00    +0.004 A 
ATOM     11  C   UNL     1       0.040  -2.768  -0.013  0.00  0.00    -0.038 A 
ATOM     12  C   UNL     1       0.037  -2.084   1.188  0.00  0.00    -0.047 A 
ATOM     13  C   UNL     1       0.023  -0.702   1.195  0.00  0.00    +0.007 A 
ATOM     14  C   UNL     1       0.054  -2.845   2.489  0.00  0.00    +0.044 C 
ENDBRANCH   6  11
ENDBRANCH   1   6
BRANCH   3  15
ATOM     15  C   UNL     1      -4.395  -5.856  -1.665  0.00  0.00    +0.067 C 
BRANCH  15  16
ATOM     16  C   UNL     1      -4.577  -4.634  -2.567  0.00  0.00    +0.127 C 
BRANCH  16  17
ATOM     17  C   UNL     1      -5.563  -4.960  -3.660  0.00  0.00    +0.307 C 
ATOM     18  O   UNL     1      -6.067  -6.056  -3.712  0.00  0.00    -0.251 OA
BRANCH  17  19
ATOM     19  O   UNL     1      -5.880  -4.031  -4.576  0.00  0.00    -0.468 OA
ATOM     20  C   UNL     1      -6.821  -4.408  -5.584  0.00  0.00    +0.280 C 
ENDBRANCH  17  19
ENDBRANCH  16  17
ENDBRANCH  15  16
ENDBRANCH   3  15
TORSDOF 6
