REMARK  Name = ZINC01736786
REMARK  7 active torsions:
REMARK  status: ('A' for Active; 'I' for Inactive)
REMARK    1  A    between atoms: C_1  and  C_2
REMARK    2  A    between atoms: C_4  and  C_15
REMARK    3  A    between atoms: C_6  and  N_8
REMARK    4  A    between atoms: N_8  and  C_9
REMARK    5  A    between atoms: C_17  and  C_21
REMARK    6  A    between atoms: C_24  and  O_27
REMARK    7  A    between atoms: O_27  and  C_28
REMARK                            x       y       z     vdW  Elec       q    Type
REMARK                         _______ _______ _______ _____ _____    ______ ____
ROOT
ATOM      1  C   UNL     1       3.171  -0.785   7.430  0.00  0.00    +0.019 A 
ATOM      2  C   UNL     1       2.664  -0.439   6.176  0.00  0.00    +0.021 A 
ATOM      3  C   UNL     1       1.515   0.350   6.124  0.00  0.00    +0.001 A 
ATOM      4  C   UNL     1       0.924   0.765   7.317  0.00  0.00    +0.119 A 
ATOM      5  N   UNL     1       1.431   0.411   8.481  0.00  0.00    -0.262 NA
ATOM      6  C   UNL     1       2.515  -0.333   8.573  0.00  0.00    +0.120 A 
ENDROOT
BRANCH   1  10
ATOM      7  C   UNL     1       6.776  -3.268   5.279  0.00  0.00    +0.088 C 
ATOM      8  C   UNL     1       6.101  -2.800   6.542  0.00  0.00    +0.129 A 
ATOM      9  N   UNL     1       5.018  -2.057   6.450  0.00  0.00    -0.232 NA
ATOM     10  C   UNL     1       4.390  -1.623   7.544  0.00  0.00    +0.078 A 
ATOM     11  C   UNL     1       4.899  -1.964   8.794  0.00  0.00    +0.072 A 
ATOM     12  C   UNL     1       6.045  -2.757   8.845  0.00  0.00    +0.123 A 
ATOM     13  N   UNL     1       6.611  -3.148   7.707  0.00  0.00    -0.218 NA
BRANCH  12  14
ATOM     14  N   UNL     1       6.589  -3.128  10.065  0.00  0.00    -0.326 N 
ATOM     15  H   UNL     1       7.495  -3.751  10.096  0.00  0.00    +0.148 HD
BRANCH  14  16
ATOM     16  C   UNL     1       5.957  -2.692  11.312  0.00  0.00    +0.072 C 
ATOM     17  C   UNL     1       6.463  -1.295  11.678  0.00  0.00    +0.022 C 
ATOM     18  C   UNL     1       5.803  -0.839  12.981  0.00  0.00    +0.002 C 
ATOM     19  C   UNL     1       6.155  -1.819  14.102  0.00  0.00    +0.000 C 
ATOM     20  C   UNL     1       5.650  -3.216  13.736  0.00  0.00    +0.002 C 
ATOM     21  C   UNL     1       6.309  -3.672  12.433  0.00  0.00    +0.022 C 
ENDBRANCH  14  16
ENDBRANCH  12  14
ENDBRANCH   1  10
BRANCH   3  22
ATOM     22  C   UNL     1       0.933   0.749   4.819  0.00  0.00    -0.016 A 
ATOM     23  C   UNL     1      -0.215   1.537   4.777  0.00  0.00    +0.012 A 
ATOM     24  C   UNL     1      -0.754   1.905   3.562  0.00  0.00    +0.046 A 
ATOM     25  C   UNL     1      -0.153   1.491   2.381  0.00  0.00    +0.130 A 
ATOM     26  C   UNL     1       0.988   0.701   2.419  0.00  0.00    +0.046 A 
ATOM     27  C   UNL     1       1.534   0.334   3.631  0.00  0.00    +0.012 A 
BRANCH  25  28
ATOM     28  O   UNL     1      -0.686   1.856   1.185  0.00  0.00    -0.406 OA
BRANCH  28  29
ATOM     29  C   UNL     1      -0.017   1.395   0.010  0.00  0.00    +0.575 C 
ATOM     30  F   UNL     1       0.002  -0.004   0.002  0.00  0.00    -0.133 F 
ATOM     31  F   UNL     1       1.296   1.879  -0.000  0.00  0.00    -0.133 F 
ATOM     32  F   UNL     1      -0.694   1.858  -1.124  0.00  0.00    -0.133 F 
ENDBRANCH  28  29
ENDBRANCH  25  28
ENDBRANCH   3  22
TORSDOF 6
