REMARK  Name = ZINC00993755
REMARK  7 active torsions:
REMARK  status: ('A' for Active; 'I' for Inactive)
REMARK    1  A    between atoms: C_1  and  C_2
REMARK    2  A    between atoms: C_14  and  C_16
REMARK    3  A    between atoms: C_19  and  N_22
REMARK    4  A    between atoms: N_22  and  C_23
REMARK    5  A    between atoms: N_22  and  C_24
REMARK    6  A    between atoms: C_28  and  C_30
REMARK    7  A    between atoms: C_28  and  C_31
REMARK                            x       y       z     vdW  Elec       q    Type
REMARK                         _______ _______ _______ _____ _____    ______ ____
ROOT
ATOM      1  C   UNL     1       0.092   3.654  -2.096  0.00  0.00    +0.110 C 
ATOM      2  C   UNL     1       0.704   4.277  -0.868  0.00  0.00    +0.218 C 
ATOM      3  O   UNL     1       0.758   5.485  -0.764  0.00  0.00    -0.276 OA
ATOM      4  N   UNL     1       1.193   3.494   0.114  0.00  0.00    -0.258 N 
ATOM      5  C   UNL     1       1.126   2.106  -0.018  0.00  0.00    +0.058 A 
ATOM      6  C   UNL     1      -0.086   1.435  -0.008  0.00  0.00    +0.025 A 
ATOM      7  C   UNL     1      -0.097   0.052  -0.034  0.00  0.00    +0.002 A 
ATOM      8  C   UNL     1       1.090  -0.657  -0.074  0.00  0.00    +0.002 A 
ATOM      9  C   UNL     1       2.302   0.011  -0.111  0.00  0.00    +0.025 A 
ATOM     10  C   UNL     1       2.314   1.396  -0.096  0.00  0.00    +0.053 A 
ATOM     11  N   UNL     1       3.489   2.130  -0.192  0.00  0.00    -0.316 N 
ATOM     12  C   UNL     1       3.982   2.941   0.779  0.00  0.00    +0.017 C 
ATOM     13  C   UNL     1       3.254   3.840   1.464  0.00  0.00    +0.037 C 
ATOM     14  C   UNL     1       1.778   4.104   1.288  0.00  0.00    +0.146 C 
ATOM     15  C   UNL     1       3.864   4.635   2.463  0.00  0.00    +0.163 C 
ATOM     16  O   UNL     1       3.188   5.455   3.052  0.00  0.00    -0.292 OA
ATOM     17  C   UNL     1       5.314   4.502   2.821  0.00  0.00    +0.086 C 
ATOM     18  C   UNL     1       5.762   3.067   2.522  0.00  0.00    -0.023 C 
ATOM     19  C   UNL     1       5.468   2.784   1.049  0.00  0.00    +0.058 C 
ATOM     20  C   UNL     1       4.984   2.087   3.403  0.00  0.00    +0.011 C 
ATOM     21  C   UNL     1       7.262   2.926   2.787  0.00  0.00    +0.011 C 
ATOM     22  H   UNL     1       3.996   2.058  -1.016  0.00  0.00    +0.152 HD
ENDROOT
BRANCH  14  23
ATOM     23  C   UNL     1       1.053   3.591   2.505  0.00  0.00    -0.022 A 
ATOM     24  C   UNL     1       0.375   4.473   3.327  0.00  0.00    +0.007 A 
ATOM     25  C   UNL     1      -0.296   4.005   4.440  0.00  0.00    +0.023 A 
ATOM     26  C   UNL     1      -0.280   2.649   4.739  0.00  0.00    +0.029 A 
ATOM     27  C   UNL     1       0.407   1.767   3.915  0.00  0.00    +0.023 A 
ATOM     28  C   UNL     1       1.071   2.240   2.800  0.00  0.00    +0.007 A 
BRANCH  26  29
ATOM     29  N   UNL     1      -0.953   2.173   5.867  0.00  0.00    -0.336 N 
ATOM     30  C   UNL     1      -0.935   0.742   6.181  0.00  0.00    +0.129 C 
ATOM     31  C   UNL     1      -1.676   3.105   6.736  0.00  0.00    +0.129 C 
ENDBRANCH  26  29
ENDBRANCH  14  23
TORSDOF 2
