REMARK  Name = ZINC08624997
REMARK  9 active torsions:
REMARK  status: ('A' for Active; 'I' for Inactive)
REMARK    1  A    between atoms: C_1  and  O_2
REMARK    2  A    between atoms: O_2  and  C_3
REMARK    3  A    between atoms: C_6  and  C_9
REMARK    4  A    between atoms: C_9  and  N_10
REMARK    5  A    between atoms: C_11  and  C_15
REMARK    6  A    between atoms: C_15  and  C_17
REMARK    7  A    between atoms: C_15  and  N_60
REMARK    8  A    between atoms: N_24  and  C_27
REMARK    9  A    between atoms: C_30  and  N_33
REMARK                            x       y       z     vdW  Elec       q    Type
REMARK                         _______ _______ _______ _____ _____    ______ ____
ROOT
ATOM      1  C   UNL     1       1.626   7.509  -1.670  0.00  0.00    +0.040 C 
ENDROOT
BRANCH   1   7
ATOM      2  C   UNL     1       3.021   5.559  -1.331  0.00  0.00    -0.058 C 
ATOM      3  C   UNL     1       3.504   4.258  -1.978  0.00  0.00    +0.086 C 
ATOM      4  N   UNL     1       2.350   3.385  -2.236  0.00  0.00    -0.333 N 
ATOM      5  C   UNL     1       1.384   4.044  -3.126  0.00  0.00    +0.086 C 
ATOM      6  C   UNL     1       0.902   5.344  -2.480  0.00  0.00    -0.058 C 
ATOM      7  N   UNL     1       2.069   6.221  -2.246  0.00  0.00    +0.391 N 
ATOM      8  H   UNL     1       2.536   6.400  -3.143  0.00  0.00    -0.080 HD
BRANCH   4   9
ATOM      9  C   UNL     1       2.759   2.157  -2.760  0.00  0.00    +0.030 A 
ATOM     10  C   UNL     1       1.816   1.186  -3.075  0.00  0.00    +0.025 A 
ATOM     11  C   UNL     1       2.224  -0.027  -3.594  0.00  0.00    +0.034 A 
ATOM     12  C   UNL     1       3.569  -0.275  -3.801  0.00  0.00    +0.126 A 
ATOM     13  C   UNL     1       4.509   0.689  -3.489  0.00  0.00    +0.034 A 
ATOM     14  C   UNL     1       4.109   1.904  -2.969  0.00  0.00    +0.025 A 
BRANCH  12  15
ATOM     15  N   UNL     1       4.002  -1.576  -4.358  0.00  0.00    +0.056 N 
ATOM     16  O   UNL     1       3.174  -2.427  -4.633  0.00  0.00    -0.126 OA
ATOM     17  O   UNL     1       5.186  -1.796  -4.542  0.00  0.00    -0.126 OA
ENDBRANCH  12  15
ENDBRANCH   4   9
ENDBRANCH   1   7
BRANCH   1  19
ATOM     18  N   UNL     1      -0.649   8.519  -2.227  0.00  0.00    -0.226 N 
ATOM     19  C   UNL     1       0.589   8.122  -2.576  0.00  0.00    +0.143 A 
ATOM     20  N   UNL     1       0.719   8.377  -3.855  0.00  0.00    -0.115 NA
ATOM     21  N   UNL     1      -0.384   8.896  -4.271  0.00  0.00    -0.023 NA
ATOM     22  N   UNL     1      -1.212   8.986  -3.290  0.00  0.00    -0.044 NA
BRANCH  18  23
ATOM     23  C   UNL     1      -1.245   8.437  -0.891  0.00  0.00    +0.182 C 
BRANCH  23  27
ATOM     24  C   UNL     1      -0.519  12.080   1.220  0.00  0.00    +0.120 A 
ATOM     25  C   UNL     1      -1.596  11.984   0.351  0.00  0.00    +0.046 A 
ATOM     26  C   UNL     1      -1.829  10.805  -0.330  0.00  0.00    +0.009 A 
ATOM     27  C   UNL     1      -0.989   9.722  -0.146  0.00  0.00    -0.026 A 
ATOM     28  C   UNL     1       0.082   9.813   0.723  0.00  0.00    +0.009 A 
ATOM     29  C   UNL     1       0.322  10.992   1.403  0.00  0.00    +0.046 A 
BRANCH  24  31
ATOM     30  C   UNL     1       0.839  13.267   2.769  0.00  0.00    +0.277 C 
ATOM     31  O   UNL     1      -0.288  13.239   1.891  0.00  0.00    -0.495 OA
ENDBRANCH  24  31
ENDBRANCH  23  27
ENDBRANCH  18  23
ENDBRANCH   1  19
BRANCH   1  32
ATOM     32  C   UNL     1       2.812   8.432  -1.568  0.00  0.00    -0.016 A 
ATOM     33  C   UNL     1       3.197   9.217  -0.533  0.00  0.00    +0.010 A 
ATOM     34  C   UNL     1       4.335   9.990  -0.664  0.00  0.00    +0.008 A 
ATOM     35  C   UNL     1       5.033   9.940  -1.825  0.00  0.00    +0.045 A 
ATOM     36  S   UNL     1       4.082   8.769  -2.778  0.00  0.00    -0.103 S 
ENDBRANCH   1  32
TORSDOF 8
