REMARK  Name = ZINC03765983
REMARK  11 active torsions:
REMARK  status: ('A' for Active; 'I' for Inactive)
REMARK    1  A    between atoms: C_1  and  C_2
REMARK    2  A    between atoms: C_5  and  C_8
REMARK    3  A    between atoms: C_8  and  N_9
REMARK    4  A    between atoms: N_9  and  C_10
REMARK    5  A    between atoms: C_10  and  C_12
REMARK    6  A    between atoms: C_10  and  C_15
REMARK    7  A    between atoms: C_12  and  C_13
REMARK    8  A    between atoms: C_12  and  C_14
REMARK    9  A    between atoms: N_17  and  C_18
REMARK   10  A    between atoms: C_27  and  C_29
REMARK   11  A    between atoms: C_29  and  N_30
REMARK                            x       y       z     vdW  Elec       q    Type
REMARK                         _______ _______ _______ _____ _____    ______ ____
ROOT
ATOM      1  N   UNL     1      -2.652   1.934   2.614  0.00  0.00    -0.284 N 
ATOM      2  C   UNL     1      -1.498   2.111   3.286  0.00  0.00    +0.234 C 
ATOM      3  O   UNL     1      -1.441   1.860   4.471  0.00  0.00    -0.274 OA
ENDROOT
BRANCH   1   4
ATOM      4  C   UNL     1      -2.687   2.105   1.159  0.00  0.00    +0.143 C 
BRANCH   4   9
ATOM      5  C   UNL     1      -1.891  -3.014  -1.402  0.00  0.00    +0.044 C 
ATOM      6  C   UNL     1      -2.099  -1.679  -0.734  0.00  0.00    -0.050 A 
ATOM      7  C   UNL     1      -3.377  -1.177  -0.574  0.00  0.00    +0.003 A 
ATOM      8  C   UNL     1      -3.567   0.048   0.038  0.00  0.00    +0.005 A 
ATOM      9  C   UNL     1      -2.479   0.770   0.491  0.00  0.00    -0.030 A 
ATOM     10  C   UNL     1      -1.201   0.271   0.327  0.00  0.00    +0.005 A 
ATOM     11  C   UNL     1      -1.011  -0.956  -0.282  0.00  0.00    +0.003 A 
ENDBRANCH   4   9
ENDBRANCH   1   4
BRANCH   1  12
ATOM     12  C   UNL     1      -3.873   1.571   3.337  0.00  0.00    +0.165 C 
BRANCH  12  13
ATOM     13  C   UNL     1      -4.948   2.588   3.052  0.00  0.00    +0.238 C 
ATOM     14  O   UNL     1      -4.854   3.315   2.086  0.00  0.00    -0.273 OA
ATOM     15  N   UNL     1      -6.014   2.689   3.870  0.00  0.00    -0.284 N 
ATOM     16  H   UNL     1      -6.052   2.164   4.685  0.00  0.00    +0.155 HD
BRANCH  15  17
ATOM     17  C   UNL     1      -7.067   3.554   3.545  0.00  0.00    +0.037 A 
ATOM     18  C   UNL     1      -7.399   3.774   2.215  0.00  0.00    +0.027 A 
ATOM     19  C   UNL     1      -8.440   4.623   1.892  0.00  0.00    +0.051 A 
ATOM     20  C   UNL     1      -9.150   5.265   2.894  0.00  0.00    +0.166 A 
ATOM     21  C   UNL     1      -8.816   5.050   4.229  0.00  0.00    +0.168 A 
ATOM     22  C   UNL     1      -7.775   4.195   4.552  0.00  0.00    +0.072 A 
ATOM     23  O   UNL     1      -9.654   5.789   5.013  0.00  0.00    -0.453 OA
ATOM     24  C   UNL     1     -10.236   6.771   4.135  0.00  0.00    +0.466 C 
ATOM     25  O   UNL     1     -10.198   6.139   2.842  0.00  0.00    -0.453 OA
ENDBRANCH  15  17
ENDBRANCH  12  13
BRANCH  12  26
ATOM     26  C   UNL     1      -4.345   0.189   2.881  0.00  0.00    +0.012 C 
ATOM     27  C   UNL     1      -3.208  -0.821   3.054  0.00  0.00    +0.009 C 
ATOM     28  C   UNL     1      -5.545  -0.245   3.724  0.00  0.00    +0.009 C 
ENDBRANCH  12  26
ENDBRANCH   1  12
BRANCH   2  29
ATOM     29  C   UNL     1      -0.277   2.621   2.565  0.00  0.00    +0.210 C 
BRANCH  29  30
ATOM     30  N   UNL     1       0.799   2.856   3.532  0.00  0.00    -0.255 N 
ATOM     31  C   UNL     1       1.741   1.900   3.904  0.00  0.00    +0.048 A 
ATOM     32  C   UNL     1       1.917   0.581   3.508  0.00  0.00    +0.024 A 
ATOM     33  C   UNL     1       2.952  -0.171   4.031  0.00  0.00    +0.002 A 
ATOM     34  C   UNL     1       3.827   0.377   4.954  0.00  0.00    +0.001 A 
ATOM     35  C   UNL     1       3.671   1.686   5.362  0.00  0.00    +0.014 A 
ATOM     36  C   UNL     1       2.630   2.453   4.841  0.00  0.00    +0.048 A 
ATOM     37  C   UNL     1       2.196   3.846   5.061  0.00  0.00    +0.250 C 
ATOM     38  O   UNL     1       2.698   4.670   5.797  0.00  0.00    -0.282 OA
ATOM     39  C   UNL     1       1.000   4.020   4.173  0.00  0.00    +0.292 C 
ATOM     40  O   UNL     1       0.337   5.029   4.053  0.00  0.00    -0.266 OA
ENDBRANCH  29  30
ENDBRANCH   2  29
TORSDOF 8
