REMARK  Name = ZINC63806799
REMARK  7 active torsions:
REMARK  status: ('A' for Active; 'I' for Inactive)
REMARK    1  A    between atoms: C_1  and  C_2
REMARK    2  A    between atoms: C_5  and  N_8
REMARK    3  A    between atoms: C_9  and  C_31
REMARK    4  A    between atoms: C_11  and  C_17
REMARK    5  A    between atoms: N_19  and  C_20
REMARK    6  A    between atoms: C_20  and  C_21
REMARK    7  A    between atoms: C_21  and  C_22
REMARK                            x       y       z     vdW  Elec       q    Type
REMARK                         _______ _______ _______ _____ _____    ______ ____
ROOT
ATOM      1  N   UNL     1       0.059  -4.170  -0.021  0.00  0.00    -0.263 N 
ATOM      2  C   UNL     1       0.181  -4.858   1.258  0.00  0.00    +0.130 C 
ATOM      3  C   UNL     1       0.651  -6.298   1.048  0.00  0.00    +0.101 C 
ATOM      4  C   UNL     1      -0.244  -6.958  -0.008  0.00  0.00    +0.024 C 
ATOM      5  C   UNL     1       0.018  -6.282  -1.356  0.00  0.00    +0.097 C 
ATOM      6  C   UNL     1      -0.042  -4.790  -1.197  0.00  0.00    +0.220 C 
ATOM      7  O   UNL     1      -0.185  -4.112  -2.193  0.00  0.00    -0.275 OA
ENDROOT
BRANCH   1  12
ATOM      8  C   UNL     1      -0.016   1.503   0.012  0.00  0.00    +0.044 C 
ATOM      9  C   UNL     1       0.004  -0.004   0.003  0.00  0.00    -0.050 A 
ATOM     10  C   UNL     1      -1.027  -0.711   0.595  0.00  0.00    +0.005 A 
ATOM     11  C   UNL     1      -1.012  -2.092   0.588  0.00  0.00    +0.024 A 
ATOM     12  C   UNL     1       0.040  -2.771  -0.013  0.00  0.00    +0.037 A 
ATOM     13  C   UNL     1       1.074  -2.058  -0.607  0.00  0.00    +0.024 A 
ATOM     14  C   UNL     1       1.050  -0.677  -0.601  0.00  0.00    +0.005 A 
ENDBRANCH   1  12
BRANCH   2  15
ATOM     15  C   UNL     1       1.181  -4.133   2.121  0.00  0.00    +0.011 A 
ATOM     16  C   UNL     1       1.137  -3.883   3.452  0.00  0.00    +0.013 A 
ATOM     17  C   UNL     1       2.180  -3.192   4.040  0.00  0.00    +0.008 A 
ATOM     18  C   UNL     1       3.215  -2.783   3.266  0.00  0.00    +0.045 A 
ATOM     19  S   UNL     1       2.734  -3.385   1.656  0.00  0.00    -0.100 S 
ENDBRANCH   2  15
BRANCH   3  20
ATOM     20  C   UNL     1       0.552  -7.057   2.346  0.00  0.00    +0.218 C 
ATOM     21  O   UNL     1       0.145  -6.501   3.344  0.00  0.00    -0.275 OA
ATOM     22  N   UNL     1       0.917  -8.353   2.398  0.00  0.00    -0.315 N 
ATOM     23  H   UNL     1       1.243  -8.798   1.600  0.00  0.00    +0.149 HD
BRANCH  22  24
ATOM     24  C   UNL     1       0.821  -9.091   3.660  0.00  0.00    +0.108 C 
BRANCH  24  25
ATOM     25  C   UNL     1       1.292 -10.531   3.447  0.00  0.00    +0.052 C 
BRANCH  25  26
ATOM     26  C   UNL     1       1.193 -11.290   4.745  0.00  0.00    -0.040 C 
ATOM     27  C   UNL     1       0.169 -12.074   5.152  0.00  0.00    -0.001 A 
ATOM     28  C   UNL     1      -1.111 -12.439   4.534  0.00  0.00    +0.010 A 
ATOM     29  C   UNL     1      -1.951 -13.262   5.201  0.00  0.00    +0.001 A 
ATOM     30  C   UNL     1      -1.631 -13.773   6.467  0.00  0.00    +0.002 A 
ATOM     31  C   UNL     1      -0.475 -13.483   7.099  0.00  0.00    +0.026 A 
ATOM     32  C   UNL     1       0.483 -12.627   6.489  0.00  0.00    +0.043 A 
ATOM     33  N   UNL     1       1.656 -12.202   6.892  0.00  0.00    -0.380 N 
ATOM     34  C   UNL     1       2.222 -11.334   5.853  0.00  0.00    +0.144 C 
ATOM     35  H   UNL     1       2.081 -12.426   7.735  0.00  0.00    +0.160 HD
ENDBRANCH  25  26
ENDBRANCH  24  25
ENDBRANCH  22  24
ENDBRANCH   3  20
TORSDOF 6
