REMARK  Name = ZINC13023067
REMARK  8 active torsions:
REMARK  status: ('A' for Active; 'I' for Inactive)
REMARK    1  A    between atoms: C_1  and  C_2
REMARK    2  A    between atoms: C_6  and  C_15
REMARK    3  A    between atoms: C_13  and  C_14
REMARK    4  A    between atoms: C_15  and  C_17
REMARK    5  A    between atoms: C_15  and  N_66
REMARK    6  A    between atoms: N_21  and  C_22
REMARK    7  A    between atoms: C_22  and  C_23
REMARK    8  A    between atoms: N_30  and  C_33
REMARK                            x       y       z     vdW  Elec       q    Type
REMARK                         _______ _______ _______ _____ _____    ______ ____
ROOT
ATOM      1  C   UNL     1       0.484   5.457  -1.033  0.00  0.00    +0.039 C 
ENDROOT
BRANCH   1   7
ATOM      2  C   UNL     1      -4.595   9.735  -4.428  0.00  0.00    +0.044 C 
ATOM      3  C   UNL     1      -3.492   8.710  -4.483  0.00  0.00    -0.047 A 
ATOM      4  C   UNL     1      -2.893   8.296  -3.327  0.00  0.00    +0.013 A 
ATOM      5  C   UNL     1      -1.869   7.346  -3.378  0.00  0.00    -0.001 A 
ATOM      6  C   UNL     1      -1.206   6.881  -2.158  0.00  0.00    +0.017 A 
ATOM      7  C   UNL     1      -0.219   5.957  -2.269  0.00  0.00    +0.011 A 
ATOM      8  C   UNL     1       0.155   5.466  -3.538  0.00  0.00    +0.251 A 
ATOM      9  O   UNL     1       1.048   4.639  -3.615  0.00  0.00    -0.268 OA
ATOM     10  N   UNL     1      -0.452   5.882  -4.663  0.00  0.00    -0.322 N 
ATOM     11  H   UNL     1      -0.173   5.521  -5.519  0.00  0.00    +0.169 HD
ATOM     12  C   UNL     1      -1.462   6.820  -4.619  0.00  0.00    +0.049 A 
ATOM     13  C   UNL     1      -2.086   7.255  -5.782  0.00  0.00    +0.030 A 
ATOM     14  C   UNL     1      -3.093   8.194  -5.708  0.00  0.00    -0.046 A 
ATOM     15  C   UNL     1      -3.768   8.664  -6.971  0.00  0.00    +0.044 C 
ENDBRANCH   1   7
BRANCH   1  21
ATOM     16  C   UNL     1       0.892   3.495   0.325  0.00  0.00    -0.058 C 
ATOM     17  C   UNL     1       0.753   1.971   0.367  0.00  0.00    +0.086 C 
ATOM     18  N   UNL     1      -0.668   1.609   0.275  0.00  0.00    -0.331 N 
ATOM     19  C   UNL     1      -1.258   2.118  -0.971  0.00  0.00    +0.086 C 
ATOM     20  C   UNL     1      -1.119   3.642  -1.013  0.00  0.00    -0.058 C 
ATOM     21  N   UNL     1       0.316   3.991  -0.941  0.00  0.00    +0.391 N 
ATOM     22  H   UNL     1       0.806   3.549  -1.728  0.00  0.00    -0.080 HD
BRANCH  18  23
ATOM     23  C   UNL     1      -0.841   0.225   0.382  0.00  0.00    +0.065 A 
ATOM     24  C   UNL     1      -0.247  -0.624  -0.542  0.00  0.00    +0.026 A 
ATOM     25  C   UNL     1      -0.416  -1.990  -0.431  0.00  0.00    +0.002 A 
ATOM     26  C   UNL     1      -1.184  -2.514   0.593  0.00  0.00    +0.003 A 
ATOM     27  C   UNL     1      -1.781  -1.672   1.513  0.00  0.00    +0.040 A 
ATOM     28  C   UNL     1      -1.613  -0.303   1.411  0.00  0.00    +0.144 A 
ATOM     29  F   UNL     1      -2.197   0.520   2.310  0.00  0.00    -0.204 F 
ENDBRANCH  18  23
ENDBRANCH   1  21
BRANCH   1  30
ATOM     30  C   UNL     1      -0.097   6.132   0.183  0.00  0.00    +0.143 A 
ATOM     31  N   UNL     1      -1.254   5.875   0.743  0.00  0.00    -0.115 NA
ATOM     32  N   UNL     1      -1.389   6.659   1.756  0.00  0.00    -0.023 NA
ATOM     33  N   UNL     1      -0.348   7.410   1.857  0.00  0.00    -0.044 NA
ATOM     34  N   UNL     1       0.474   7.112   0.908  0.00  0.00    -0.223 N 
BRANCH  34  35
ATOM     35  C   UNL     1       1.781   7.726   0.664  0.00  0.00    +0.221 C 
BRANCH  35  36
ATOM     36  C   UNL     1       1.616   8.911  -0.253  0.00  0.00    +0.126 A 
ATOM     37  C   UNL     1       1.381  10.177   0.134  0.00  0.00    +0.046 A 
ATOM     38  C   UNL     1       1.300  10.956  -1.043  0.00  0.00    +0.041 A 
ATOM     39  C   UNL     1       1.482  10.117  -2.079  0.00  0.00    +0.195 A 
ATOM     40  O   UNL     1       1.673   8.880  -1.594  0.00  0.00    -0.466 OA
ENDBRANCH  35  36
ENDBRANCH  34  35
ENDBRANCH   1  30
TORSDOF 6
