REMARK  Name = ZINC40177784
REMARK  7 active torsions:
REMARK  status: ('A' for Active; 'I' for Inactive)
REMARK    1  A    between atoms: C_1  and  C_2
REMARK    2  A    between atoms: C_5  and  C_8
REMARK    3  A    between atoms: C_10  and  S_21
REMARK    4  A    between atoms: C_11  and  N_13
REMARK    5  A    between atoms: N_13  and  C_14
REMARK    6  A    between atoms: C_14  and  C_15
REMARK    7  A    between atoms: S_21  and  C_24
REMARK                            x       y       z     vdW  Elec       q    Type
REMARK                         _______ _______ _______ _____ _____    ______ ____
ROOT
ATOM      1  C   UNL     1       0.061  -4.250  -0.021  0.00  0.00    +0.231 A 
ATOM      2  N   UNL     1       0.071  -5.020   1.040  0.00  0.00    -0.188 NA
ATOM      3  C   UNL     1       0.088  -6.301   0.643  0.00  0.00    +0.243 A 
ATOM      4  C   UNL     1       0.087  -6.314  -0.712  0.00  0.00    +0.233 A 
ATOM      5  O   UNL     1       0.065  -5.029  -1.121  0.00  0.00    -0.420 OA
ENDROOT
BRANCH   1  10
ATOM      6  C   UNL     1      -0.018   1.503   0.010  0.00  0.00    +0.044 C 
ATOM      7  C   UNL     1       0.002  -0.004   0.002  0.00  0.00    -0.050 A 
ATOM      8  C   UNL     1       0.006  -0.686  -1.202  0.00  0.00    +0.004 A 
ATOM      9  C   UNL     1       0.025  -2.065  -1.217  0.00  0.00    +0.013 A 
ATOM     10  C   UNL     1       0.041  -2.773  -0.013  0.00  0.00    +0.037 A 
ATOM     11  C   UNL     1       0.037  -2.079   1.198  0.00  0.00    +0.013 A 
ATOM     12  C   UNL     1       0.023  -0.699   1.198  0.00  0.00    +0.004 A 
ENDBRANCH   1  10
BRANCH   3  13
ATOM     13  S   UNL     1       0.107  -7.715   1.695  0.00  0.00    +0.047 S 
ATOM     14  O   UNL     1       0.672  -8.776   0.939  0.00  0.00    -0.163 OA
ATOM     15  O   UNL     1       0.653  -7.290   2.937  0.00  0.00    -0.163 OA
BRANCH  13  16
ATOM     16  C   UNL     1      -1.570  -8.155   2.007  0.00  0.00    +0.099 A 
ATOM     17  C   UNL     1      -2.238  -7.608   3.087  0.00  0.00    +0.031 A 
ATOM     18  C   UNL     1      -3.553  -7.952   3.336  0.00  0.00    +0.051 A 
ATOM     19  C   UNL     1      -4.207  -8.847   2.501  0.00  0.00    +0.162 A 
ATOM     20  C   UNL     1      -3.537  -9.394   1.414  0.00  0.00    +0.164 A 
ATOM     21  C   UNL     1      -2.218  -9.042   1.169  0.00  0.00    +0.076 A 
ATOM     22  O   UNL     1      -4.162 -10.268   0.579  0.00  0.00    -0.485 OA
ATOM     23  C   UNL     1      -5.362 -10.877   1.065  0.00  0.00    +0.270 C 
ATOM     24  C   UNL     1      -6.237  -9.783   1.692  0.00  0.00    +0.270 C 
ATOM     25  O   UNL     1      -5.501  -9.178   2.761  0.00  0.00    -0.485 OA
ENDBRANCH  13  16
ENDBRANCH   3  13
BRANCH   4  26
ATOM     26  N   UNL     1       0.102  -7.440  -1.528  0.00  0.00    -0.310 N 
ATOM     27  H   UNL     1       0.113  -8.325  -1.132  0.00  0.00    +0.149 HD
BRANCH  26  28
ATOM     28  C   UNL     1       0.099  -7.289  -2.985  0.00  0.00    +0.136 C 
BRANCH  28  29
ATOM     29  C   UNL     1       0.117  -8.671  -3.641  0.00  0.00    +0.135 C 
ATOM     30  C   UNL     1       0.236  -8.522  -5.173  0.00  0.00    +0.035 C 
ATOM     31  C   UNL     1      -0.712  -9.640  -5.687  0.00  0.00    +0.031 C 
ATOM     32  C   UNL     1      -1.810  -9.621  -4.594  0.00  0.00    +0.160 C 
ATOM     33  O   UNL     1      -1.111  -9.355  -3.365  0.00  0.00    -0.375 OA
ENDBRANCH  28  29
ENDBRANCH  26  28
ENDBRANCH   4  26
TORSDOF 6
