REMARK  Name = ZINC60248380
REMARK  9 active torsions:
REMARK  status: ('A' for Active; 'I' for Inactive)
REMARK    1  A    between atoms: C_1  and  C_2
REMARK    2  A    between atoms: C_4  and  C_23
REMARK    3  A    between atoms: C_7  and  N_8
REMARK    4  A    between atoms: C_9  and  C_11
REMARK    5  A    between atoms: C_16  and  N_17
REMARK    6  A    between atoms: N_25  and  C_26
REMARK    7  A    between atoms: C_26  and  C_27
REMARK    8  A    between atoms: C_27  and  C_28
REMARK    9  A    between atoms: C_27  and  C_29
REMARK                            x       y       z     vdW  Elec       q    Type
REMARK                         _______ _______ _______ _____ _____    ______ ____
ROOT
ATOM      1  N   UNL     1       0.045  -0.077   2.437  0.00  0.00    -0.281 N 
ATOM      2  C   UNL     1      -0.630  -0.553   3.502  0.00  0.00    +0.250 C 
ATOM      3  O   UNL     1      -1.163  -1.645   3.446  0.00  0.00    -0.270 OA
ATOM      4  H   UNL     1       0.521   0.765   2.502  0.00  0.00    +0.155 HD
ENDROOT
BRANCH   1  11
ATOM      5  C   UNL     1       0.058   1.387   0.003  0.00  0.00    +0.045 C 
ATOM      6  C   UNL     1       0.065  -0.120   0.027  0.00  0.00    -0.029 A 
ATOM      7  C   UNL     1       0.084  -0.827  -1.155  0.00  0.00    +0.018 A 
ATOM      8  C   UNL     1       0.091  -2.224  -1.131  0.00  0.00    +0.037 A 
ATOM      9  C   UNL     1       0.079  -2.899   0.092  0.00  0.00    +0.015 A 
ATOM     10  C   UNL     1       0.060  -2.187   1.270  0.00  0.00    +0.024 A 
ATOM     11  C   UNL     1       0.058  -0.795   1.243  0.00  0.00    +0.037 A 
BRANCH   8  12
ATOM     12  C   UNL     1       0.110  -2.985  -2.396  0.00  0.00    +0.244 C 
ATOM     13  O   UNL     1       0.120  -2.396  -3.459  0.00  0.00    -0.270 OA
ATOM     14  N   UNL     1       0.117  -4.332  -2.372  0.00  0.00    -0.311 N 
ATOM     15  H   UNL     1       0.109  -4.802  -1.523  0.00  0.00    +0.149 HD
BRANCH  14  16
ATOM     16  C   UNL     1       0.137  -5.087  -3.627  0.00  0.00    +0.107 C 
BRANCH  16  17
ATOM     17  C   UNL     1       0.141  -6.586  -3.320  0.00  0.00    -0.000 C 
ATOM     18  C   UNL     1       0.035  -7.374  -4.627  0.00  0.00    +0.009 C 
ATOM     19  C   UNL     1       1.442  -6.957  -2.605  0.00  0.00    +0.009 C 
ENDBRANCH  16  17
ENDBRANCH  14  16
ENDBRANCH   8  12
ENDBRANCH   1  11
BRANCH   2  20
ATOM     20  C   UNL     1      -0.723   0.251   4.737  0.00  0.00    +0.064 A 
ATOM     21  C   UNL     1       0.436   0.720   5.358  0.00  0.00    +0.035 A 
ATOM     22  C   UNL     1       0.343   1.471   6.511  0.00  0.00    +0.042 A 
ATOM     23  C   UNL     1      -0.898   1.763   7.056  0.00  0.00    +0.022 A 
ATOM     24  C   UNL     1      -2.052   1.305   6.451  0.00  0.00    +0.030 A 
ATOM     25  C   UNL     1      -1.976   0.553   5.288  0.00  0.00    +0.081 A 
ATOM     26 CL   UNL     1       1.784   2.054   7.283  0.00  0.00    -0.084 Cl
BRANCH  25  27
ATOM     27  N   UNL     1      -3.144   0.093   4.672  0.00  0.00    -0.200 N 
ATOM     28  C   UNL     1      -4.411   0.203   5.129  0.00  0.00    +0.250 A 
ATOM     29  N   UNL     1      -5.193  -0.358   4.244  0.00  0.00    -0.116 NA
ATOM     30  N   UNL     1      -4.507  -0.816   3.260  0.00  0.00    -0.023 NA
ATOM     31  N   UNL     1      -3.253  -0.577   3.441  0.00  0.00    -0.039 NA
ENDBRANCH  25  27
ENDBRANCH   2  20
TORSDOF 6
