REMARK  Name = ZINC36581866
REMARK  18 active torsions:
REMARK  status: ('A' for Active; 'I' for Inactive)
REMARK    1  A    between atoms: C_1  and  C_2
REMARK    2  A    between atoms: C_2  and  C_3
REMARK    3  A    between atoms: C_3  and  C_4
REMARK    4  A    between atoms: C_4  and  C_5
REMARK    5  A    between atoms: C_5  and  C_6
REMARK    6  A    between atoms: C_7  and  C_8
REMARK    7  A    between atoms: N_10  and  C_11
REMARK    8  A    between atoms: N_10  and  C_34
REMARK    9  A    between atoms: C_11  and  C_13
REMARK   10  A    between atoms: C_11  and  C_20
REMARK   11  A    between atoms: C_17  and  O_19
REMARK   12  A    between atoms: N_22  and  C_23
REMARK   13  A    between atoms: C_23  and  S_24
REMARK   14  A    between atoms: S_24  and  C_27
REMARK   15  A    between atoms: C_30  and  C_33
REMARK   16  A    between atoms: C_34  and  C_35
REMARK   17  A    between atoms: C_34  and  C_36
REMARK   18  A    between atoms: C_34  and  C_37
REMARK                            x       y       z     vdW  Elec       q    Type
REMARK                         _______ _______ _______ _____ _____    ______ ____
ROOT
ATOM      1  C   UNL     1      -0.577  -4.007  -7.146  0.00  0.00    +0.193 C 
ENDROOT
BRANCH   1   2
ATOM      2  C   UNL     1       0.004  -4.567  -8.419  0.00  0.00    -0.015 A 
ATOM      3  C   UNL     1       0.130  -5.935  -8.578  0.00  0.00    +0.006 A 
ATOM      4  C   UNL     1       0.662  -6.451  -9.745  0.00  0.00    +0.004 A 
ATOM      5  C   UNL     1       1.069  -5.601 -10.755  0.00  0.00    +0.045 A 
ATOM      6  C   UNL     1       0.944  -4.229 -10.599  0.00  0.00    +0.117 A 
ATOM      7  C   UNL     1       0.403  -3.713  -9.429  0.00  0.00    +0.051 A 
BRANCH   6   8
ATOM      8  O   UNL     1       1.343  -3.391 -11.591  0.00  0.00    -0.507 OA
ATOM      9  H   UNL     1       0.650  -3.182 -12.232  0.00  0.00    +0.292 HD
ENDBRANCH   6   8
ENDBRANCH   1   2
BRANCH   1  10
ATOM     10  C   UNL     1      -2.075  -3.913  -7.277  0.00  0.00    +0.239 C 
ATOM     11  O   UNL     1      -2.790  -4.416  -6.436  0.00  0.00    -0.273 OA
ATOM     12  N   UNL     1      -2.621  -3.269  -8.327  0.00  0.00    -0.294 N 
ATOM     13  H   UNL     1      -2.050  -2.866  -8.999  0.00  0.00    +0.150 HD
BRANCH  12  14
ATOM     14  C   UNL     1      -4.078  -3.177  -8.454  0.00  0.00    +0.278 C 
BRANCH  14  15
ATOM     15  S   UNL     1      -4.648  -1.606  -7.748  0.00  0.00    +0.013 S 
ATOM     16  O   UNL     1      -6.053  -1.474  -7.920  0.00  0.00    -0.168 OA
ATOM     17  O   UNL     1      -4.051  -1.396  -6.476  0.00  0.00    -0.168 OA
BRANCH  15  18
ATOM     18  C   UNL     1      -3.949  -0.364  -8.784  0.00  0.00    +0.090 A 
ATOM     19  C   UNL     1      -2.702   0.157  -8.493  0.00  0.00    +0.027 A 
ATOM     20  C   UNL     1      -2.154   1.132  -9.306  0.00  0.00    +0.005 A 
ATOM     21  C   UNL     1      -2.853   1.585 -10.409  0.00  0.00    -0.050 A 
ATOM     22  C   UNL     1      -4.099   1.063 -10.700  0.00  0.00    +0.005 A 
ATOM     23  C   UNL     1      -4.646   0.086  -9.890  0.00  0.00    +0.027 A 
ATOM     24  C   UNL     1      -2.255   2.648 -11.295  0.00  0.00    +0.044 C 
ENDBRANCH  15  18
ENDBRANCH  14  15
ENDBRANCH  12  14
ENDBRANCH   1  10
BRANCH   1  27
ATOM     25  C   UNL     1      -0.820  -6.101  -5.924  0.00  0.00    +0.240 C 
ATOM     26  O   UNL     1      -1.700  -6.421  -6.699  0.00  0.00    -0.271 OA
ATOM     27  N   UNL     1      -0.239  -4.889  -6.027  0.00  0.00    -0.277 N 
BRANCH  27  28
ATOM     28  C   UNL     1       0.731  -4.454  -5.018  0.00  0.00    +0.030 C 
ATOM     29  C   UNL     1       1.952  -5.375  -5.054  0.00  0.00    +0.031 C 
ATOM     30  C   UNL     1       1.167  -3.018  -5.317  0.00  0.00    +0.031 C 
ATOM     31  C   UNL     1       0.087  -4.513  -3.632  0.00  0.00    +0.031 C 
ENDBRANCH  27  28
BRANCH  25  33
ATOM     32  C   UNL     1      -0.854  -8.282  -4.861  0.00  0.00    -0.022 C 
ATOM     33  C   UNL     1      -0.389  -7.036  -4.873  0.00  0.00    +0.063 C 
BRANCH  32  34
ATOM     34  C   UNL     1      -1.506  -8.855  -6.093  0.00  0.00    +0.027 C 
BRANCH  34  35
ATOM     35  C   UNL     1      -0.928 -10.244  -6.376  0.00  0.00    +0.004 C 
BRANCH  35  36
ATOM     36  C   UNL     1      -1.590 -10.826  -7.627  0.00  0.00    +0.000 C 
BRANCH  36  38
ATOM     37  C   UNL     1      -1.674 -12.796  -9.161  0.00  0.00    +0.004 C 
ATOM     38  C   UNL     1      -1.012 -12.214  -7.910  0.00  0.00    -0.003 C 
ENDBRANCH  36  38
ENDBRANCH  35  36
ENDBRANCH  34  35
ENDBRANCH  32  34
ENDBRANCH  25  33
ENDBRANCH   1  27
TORSDOF 13
