REMARK  Name = ZINC10385634
REMARK  9 active torsions:
REMARK  status: ('A' for Active; 'I' for Inactive)
REMARK    1  A    between atoms: C_1  and  C_2
REMARK    2  A    between atoms: C_12  and  C_14
REMARK    3  A    between atoms: C_14  and  S_15
REMARK    4  A    between atoms: S_15  and  C_16
REMARK    5  A    between atoms: C_19  and  C_21
REMARK    6  A    between atoms: C_21  and  N_22
REMARK    7  A    between atoms: C_23  and  C_25
REMARK    8  A    between atoms: C_29  and  N_32
REMARK    9  A    between atoms: C_30  and  C_31
REMARK                            x       y       z     vdW  Elec       q    Type
REMARK                         _______ _______ _______ _____ _____    ______ ____
ROOT
ATOM      1  C   UNL     1      10.166   5.777   0.685  0.00  0.00    +0.278 A 
ATOM      2  N   UNL     1      11.137   4.896   0.638  0.00  0.00    -0.101 NA
ATOM      3  N   UNL     1      12.256   5.506   0.467  0.00  0.00    -0.110 NA
ATOM      4  C   UNL     1      12.049   6.789   0.407  0.00  0.00    +0.235 A 
ATOM      5  O   UNL     1      10.724   6.994   0.543  0.00  0.00    -0.414 OA
ENDROOT
BRANCH   1   6
ATOM      6  S   UNL     1       8.451   5.431   0.900  0.00  0.00    -0.056 S 
BRANCH   6   7
ATOM      7  C   UNL     1       8.506   3.626   1.010  0.00  0.00    +0.175 C 
BRANCH   7  19
ATOM      8  C   UNL     1      -0.258  -1.073   2.299  0.00  0.00    +0.044 C 
ATOM      9  C   UNL     1       0.987  -0.246   2.105  0.00  0.00    -0.049 A 
ATOM     10  C   UNL     1       0.904   1.136   2.025  0.00  0.00    +0.005 A 
ATOM     11  C   UNL     1       2.021   1.911   1.850  0.00  0.00    +0.029 A 
ATOM     12  C   UNL     1       3.301   1.321   1.744  0.00  0.00    +0.080 A 
ATOM     13  C   UNL     1       3.347  -0.089   1.830  0.00  0.00    +0.041 A 
ATOM     14  C   UNL     1       2.223  -0.858   2.006  0.00  0.00    +0.020 A 
ATOM     15  S   UNL     1       5.083  -0.423   1.657  0.00  0.00    -0.052 S 
ATOM     16  C   UNL     1       5.622   1.273   1.487  0.00  0.00    +0.165 A 
ATOM     17  N   UNL     1       4.491   1.935   1.571  0.00  0.00    -0.225 NA
ATOM     18  N   UNL     1       6.905   1.764   1.311  0.00  0.00    -0.264 N 
ATOM     19  C   UNL     1       7.110   3.092   1.202  0.00  0.00    +0.229 C 
ATOM     20  O   UNL     1       6.170   3.857   1.258  0.00  0.00    -0.275 OA
ATOM     21  H   UNL     1       7.656   1.152   1.266  0.00  0.00    +0.157 HD
ENDBRANCH   7  19
ENDBRANCH   6   7
ENDBRANCH   1   6
BRANCH   4  22
ATOM     22  C   UNL     1      13.099   7.853   0.220  0.00  0.00    +0.202 C 
BRANCH  22  23
ATOM     23  N   UNL     1      13.285   8.109  -1.211  0.00  0.00    -0.303 N 
ATOM     24  C   UNL     1      14.182   9.029  -1.620  0.00  0.00    +0.245 C 
ATOM     25  O   UNL     1      14.835   9.646  -0.802  0.00  0.00    -0.270 OA
ATOM     26  H   UNL     1      12.764   7.617  -1.863  0.00  0.00    +0.150 HD
BRANCH  24  27
ATOM     27  C   UNL     1      14.370   9.287  -3.063  0.00  0.00    +0.042 A 
ATOM     28  C   UNL     1      13.720   8.491  -4.008  0.00  0.00    +0.013 A 
ATOM     29  C   UNL     1      13.900   8.737  -5.353  0.00  0.00    +0.003 A 
ATOM     30  C   UNL     1      14.721   9.771  -5.767  0.00  0.00    +0.033 A 
ATOM     31  C   UNL     1      15.367  10.564  -4.836  0.00  0.00    +0.130 A 
ATOM     32  C   UNL     1      15.192  10.332  -3.487  0.00  0.00    -0.008 A 
ATOM     33  C   UNL     1      15.892  11.201  -2.474  0.00  0.00    +0.047 C 
BRANCH  31  34
ATOM     34  N   UNL     1      16.244  11.668  -5.287  0.00  0.00    +0.057 N 
ATOM     35  O   UNL     1      16.300  11.957  -6.469  0.00  0.00    -0.126 OA
ATOM     36  O   UNL     1      16.910  12.287  -4.477  0.00  0.00    -0.126 OA
ENDBRANCH  31  34
ENDBRANCH  24  27
ENDBRANCH  22  23
ENDBRANCH   4  22
TORSDOF 7
