REMARK  Name = ZINC15839297
REMARK  10 active torsions:
REMARK  status: ('A' for Active; 'I' for Inactive)
REMARK    1  A    between atoms: C_1  and  C_2
REMARK    2  A    between atoms: C_2  and  C_3
REMARK    3  A    between atoms: C_3  and  C_35
REMARK    4  A    between atoms: N_18  and  C_34
REMARK    5  A    between atoms: C_20  and  S_21
REMARK    6  A    between atoms: S_21  and  C_22
REMARK    7  A    between atoms: C_22  and  C_23
REMARK    8  A    between atoms: N_25  and  C_26
REMARK    9  A    between atoms: C_26  and  C_27
REMARK   10  A    between atoms: C_27  and  C_28
REMARK                            x       y       z     vdW  Elec       q    Type
REMARK                         _______ _______ _______ _____ _____    ______ ____
ROOT
ATOM      1  C   UNL     1       9.210   4.001  -0.077  0.00  0.00    +0.004 C 
ATOM      2  C   UNL     1      10.550   4.022   0.654  0.00  0.00    +0.047 C 
ATOM      3  C   UNL     1      11.400   2.854   0.235  0.00  0.00    -0.037 A 
ATOM      4  C   UNL     1      12.770   2.988   0.134  0.00  0.00    +0.004 A 
ATOM      5  C   UNL     1      13.547   1.907  -0.241  0.00  0.00    +0.000 A 
ATOM      6  C   UNL     1      12.960   0.684  -0.516  0.00  0.00    +0.001 A 
ATOM      7  C   UNL     1      11.591   0.537  -0.421  0.00  0.00    +0.010 A 
ATOM      8  C   UNL     1      10.805   1.623  -0.047  0.00  0.00    +0.004 A 
ATOM      9  C   UNL     1       9.333   1.497   0.059  0.00  0.00    +0.084 A 
ATOM     10  C   UNL     1       8.558   2.653   0.050  0.00  0.00    +0.050 A 
ATOM     11  C   UNL     1       7.172   2.535   0.160  0.00  0.00    +0.266 A 
ATOM     12  O   UNL     1       6.461   3.528   0.160  0.00  0.00    -0.267 OA
ATOM     13  N   UNL     1       6.631   1.302   0.265  0.00  0.00    -0.222 N 
ATOM     14  C   UNL     1       7.432   0.198   0.266  0.00  0.00    +0.237 A 
ATOM     15  N   UNL     1       8.748   0.305   0.165  0.00  0.00    -0.211 NA
ATOM     16  N   UNL     1       6.620  -0.887   0.382  0.00  0.00    -0.233 N 
ATOM     17  N   UNL     1       5.302  -0.416   0.458  0.00  0.00    -0.143 NA
ATOM     18  C   UNL     1       5.324   0.883   0.383  0.00  0.00    +0.198 A 
ATOM     19  C   UNL     1       7.044  -2.289   0.424  0.00  0.00    +0.176 C 
ATOM     20  C   UNL     1       8.290   5.064   0.525  0.00  0.00    +0.016 C 
ENDROOT
BRANCH   1  22
ATOM     21  C   UNL     1       8.099   4.292  -2.296  0.00  0.00    +0.005 C 
ATOM     22  C   UNL     1       9.439   4.312  -1.558  0.00  0.00    +0.008 C 
ENDBRANCH   1  22
BRANCH  18  23
ATOM     23  S   UNL     1       3.912   1.935   0.432  0.00  0.00    -0.076 S 
BRANCH  23  24
ATOM     24  C   UNL     1       2.602   0.696   0.593  0.00  0.00    +0.173 C 
BRANCH  24  25
ATOM     25  C   UNL     1       1.264   1.386   0.655  0.00  0.00    +0.223 C 
ATOM     26  O   UNL     1       1.201   2.595   0.597  0.00  0.00    -0.275 OA
ATOM     27  N   UNL     1       0.136   0.658   0.776  0.00  0.00    -0.314 N 
ATOM     28  H   UNL     1       0.186  -0.310   0.822  0.00  0.00    +0.149 HD
BRANCH  27  29
ATOM     29  C   UNL     1      -1.166   1.327   0.830  0.00  0.00    +0.109 C 
BRANCH  29  30
ATOM     30  C   UNL     1      -2.274   0.280   0.960  0.00  0.00    +0.054 C 
BRANCH  30  31
ATOM     31  C   UNL     1      -3.613   0.969   1.016  0.00  0.00    -0.046 A 
ATOM     32  C   UNL     1      -4.148   1.342   2.235  0.00  0.00    +0.004 A 
ATOM     33  C   UNL     1      -5.374   1.978   2.287  0.00  0.00    +0.000 A 
ATOM     34  C   UNL     1      -6.069   2.233   1.119  0.00  0.00    +0.000 A 
ATOM     35  C   UNL     1      -5.537   1.855  -0.099  0.00  0.00    +0.000 A 
ATOM     36  C   UNL     1      -4.309   1.223  -0.151  0.00  0.00    +0.004 A 
ENDBRANCH  30  31
ENDBRANCH  29  30
ENDBRANCH  27  29
ENDBRANCH  24  25
ENDBRANCH  23  24
ENDBRANCH  18  23
TORSDOF 7
