REMARK  Name = ZINC39549056
REMARK  7 active torsions:
REMARK  status: ('A' for Active; 'I' for Inactive)
REMARK    1  A    between atoms: C_1  and  C_2
REMARK    2  A    between atoms: C_2  and  C_3
REMARK    3  A    between atoms: C_2  and  C_4
REMARK    4  A    between atoms: C_4  and  C_5
REMARK    5  A    between atoms: N_7  and  C_8
REMARK    6  A    between atoms: C_10  and  C_20
REMARK    7  A    between atoms: C_13  and  N_14
REMARK                            x       y       z     vdW  Elec       q    Type
REMARK                         _______ _______ _______ _____ _____    ______ ____
ROOT
ATOM      1  C   UNL     1      -0.270  -0.017   4.818  0.00  0.00    +0.055 A 
ATOM      2  C   UNL     1      -1.456   0.673   4.657  0.00  0.00    +0.038 A 
ATOM      3  C   UNL     1      -2.155   1.126   5.779  0.00  0.00    +0.038 A 
ATOM      4  C   UNL     1      -1.653   0.880   7.059  0.00  0.00    +0.015 A 
ATOM      5  C   UNL     1      -0.471   0.192   7.216  0.00  0.00    +0.026 A 
ATOM      6  C   UNL     1       0.224  -0.265   6.102  0.00  0.00    +0.051 A 
ENDROOT
BRANCH   6   7
ATOM      7  N   UNL     1       1.416  -0.967   6.265  0.00  0.00    -0.328 N 
ATOM      8  C   UNL     1       2.700  -0.256   6.322  0.00  0.00    +0.105 C 
ATOM      9  C   UNL     1       3.439  -0.673   7.597  0.00  0.00    +0.019 C 
ATOM     10  C   UNL     1       3.562  -2.198   7.636  0.00  0.00    +0.003 C 
ATOM     11  C   UNL     1       2.166  -2.823   7.660  0.00  0.00    +0.019 C 
ATOM     12  C   UNL     1       1.412  -2.430   6.391  0.00  0.00    +0.105 C 
ENDBRANCH   6   7
BRANCH   3  13
ATOM     13  C   UNL     1      -3.422   1.864   5.611  0.00  0.00    +0.242 C 
ATOM     14  O   UNL     1      -3.858   2.079   4.496  0.00  0.00    -0.270 OA
ATOM     15  N   UNL     1      -4.096   2.301   6.693  0.00  0.00    -0.325 N 
ATOM     16  H   UNL     1      -3.748   2.130   7.582  0.00  0.00    +0.145 HD
ATOM     17  H   UNL     1      -4.928   2.786   6.583  0.00  0.00    +0.145 HD
ENDBRANCH   3  13
BRANCH   1  20
ATOM     18  C   UNL     1      -0.216  -0.703   2.538  0.00  0.00    +0.217 C 
ATOM     19  O   UNL     1      -1.425  -0.612   2.495  0.00  0.00    -0.275 OA
ATOM     20  N   UNL     1       0.435  -0.473   3.696  0.00  0.00    -0.284 N 
ATOM     21  H   UNL     1       1.392  -0.624   3.752  0.00  0.00    +0.155 HD
BRANCH  18  22
ATOM     22  C   UNL     1       0.557  -1.073   1.299  0.00  0.00    +0.099 C 
BRANCH  22  24
ATOM     23  C   UNL     1      -1.100   0.050  -0.197  0.00  0.00    +0.008 C 
ATOM     24  C   UNL     1      -0.414  -1.277   0.134  0.00  0.00    -0.008 C 
ATOM     25  C   UNL     1       0.356  -1.773  -1.091  0.00  0.00    +0.008 C 
ENDBRANCH  22  24
ENDBRANCH  18  22
ENDBRANCH   1  20
TORSDOF 5
