REMARK  Name = ZINC01334729
REMARK  14 active torsions:
REMARK  status: ('A' for Active; 'I' for Inactive)
REMARK    1  A    between atoms: C_1  and  C_2
REMARK    2  A    between atoms: C_6  and  C_15
REMARK    3  A    between atoms: C_13  and  C_14
REMARK    4  A    between atoms: C_15  and  N_16
REMARK    5  A    between atoms: N_16  and  C_17
REMARK    6  A    between atoms: N_16  and  C_20
REMARK    7  A    between atoms: C_17  and  C_18
REMARK    8  A    between atoms: C_18  and  O_19
REMARK    9  A    between atoms: C_20  and  C_22
REMARK   10  A    between atoms: C_20  and  C_33
REMARK   11  A    between atoms: N_26  and  C_27
REMARK   12  A    between atoms: C_27  and  C_28
REMARK   13  A    between atoms: C_33  and  C_34
REMARK   14  A    between atoms: C_33  and  C_35
REMARK                            x       y       z     vdW  Elec       q    Type
REMARK                         _______ _______ _______ _____ _____    ______ ____
ROOT
ATOM      1  N   UNL     1      -0.721   1.552   1.488  0.00  0.00    +0.391 N 
ATOM      2  H   UNL     1      -1.775   1.268   1.623  0.00  0.00    -0.080 HD
ENDROOT
BRANCH   1   3
ATOM      3  C   UNL     1       0.036   1.037   2.637  0.00  0.00    -0.036 C 
BRANCH   3   9
ATOM      4  C   UNL     1      -4.756  -0.757   8.063  0.00  0.00    +0.044 C 
ATOM      5  C   UNL     1      -3.798   0.215   7.424  0.00  0.00    -0.047 A 
ATOM      6  C   UNL     1      -3.154  -0.129   6.269  0.00  0.00    +0.013 A 
ATOM      7  C   UNL     1      -2.265   0.773   5.676  0.00  0.00    -0.001 A 
ATOM      8  C   UNL     1      -1.563   0.439   4.435  0.00  0.00    +0.017 A 
ATOM      9  C   UNL     1      -0.708   1.351   3.909  0.00  0.00    +0.001 A 
ATOM     10  C   UNL     1      -0.517   2.596   4.546  0.00  0.00    +0.251 A 
ATOM     11  O   UNL     1       0.252   3.403   4.054  0.00  0.00    -0.268 OA
ATOM     12  N   UNL     1      -1.161   2.914   5.683  0.00  0.00    -0.322 N 
ATOM     13  H   UNL     1      -0.992   3.892   6.156  0.00  0.00    +0.169 HD
ATOM     14  C   UNL     1      -2.039   2.029   6.271  0.00  0.00    +0.049 A 
ATOM     15  C   UNL     1      -2.706   2.357   7.447  0.00  0.00    +0.030 A 
ATOM     16  C   UNL     1      -3.578   1.452   8.014  0.00  0.00    -0.046 A 
ATOM     17  C   UNL     1      -4.299   1.810   9.288  0.00  0.00    +0.044 C 
ENDBRANCH   3   9
ENDBRANCH   1   3
BRANCH   1  18
ATOM     18  C   UNL     1      -0.651   3.018   1.426  0.00  0.00    -0.049 C 
BRANCH  18  19
ATOM     19  C   UNL     1      -1.757   3.542   0.509  0.00  0.00    +0.137 C 
BRANCH  19  20
ATOM     20  O   UNL     1      -3.032   3.241   1.079  0.00  0.00    -0.397 OA
ATOM     21  H   UNL     1      -3.953   3.542   0.558  0.00  0.00    +0.209 HD
ENDBRANCH  19  20
ENDBRANCH  18  19
ENDBRANCH   1  18
BRANCH   1  22
ATOM     22  C   UNL     1      -0.249   0.949   0.234  0.00  0.00    +0.006 C 
BRANCH  22  23
ATOM     23  C   UNL     1       1.251   1.070   0.152  0.00  0.00    +0.139 A 
ATOM     24  N   UNL     1       2.114   0.755   1.087  0.00  0.00    -0.115 NA
ATOM     25  N   UNL     1       3.296   1.001   0.637  0.00  0.00    -0.023 NA
ATOM     26  N   UNL     1       3.209   1.465  -0.561  0.00  0.00    -0.044 NA
ATOM     27  N   UNL     1       1.965   1.518  -0.898  0.00  0.00    -0.223 N 
BRANCH  27  28
ATOM     28  C   UNL     1       1.429   1.980  -2.180  0.00  0.00    +0.221 C 
BRANCH  28  29
ATOM     29  C   UNL     1       1.167   3.463  -2.110  0.00  0.00    +0.126 A 
ATOM     30  C   UNL     1       2.046   4.433  -2.420  0.00  0.00    +0.046 A 
ATOM     31  C   UNL     1       1.385   5.665  -2.214  0.00  0.00    +0.041 A 
ATOM     32  C   UNL     1       0.144   5.375  -1.781  0.00  0.00    +0.195 A 
ATOM     33  O   UNL     1       0.018   4.039  -1.720  0.00  0.00    -0.466 OA
ENDBRANCH  28  29
ENDBRANCH  27  28
ENDBRANCH  22  23
BRANCH  22  34
ATOM     34  C   UNL     1      -0.643  -0.529   0.198  0.00  0.00    -0.024 C 
ATOM     35  C   UNL     1      -2.156  -0.658   0.393  0.00  0.00    +0.006 C 
ATOM     36  C   UNL     1      -0.250  -1.129  -1.153  0.00  0.00    +0.006 C 
ENDBRANCH  22  34
ENDBRANCH   1  22
TORSDOF 10
