REMARK  Name = ZINC21882515
REMARK  6 active torsions:
REMARK  status: ('A' for Active; 'I' for Inactive)
REMARK    1  A    between atoms: C_1  and  C_2
REMARK    2  A    between atoms: C_2  and  C_4
REMARK    3  A    between atoms: C_2  and  N_14
REMARK    4  A    between atoms: C_15  and  C_17
REMARK    5  A    between atoms: C_17  and  C_18
REMARK    6  A    between atoms: C_18  and  C_19
REMARK                            x       y       z     vdW  Elec       q    Type
REMARK                         _______ _______ _______ _____ _____    ______ ____
ROOT
ATOM      1  C   UNL     1      -6.626  -0.191   2.399  0.00  0.00    +0.103 C 
ENDROOT
BRANCH   1   3
ATOM      2  N   UNL     1      -4.647  -0.149   0.915  0.00  0.00    -0.309 N 
ATOM      3  C   UNL     1      -5.643  -0.864   1.476  0.00  0.00    +0.214 C 
ATOM      4  O   UNL     1      -5.749  -2.048   1.237  0.00  0.00    -0.276 OA
ATOM      5  H   UNL     1      -4.552   0.925   1.132  0.00  0.00    +0.149 HD
BRANCH   2   7
ATOM      6  C   UNL     1      -4.266  -0.838  -1.400  0.00  0.00    +0.033 C 
ATOM      7  C   UNL     1      -3.692  -0.803   0.018  0.00  0.00    +0.100 C 
BRANCH   7   8
ATOM      8  C   UNL     1      -2.397  -0.033   0.016  0.00  0.00    -0.024 A 
ATOM      9  C   UNL     1      -2.415   1.349   0.026  0.00  0.00    +0.009 A 
ATOM     10  C   UNL     1      -1.229   2.059   0.019  0.00  0.00    +0.050 A 
ATOM     11  C   UNL     1      -0.017   1.385   0.010  0.00  0.00    +0.162 A 
ATOM     12  C   UNL     1       0.002  -0.004   0.002  0.00  0.00    +0.162 A 
ATOM     13  C   UNL     1      -1.192  -0.710   0.004  0.00  0.00    +0.055 A 
ATOM     14  O   UNL     1       1.181  -0.685  -0.007  0.00  0.00    -0.485 OA
ATOM     15  C   UNL     1       2.347   0.053  -0.387  0.00  0.00    +0.270 C 
ATOM     16  C   UNL     1       2.334   1.392   0.364  0.00  0.00    +0.270 C 
ATOM     17  O   UNL     1       1.143   2.098   0.002  0.00  0.00    -0.485 OA
ENDBRANCH   7   8
ENDBRANCH   2   7
ENDBRANCH   1   3
BRANCH   1  18
ATOM     18  C   UNL     1      -7.646  -1.218   2.894  0.00  0.00    +0.083 C 
BRANCH  18  19
ATOM     19  C   UNL     1      -8.629  -0.546   3.817  0.00  0.00    +0.111 A 
ATOM     20  N   UNL     1      -9.628  -1.277   4.375  0.00  0.00    -0.310 N 
ATOM     21  H   UNL     1      -9.714  -2.351   4.151  0.00  0.00    +0.170 HD
ATOM     22  C   UNL     1     -10.527  -0.717   5.206  0.00  0.00    +0.260 A 
ATOM     23  O   UNL     1     -11.417  -1.387   5.700  0.00  0.00    -0.267 OA
ATOM     24  C   UNL     1     -10.418   0.682   5.499  0.00  0.00    +0.075 A 
ATOM     25  C   UNL     1     -11.276   1.494   6.368  0.00  0.00    -0.023 A 
ATOM     26  C   UNL     1     -10.965   2.802   6.474  0.00  0.00    -0.004 A 
ATOM     27  S   UNL     1      -9.530   3.022   5.455  0.00  0.00    -0.073 S 
ATOM     28  C   UNL     1      -9.356   1.354   4.878  0.00  0.00    +0.116 A 
ATOM     29  N   UNL     1      -8.501   0.729   4.071  0.00  0.00    -0.227 NA
ATOM     30  C   UNL     1     -11.675   3.852   7.272  0.00  0.00    +0.043 C 
ATOM     31  C   UNL     1     -11.901   3.337   8.700  0.00  0.00    +0.005 C 
ATOM     32  C   UNL     1     -13.242   2.611   8.742  0.00  0.00    +0.001 C 
ATOM     33  C   UNL     1     -13.509   1.929   7.402  0.00  0.00    +0.005 C 
ATOM     34  C   UNL     1     -12.449   0.871   7.120  0.00  0.00    +0.037 C 
ENDBRANCH  18  19
ENDBRANCH   1  18
TORSDOF 5
