REMARK  Name = ZINC66732759
REMARK  8 active torsions:
REMARK  status: ('A' for Active; 'I' for Inactive)
REMARK    1  A    between atoms: C_1  and  C_2
REMARK    2  A    between atoms: C_2  and  C_3
REMARK    3  A    between atoms: C_3  and  C_4
REMARK    4  A    between atoms: C_4  and  C_5
REMARK    5  A    between atoms: C_5  and  C_7
REMARK    6  A    between atoms: C_5  and  N_21
REMARK    7  A    between atoms: C_16  and  C_20
REMARK    8  A    between atoms: C_18  and  C_19
REMARK                            x       y       z     vdW  Elec       q    Type
REMARK                         _______ _______ _______ _____ _____    ______ ____
ROOT
ATOM      1  C   UNL     1       1.369  -4.024  -2.595  0.00  0.00    +0.240 C 
ATOM      2  O   UNL     1       2.305  -4.703  -2.231  0.00  0.00    -0.273 OA
ATOM      3  N   UNL     1       0.243  -4.613  -3.045  0.00  0.00    -0.270 N 
ATOM      4  C   UNL     1      -0.942  -3.809  -3.371  0.00  0.00    +0.114 C 
ATOM      5  C   UNL     1      -2.167  -4.517  -2.777  0.00  0.00    +0.024 C 
ATOM      6  C   UNL     1      -2.325  -5.880  -3.450  0.00  0.00    +0.039 C 
ATOM      7  C   UNL     1      -1.029  -6.646  -3.402  0.00  0.00    -0.023 A 
ATOM      8  C   UNL     1       0.186  -6.004  -3.214  0.00  0.00    +0.040 A 
ATOM      9  C   UNL     1       1.366  -6.738  -3.185  0.00  0.00    +0.027 A 
ATOM     10  C   UNL     1       1.330  -8.109  -3.346  0.00  0.00    -0.048 A 
ATOM     11  C   UNL     1       0.120  -8.750  -3.537  0.00  0.00    +0.007 A 
ATOM     12  C   UNL     1      -1.058  -8.021  -3.557  0.00  0.00    -0.045 A 
ATOM     13  C   UNL     1      -2.374  -8.725  -3.765  0.00  0.00    +0.044 C 
ATOM     14  C   UNL     1       2.609  -8.906  -3.315  0.00  0.00    +0.044 C 
ENDROOT
BRANCH   1  15
ATOM     15  C   UNL     1       1.463  -2.520  -2.544  0.00  0.00    +0.161 C 
BRANCH  15  16
ATOM     16  N   UNL     1       2.872  -2.121  -2.492  0.00  0.00    -0.288 N 
ATOM     17  C   UNL     1       3.651  -2.531  -1.472  0.00  0.00    +0.298 C 
ATOM     18  O   UNL     1       3.185  -3.232  -0.594  0.00  0.00    -0.253 OA
ATOM     19  N   UNL     1       4.947  -2.163  -1.424  0.00  0.00    -0.313 N 
ATOM     20  H   UNL     1       3.243  -1.562  -3.192  0.00  0.00    +0.151 HD
ATOM     21  H   UNL     1       5.319  -1.604  -2.124  0.00  0.00    +0.146 HD
ATOM     22  H   UNL     1       5.508  -2.458  -0.689  0.00  0.00    +0.146 HD
ENDBRANCH  15  16
BRANCH  15  23
ATOM     23  C   UNL     1       0.741  -2.006  -1.298  0.00  0.00    +0.032 C 
BRANCH  23  24
ATOM     24  C   UNL     1       0.728  -0.476  -1.310  0.00  0.00    +0.002 C 
BRANCH  24  26
ATOM     25  C   UNL     1      -0.006   1.569  -0.077  0.00  0.00    +0.004 C 
ATOM     26  C   UNL     1       0.006   0.039  -0.064  0.00  0.00    -0.003 C 
ENDBRANCH  24  26
ENDBRANCH  23  24
ENDBRANCH  15  23
ENDBRANCH   1  15
TORSDOF 5
