REMARK  Name = ZINC11322316
REMARK  8 active torsions:
REMARK  status: ('A' for Active; 'I' for Inactive)
REMARK    1  A    between atoms: C_1  and  C_2
REMARK    2  A    between atoms: C_2  and  C_3
REMARK    3  A    between atoms: C_3  and  C_4
REMARK    4  A    between atoms: C_4  and  C_5
REMARK    5  A    between atoms: C_5  and  C_28
REMARK    6  A    between atoms: N_8  and  C_12
REMARK    7  A    between atoms: C_12  and  C_13
REMARK    8  A    between atoms: N_15  and  N_16
REMARK                            x       y       z     vdW  Elec       q    Type
REMARK                         _______ _______ _______ _____ _____    ______ ____
ROOT
ATOM      1  C   UNL     1       1.149   3.593   0.010  0.00  0.00    +0.138 C 
ATOM      2  C   UNL     1       1.028   4.116   1.428  0.00  0.00    +0.251 C 
ATOM      3  O   UNL     1       1.808   3.948   2.340  0.00  0.00    -0.272 OA
ATOM      4  N   UNL     1      -0.128   4.808   1.463  0.00  0.00    -0.215 N 
ATOM      5  C   UNL     1      -0.748   4.794   0.278  0.00  0.00    +0.310 C 
ATOM      6  O   UNL     1      -1.808   5.348   0.063  0.00  0.00    -0.252 OA
ATOM      7  N   UNL     1      -0.067   4.097  -0.650  0.00  0.00    -0.281 N 
ATOM      8  H   UNL     1      -0.327   3.954  -1.574  0.00  0.00    +0.152 HD
ENDROOT
BRANCH   1   9
ATOM      9  C   UNL     1       1.171   2.086   0.002  0.00  0.00    -0.015 A 
ATOM     10  C   UNL     1      -0.017   1.378   0.010  0.00  0.00    +0.009 A 
ATOM     11  C   UNL     1       0.002  -0.004   0.002  0.00  0.00    +0.039 A 
ATOM     12  C   UNL     1       1.211  -0.679  -0.013  0.00  0.00    +0.123 A 
ATOM     13  C   UNL     1       2.399   0.031  -0.021  0.00  0.00    +0.039 A 
ATOM     14  C   UNL     1       2.378   1.413  -0.013  0.00  0.00    +0.009 A 
ATOM     15  F   UNL     1       1.230  -2.030  -0.020  0.00  0.00    -0.205 F 
ENDBRANCH   1   9
BRANCH   1  16
ATOM     16  C   UNL     1       2.401   4.151  -0.668  0.00  0.00    +0.040 C 
BRANCH  16  17
ATOM     17  C   UNL     1       2.354   5.680  -0.646  0.00  0.00    +0.003 C 
BRANCH  17  19
ATOM     18  C   UNL     1       3.559   7.768  -1.303  0.00  0.00    +0.004 C 
ATOM     19  C   UNL     1       3.606   6.239  -1.325  0.00  0.00    -0.003 C 
ENDBRANCH  17  19
ENDBRANCH  16  17
ENDBRANCH   1  16
BRANCH   4  20
ATOM     20  C   UNL     1      -0.643   5.490   2.653  0.00  0.00    +0.215 C 
BRANCH  20  21
ATOM     21  C   UNL     1      -1.514   4.543   3.438  0.00  0.00    +0.248 C 
ATOM     22  O   UNL     1      -1.688   3.409   3.042  0.00  0.00    -0.273 OA
ATOM     23  N   UNL     1      -2.100   4.955   4.579  0.00  0.00    -0.222 N 
ATOM     24  H   UNL     1      -1.962   5.861   4.896  0.00  0.00    +0.174 HD
BRANCH  23  25
ATOM     25  N   UNL     1      -2.910   4.074   5.308  0.00  0.00    -0.137 N 
ATOM     26  C   UNL     1      -4.257   4.135   5.343  0.00  0.00    +0.263 C 
ATOM     27  O   UNL     1      -4.971   4.931   4.771  0.00  0.00    -0.271 OA
ATOM     28  C   UNL     1      -4.690   3.001   6.243  0.00  0.00    +0.114 C 
ATOM     29  C   UNL     1      -5.441   3.544   7.453  0.00  0.00    +0.035 C 
ATOM     30  C   UNL     1      -5.838   2.384   8.371  0.00  0.00    +0.003 C 
ATOM     31  C   UNL     1      -6.722   1.403   7.599  0.00  0.00    +0.000 C 
ATOM     32  C   UNL     1      -5.948   0.851   6.400  0.00  0.00    +0.003 C 
ATOM     33  C   UNL     1      -5.552   2.005   5.475  0.00  0.00    +0.035 C 
ATOM     34  N   UNL     1      -3.428   2.375   6.659  0.00  0.00    -0.284 N 
ATOM     35  C   UNL     1      -2.442   3.071   6.062  0.00  0.00    +0.326 C 
ATOM     36  O   UNL     1      -1.261   2.818   6.192  0.00  0.00    -0.251 OA
ATOM     37  H   UNL     1      -3.325   1.611   7.247  0.00  0.00    +0.151 HD
ENDBRANCH  23  25
ENDBRANCH  20  21
ENDBRANCH   4  20
TORSDOF 7
