REMARK  Name = ZINC05822837
REMARK  16 active torsions:
REMARK  status: ('A' for Active; 'I' for Inactive)
REMARK    1  A    between atoms: C_1  and  C_2
REMARK    2  A    between atoms: C_2  and  O_3
REMARK    3  A    between atoms: O_3  and  C_4
REMARK    4  A    between atoms: C_4  and  C_6
REMARK    5  A    between atoms: C_6  and  C_7
REMARK    6  A    between atoms: C_7  and  N_8
REMARK    7  A    between atoms: C_9  and  C_11
REMARK    8  A    between atoms: C_13  and  C_36
REMARK    9  A    between atoms: C_19  and  C_26
REMARK   10  A    between atoms: C_21  and  C_25
REMARK   11  A    between atoms: N_28  and  C_29
REMARK   12  A    between atoms: C_29  and  C_30
REMARK   13  A    between atoms: C_30  and  C_31
REMARK   14  A    between atoms: C_31  and  O_33
REMARK   15  A    between atoms: O_33  and  C_34
REMARK   16  A    between atoms: C_34  and  C_35
REMARK                            x       y       z     vdW  Elec       q    Type
REMARK                         _______ _______ _______ _____ _____    ______ ____
ROOT
ATOM      1  C   UNL     1      -0.612   2.282   3.585  0.00  0.00    +0.080 A 
ATOM      2  C   UNL     1      -1.563   3.302   3.481  0.00  0.00    +0.020 A 
ATOM      3  C   UNL     1      -2.194   3.784   4.606  0.00  0.00    -0.048 A 
ATOM      4  C   UNL     1      -1.882   3.267   5.855  0.00  0.00    +0.022 A 
ATOM      5  C   UNL     1      -0.939   2.267   5.971  0.00  0.00    +0.056 A 
ATOM      6  C   UNL     1      -0.291   1.757   4.843  0.00  0.00    +0.154 A 
ATOM      7  O   UNL     1       0.625   0.770   4.955  0.00  0.00    -0.452 OA
ATOM      8  C   UNL     1       1.521   0.725   5.965  0.00  0.00    +0.154 A 
ATOM      9  C   UNL     1       2.841   0.327   5.719  0.00  0.00    +0.080 A 
ATOM     10  C   UNL     1       3.758   0.277   6.774  0.00  0.00    +0.020 A 
ATOM     11  C   UNL     1       3.371   0.615   8.051  0.00  0.00    -0.048 A 
ATOM     12  C   UNL     1       2.065   1.014   8.301  0.00  0.00    +0.022 A 
ATOM     13  C   UNL     1       1.153   1.072   7.267  0.00  0.00    +0.056 A 
ATOM     14  S   UNL     1      -0.512   1.597   7.550  0.00  0.00    -0.082 S 
ATOM     15  C   UNL     1       4.367   0.552   9.181  0.00  0.00    +0.044 C 
ATOM     16  C   UNL     1      -3.223   4.878   4.481  0.00  0.00    +0.044 C 
ENDROOT
BRANCH   1  18
ATOM     17  N   UNL     1      -0.327   2.198   1.157  0.00  0.00    -0.311 N 
ATOM     18  C   UNL     1       0.056   1.765   2.375  0.00  0.00    +0.248 C 
ATOM     19  O   UNL     1       0.951   0.949   2.476  0.00  0.00    -0.270 OA
ATOM     20  H   UNL     1      -1.041   2.849   1.077  0.00  0.00    +0.149 HD
BRANCH  17  21
ATOM     21  C   UNL     1       0.335   1.685  -0.044  0.00  0.00    +0.115 C 
BRANCH  21  22
ATOM     22  C   UNL     1      -0.284   2.333  -1.284  0.00  0.00    +0.139 C 
BRANCH  22  23
ATOM     23  C   UNL     1       0.398   1.805  -2.520  0.00  0.00    +0.309 C 
ATOM     24  O   UNL     1       1.287   0.993  -2.420  0.00  0.00    -0.251 OA
BRANCH  23  25
ATOM     25  O   UNL     1       0.016   2.236  -3.733  0.00  0.00    -0.465 OA
BRANCH  25  27
ATOM     26  C   UNL     1       0.148   2.290  -6.164  0.00  0.00    +0.048 C 
ATOM     27  C   UNL     1       0.717   1.684  -4.879  0.00  0.00    +0.229 C 
ENDBRANCH  25  27
ENDBRANCH  23  25
ENDBRANCH  22  23
ENDBRANCH  21  22
ENDBRANCH  17  21
ENDBRANCH   1  18
BRANCH   9  28
ATOM     28  C   UNL     1       3.263  -0.037   4.353  0.00  0.00    +0.248 C 
ATOM     29  O   UNL     1       2.476  -0.575   3.597  0.00  0.00    -0.270 OA
ATOM     30  N   UNL     1       4.519   0.226   3.943  0.00  0.00    -0.311 N 
ATOM     31  H   UNL     1       5.146   0.655   4.546  0.00  0.00    +0.149 HD
BRANCH  30  32
ATOM     32  C   UNL     1       4.938  -0.135   2.586  0.00  0.00    +0.115 C 
BRANCH  32  33
ATOM     33  C   UNL     1       6.398   0.270   2.378  0.00  0.00    +0.139 C 
BRANCH  33  34
ATOM     34  C   UNL     1       6.829  -0.102   0.983  0.00  0.00    +0.309 C 
ATOM     35  O   UNL     1       6.048  -0.636   0.232  0.00  0.00    -0.251 OA
BRANCH  34  36
ATOM     36  O   UNL     1       8.080   0.161   0.574  0.00  0.00    -0.465 OA
BRANCH  36  37
ATOM     37  C   UNL     1       8.425  -0.225  -0.782  0.00  0.00    +0.229 C 
ATOM     38  C   UNL     1       9.881   0.151  -1.065  0.00  0.00    +0.048 C 
ENDBRANCH  36  37
ENDBRANCH  34  36
ENDBRANCH  33  34
ENDBRANCH  32  33
ENDBRANCH  30  32
ENDBRANCH   9  28
TORSDOF 12
