REMARK  Name = ZINC12790837
REMARK  8 active torsions:
REMARK  status: ('A' for Active; 'I' for Inactive)
REMARK    1  A    between atoms: C_1  and  C_2
REMARK    2  A    between atoms: C_7  and  N_8
REMARK    3  A    between atoms: C_17  and  S_18
REMARK    4  A    between atoms: S_18  and  C_19
REMARK    5  A    between atoms: C_19  and  C_21
REMARK    6  A    between atoms: C_19  and  C_24
REMARK    7  A    between atoms: C_21  and  C_22
REMARK    8  A    between atoms: C_21  and  C_23
REMARK                            x       y       z     vdW  Elec       q    Type
REMARK                         _______ _______ _______ _____ _____    ______ ____
ROOT
ATOM      1  N   UNL     1       1.187  -0.642  -0.013  0.00  0.00    -0.255 N 
ATOM      2  C   UNL     1       0.002  -0.004   0.002  0.00  0.00    +0.268 A 
ATOM      3  O   UNL     1      -1.040  -0.636   0.009  0.00  0.00    -0.267 OA
ATOM      4  C   UNL     1      -0.017   1.426   0.010  0.00  0.00    +0.076 A 
ATOM      5  C   UNL     1      -1.179   2.318   0.020  0.00  0.00    -0.023 A 
ATOM      6  C   UNL     1      -0.933   3.644   0.030  0.00  0.00    -0.004 A 
ATOM      7  S   UNL     1       0.834   3.784   0.014  0.00  0.00    -0.073 S 
ATOM      8  C   UNL     1       1.239   2.056   0.001  0.00  0.00    +0.117 A 
ATOM      9  N   UNL     1       2.374   1.368  -0.014  0.00  0.00    -0.215 NA
ATOM     10  C   UNL     1       2.365   0.050  -0.021  0.00  0.00    +0.178 A 
ATOM     11  C   UNL     1      -1.939   4.754   0.044  0.00  0.00    +0.043 C 
ATOM     12  C   UNL     1      -3.310   4.169  -0.323  0.00  0.00    +0.005 C 
ATOM     13  C   UNL     1      -3.544   2.906   0.511  0.00  0.00    +0.005 C 
ATOM     14  C   UNL     1      -2.611   1.791   0.036  0.00  0.00    +0.037 C 
ENDROOT
BRANCH   1  21
ATOM     15  C   UNL     1       1.236  -2.003   2.486  0.00  0.00    +0.046 C 
ATOM     16  C   UNL     1       1.237  -2.746   1.175  0.00  0.00    -0.026 A 
ATOM     17  C   UNL     1       1.263  -4.127   1.163  0.00  0.00    +0.005 A 
ATOM     18  C   UNL     1       1.264  -4.809  -0.040  0.00  0.00    +0.000 A 
ATOM     19  C   UNL     1       1.239  -4.112  -1.234  0.00  0.00    +0.002 A 
ATOM     20  C   UNL     1       1.208  -2.732  -1.228  0.00  0.00    +0.026 A 
ATOM     21  C   UNL     1       1.213  -2.043  -0.022  0.00  0.00    +0.055 A 
ENDBRANCH   1  21
BRANCH  10  22
ATOM     22  S   UNL     1       3.891  -0.830  -0.041  0.00  0.00    -0.074 S 
BRANCH  22  23
ATOM     23  C   UNL     1       5.054   0.557  -0.044  0.00  0.00    +0.143 C 
BRANCH  23  24
ATOM     24  C   UNL     1       6.460   0.033  -0.185  0.00  0.00    +0.234 C 
ATOM     25  O   UNL     1       6.706  -1.123   0.085  0.00  0.00    -0.274 OA
ATOM     26  N   UNL     1       7.444   0.850  -0.611  0.00  0.00    -0.239 N 
ATOM     27  C   UNL     1       8.702   0.381  -0.737  0.00  0.00    +0.303 C 
ATOM     28  O   UNL     1       8.948  -0.778  -0.466  0.00  0.00    -0.253 OA
ATOM     29  N   UNL     1       9.685   1.198  -1.163  0.00  0.00    -0.313 N 
ATOM     30  H   UNL     1       7.247   1.774  -0.827  0.00  0.00    +0.159 HD
ATOM     31  H   UNL     1       9.489   2.123  -1.379  0.00  0.00    +0.146 HD
ATOM     32  H   UNL     1      10.591   0.861  -1.253  0.00  0.00    +0.146 HD
ENDBRANCH  23  24
BRANCH  23  33
ATOM     33  C   UNL     1       4.928   1.332   1.269  0.00  0.00    +0.005 C 
ATOM     34  C   UNL     1       5.365   0.439   2.432  0.00  0.00    +0.009 C 
ATOM     35  C   UNL     1       5.819   2.574   1.216  0.00  0.00    +0.009 C 
ENDBRANCH  23  33
ENDBRANCH  22  23
ENDBRANCH  10  22
TORSDOF 5
