REMARK  Name = ZINC12361785
REMARK  5 active torsions:
REMARK  status: ('A' for Active; 'I' for Inactive)
REMARK    1  A    between atoms: C_1  and  C_2
REMARK    2  A    between atoms: C_7  and  C_8
REMARK    3  A    between atoms: C_8  and  N_42
REMARK    4  A    between atoms: C_9  and  C_13
REMARK    5  A    between atoms: C_9  and  N_42
REMARK                            x       y       z     vdW  Elec       q    Type
REMARK                         _______ _______ _______ _____ _____    ______ ____
ROOT
ATOM      1  N   UNL     1       3.043   1.013   1.348  0.00  0.00    +0.388 N 
ATOM      2  H   UNL     1       2.288   0.514   1.835  0.00  0.00    -0.084 HD
ATOM      3  H   UNL     1       3.218   1.909   1.817  0.00  0.00    -0.084 HD
ENDROOT
BRANCH   1   4
ATOM      4  C   UNL     1       4.270   0.195   1.387  0.00  0.00    -0.042 C 
ATOM      5  C   UNL     1       4.985   0.237   2.748  0.00  0.00    -0.008 C 
ATOM      6  C   UNL     1       5.756   1.459   2.213  0.00  0.00    -0.002 C 
ATOM      7  C   UNL     1       5.504   0.902   0.802  0.00  0.00    -0.008 C 
BRANCH   4   8
ATOM      8  C   UNL     1       4.065  -1.200   0.856  0.00  0.00    -0.058 A 
ATOM      9  C   UNL     1       2.807  -1.772   0.885  0.00  0.00    +0.004 A 
ATOM     10  C   UNL     1       2.617  -3.050   0.392  0.00  0.00    +0.020 A 
ATOM     11  C   UNL     1       3.688  -3.760  -0.119  0.00  0.00    +0.041 A 
ATOM     12  C   UNL     1       4.948  -3.189  -0.142  0.00  0.00    +0.020 A 
ATOM     13  C   UNL     1       5.136  -1.909   0.345  0.00  0.00    +0.004 A 
ATOM     14 CL   UNL     1       3.452  -5.367  -0.732  0.00  0.00    -0.084 Cl
ENDBRANCH   4   8
ENDBRANCH   1   4
BRANCH   1  15
ATOM     15  C   UNL     1       2.639   1.264  -0.048  0.00  0.00    -0.045 C 
BRANCH  15  22
ATOM     16  C   UNL     1       2.586   4.112   0.416  0.00  0.00    +0.044 C 
ATOM     17  C   UNL     1       1.300   3.366   0.165  0.00  0.00    -0.045 A 
ATOM     18  C   UNL     1       0.097   4.049   0.156  0.00  0.00    +0.053 A 
ATOM     19  C   UNL     1      -1.085   3.366  -0.074  0.00  0.00    +0.166 A 
ATOM     20  C   UNL     1      -1.059   1.992  -0.302  0.00  0.00    +0.166 A 
ATOM     21  C   UNL     1       0.149   1.314  -0.288  0.00  0.00    +0.051 A 
ATOM     22  C   UNL     1       1.326   2.003  -0.057  0.00  0.00    -0.058 A 
ATOM     23  O   UNL     1      -2.338   1.558  -0.498  0.00  0.00    -0.453 OA
ATOM     24  C   UNL     1      -3.184   2.607   0.009  0.00  0.00    +0.466 C 
ATOM     25  O   UNL     1      -2.380   3.793  -0.135  0.00  0.00    -0.453 OA
ENDBRANCH  15  22
ENDBRANCH   1  15
TORSDOF 4
