REMARK  Name = ZINC10644852
REMARK  12 active torsions:
REMARK  status: ('A' for Active; 'I' for Inactive)
REMARK    1  A    between atoms: C_1  and  C_2
REMARK    2  A    between atoms: C_4  and  C_29
REMARK    3  A    between atoms: C_8  and  N_28
REMARK    4  A    between atoms: C_9  and  C_11
REMARK    5  A    between atoms: C_11  and  O_13
REMARK    6  A    between atoms: O_13  and  C_14
REMARK    7  A    between atoms: C_14  and  C_15
REMARK    8  A    between atoms: N_17  and  C_18
REMARK    9  A    between atoms: C_20  and  O_26
REMARK   10  A    between atoms: C_23  and  O_24
REMARK   11  A    between atoms: O_24  and  C_25
REMARK   12  A    between atoms: O_26  and  C_27
REMARK                            x       y       z     vdW  Elec       q    Type
REMARK                         _______ _______ _______ _____ _____    ______ ____
ROOT
ATOM      1  C   UNL     1      -1.036   4.910   0.082  0.00  0.00    +0.348 C 
ATOM      2  O   UNL     1      -2.252   4.952   0.129  0.00  0.00    -0.244 OA
ENDROOT
BRANCH   1  11
ATOM      3  C   UNL     1      -1.800  -0.568  -0.050  0.00  0.00    +0.044 C 
ATOM      4  C   UNL     1      -0.361  -0.123  -0.092  0.00  0.00    -0.037 A 
ATOM      5  C   UNL     1       0.654  -1.049  -0.159  0.00  0.00    +0.027 A 
ATOM      6  C   UNL     1       1.977  -0.637  -0.197  0.00  0.00    +0.040 A 
ATOM      7  N   UNL     1       2.279   0.646  -0.170  0.00  0.00    -0.245 NA
ATOM      8  C   UNL     1       1.344   1.570  -0.107  0.00  0.00    +0.111 A 
ATOM      9  C   UNL     1      -0.033   1.254  -0.064  0.00  0.00    +0.032 A 
ATOM     10  C   UNL     1      -0.928   2.400  -0.001  0.00  0.00    +0.056 A 
ATOM     11  C   UNL     1      -0.373   3.662   0.020  0.00  0.00    +0.119 A 
ATOM     12  S   UNL     1       1.379   3.344  -0.056  0.00  0.00    -0.060 S 
ATOM     13  C   UNL     1       3.079  -1.664  -0.270  0.00  0.00    +0.065 C 
BRANCH  10  14
ATOM     14  N   UNL     1      -2.303   2.227   0.039  0.00  0.00    -0.356 N 
ATOM     15  H   UNL     1      -2.855   2.843   0.546  0.00  0.00    +0.142 HD
ATOM     16  H   UNL     1      -2.714   1.489  -0.439  0.00  0.00    +0.142 HD
ENDBRANCH  10  14
ENDBRANCH   1  11
BRANCH   1  17
ATOM     17  O   UNL     1      -0.321   6.055   0.088  0.00  0.00    -0.451 OA
BRANCH  17  18
ATOM     18  C   UNL     1      -1.056   7.279   0.152  0.00  0.00    +0.328 C 
BRANCH  18  19
ATOM     19  C   UNL     1      -0.097   8.441   0.149  0.00  0.00    +0.255 C 
ATOM     20  O   UNL     1       1.099   8.241   0.099  0.00  0.00    -0.272 OA
ATOM     21  N   UNL     1      -0.567   9.703   0.204  0.00  0.00    -0.280 N 
ATOM     22  H   UNL     1      -1.519   9.862   0.298  0.00  0.00    +0.155 HD
BRANCH  21  23
ATOM     23  C   UNL     1       0.320  10.785   0.126  0.00  0.00    +0.079 A 
ATOM     24  C   UNL     1       1.641  10.631   0.519  0.00  0.00    +0.072 A 
ATOM     25  C   UNL     1       2.517  11.702   0.436  0.00  0.00    +0.122 A 
ATOM     26  C   UNL     1       2.070  12.930  -0.030  0.00  0.00    +0.049 A 
ATOM     27  C   UNL     1       0.753  13.088  -0.417  0.00  0.00    +0.051 A 
ATOM     28  C   UNL     1      -0.126  12.020  -0.341  0.00  0.00    +0.141 A 
BRANCH  28  29
ATOM     29  O   UNL     1      -1.422  12.176  -0.723  0.00  0.00    -0.493 OA
ATOM     30  C   UNL     1      -1.809  13.469  -1.191  0.00  0.00    +0.277 C 
ENDBRANCH  28  29
BRANCH  25  31
ATOM     31  O   UNL     1       3.813  11.551   0.817  0.00  0.00    -0.495 OA
ATOM     32  C   UNL     1       4.659  12.697   0.711  0.00  0.00    +0.277 C 
ENDBRANCH  25  31
ENDBRANCH  21  23
ENDBRANCH  18  19
ENDBRANCH  17  18
ENDBRANCH   1  17
TORSDOF 8
