REMARK  Name = ZINC39521266
REMARK  6 active torsions:
REMARK  status: ('A' for Active; 'I' for Inactive)
REMARK    1  A    between atoms: C_1  and  O_2
REMARK    2  A    between atoms: O_2  and  C_3
REMARK    3  A    between atoms: N_9  and  C_10
REMARK    4  A    between atoms: C_15  and  O_16
REMARK    5  A    between atoms: C_20  and  S_23
REMARK    6  A    between atoms: S_23  and  C_26
REMARK                            x       y       z     vdW  Elec       q    Type
REMARK                         _______ _______ _______ _____ _____    ______ ____
ROOT
ATOM      1  C   UNL     1       0.633  -0.843   1.009  0.00  0.00    +0.206 C 
ATOM      2  C   UNL     1       0.989  -2.330   0.923  0.00  0.00    +0.052 C 
ATOM      3  C   UNL     1       1.824  -2.723   2.144  0.00  0.00    +0.006 C 
ATOM      4  C   UNL     1       1.007  -2.495   3.418  0.00  0.00    +0.026 C 
ATOM      5  C   UNL     1       0.649  -1.011   3.531  0.00  0.00    +0.039 C 
ATOM      6  N   UNL     1      -0.025  -0.585   2.298  0.00  0.00    -0.296 N 
ATOM      7  C   UNL     1      -0.283  -0.797   4.724  0.00  0.00    +0.026 C 
ATOM      8  C   UNL     1       0.422  -1.239   6.008  0.00  0.00    +0.004 C 
ATOM      9  C   UNL     1       1.697  -0.416   6.199  0.00  0.00    +0.027 C 
ATOM     10  C   UNL     1       2.630  -0.633   5.006  0.00  0.00    +0.138 C 
ATOM     11  C   UNL     1       1.925  -0.190   3.722  0.00  0.00    +0.052 C 
ENDROOT
BRANCH   6  12
ATOM     12  C   UNL     1      -1.270   0.052   2.349  0.00  0.00    +0.074 A 
ATOM     13  C   UNL     1      -2.432  -0.676   2.135  0.00  0.00    +0.027 A 
ATOM     14  C   UNL     1      -3.661  -0.045   2.186  0.00  0.00    +0.002 A 
ATOM     15  C   UNL     1      -3.736   1.310   2.450  0.00  0.00    +0.004 A 
ATOM     16  C   UNL     1      -2.582   2.042   2.664  0.00  0.00    +0.047 A 
ATOM     17  C   UNL     1      -1.347   1.416   2.619  0.00  0.00    +0.138 A 
BRANCH  17  18
ATOM     18  O   UNL     1      -0.212   2.133   2.835  0.00  0.00    -0.505 OA
ATOM     19  H   UNL     1       0.170   2.515   2.033  0.00  0.00    +0.292 HD
ENDBRANCH  17  18
ENDBRANCH   6  12
BRANCH  10  20
ATOM     20  S   UNL     1       4.142   0.342   5.234  0.00  0.00    -0.000 S 
ATOM     21  O   UNL     1       5.091   0.017   4.228  0.00  0.00    -0.169 OA
ATOM     22  O   UNL     1       3.813   1.697   5.508  0.00  0.00    -0.169 OA
BRANCH  20  23
ATOM     23  C   UNL     1       4.848  -0.261   6.731  0.00  0.00    +0.088 A 
ATOM     24  C   UNL     1       4.502   0.314   7.939  0.00  0.00    +0.027 A 
ATOM     25  C   UNL     1       5.056  -0.160   9.114  0.00  0.00    +0.002 A 
ATOM     26  C   UNL     1       5.957  -1.208   9.080  0.00  0.00    +0.000 A 
ATOM     27  C   UNL     1       6.303  -1.783   7.871  0.00  0.00    +0.002 A 
ATOM     28  C   UNL     1       5.745  -1.312   6.697  0.00  0.00    +0.027 A 
ENDBRANCH  20  23
ENDBRANCH  10  20
BRANCH   1  30
ATOM     29  C   UNL     1      -0.345   0.904  -0.309  0.00  0.00    +0.196 C 
ATOM     30  O   UNL     1      -0.254  -0.500  -0.058  0.00  0.00    -0.362 OA
ENDBRANCH   1  30
TORSDOF 5
