REMARK  Name = ZINC22238247
REMARK  8 active torsions:
REMARK  status: ('A' for Active; 'I' for Inactive)
REMARK    1  A    between atoms: C_1  and  C_2
REMARK    2  A    between atoms: C_5  and  S_7
REMARK    3  A    between atoms: S_7  and  C_8
REMARK    4  A    between atoms: C_8  and  C_9
REMARK    5  A    between atoms: C_12  and  C_15
REMARK    6  A    between atoms: C_15  and  N_17
REMARK    7  A    between atoms: C_20  and  C_23
REMARK    8  A    between atoms: C_23  and  N_24
REMARK                            x       y       z     vdW  Elec       q    Type
REMARK                         _______ _______ _______ _____ _____    ______ ____
ROOT
ATOM      1  C   UNL     1       0.155  -8.815   5.800  0.00  0.00    +0.269 C 
ATOM      2  O   UNL     1       1.219  -9.225   6.232  0.00  0.00    -0.268 OA
ENDROOT
BRANCH   1   3
ATOM      3  N   UNL     1      -0.991  -9.304   6.277  0.00  0.00    -0.152 NA
ATOM      4  C   UNL     1      -0.973 -10.240   7.224  0.00  0.00    +0.163 A 
ATOM      5  N   UNL     1      -2.028 -10.857   7.824  0.00  0.00    -0.341 N 
ATOM      6  C   UNL     1      -1.784 -11.795   8.778  0.00  0.00    +0.008 A 
ATOM      7  C   UNL     1      -0.504 -12.054   9.069  0.00  0.00    +0.067 A 
ATOM      8  S   UNL     1       0.358 -10.951   7.965  0.00  0.00    -0.061 S 
ATOM      9  H   UNL     1      -2.938 -10.631   7.575  0.00  0.00    +0.167 HD
BRANCH   6  10
ATOM     10  C   UNL     1      -2.908 -12.512   9.478  0.00  0.00    -0.024 C 
BRANCH  10  11
ATOM     11  N   UNL     1      -3.683 -11.550  10.273  0.00  0.00    +0.383 N 
ATOM     12  C   UNL     1      -2.836 -11.004  11.340  0.00  0.00    -0.078 C 
ATOM     13  C   UNL     1      -3.613  -9.942  12.121  0.00  0.00    -0.019 C 
ATOM     14  C   UNL     1      -4.862 -10.580  12.735  0.00  0.00    -0.004 C 
ATOM     15  C   UNL     1      -5.702 -11.211  11.621  0.00  0.00    -0.019 C 
ATOM     16  C   UNL     1      -4.847 -12.226  10.858  0.00  0.00    -0.078 C 
ATOM     17  H   UNL     1      -3.997 -10.799   9.678  0.00  0.00    -0.081 HD
ENDBRANCH  10  11
ENDBRANCH   6  10
ENDBRANCH   1   3
BRANCH   1  21
ATOM     18  C   UNL     1       0.098  -5.829   2.776  0.00  0.00    -0.037 A 
ATOM     19  C   UNL     1       1.307  -6.292   3.264  0.00  0.00    +0.005 A 
ATOM     20  C   UNL     1       1.332  -7.261   4.246  0.00  0.00    +0.013 A 
ATOM     21  C   UNL     1       0.136  -7.774   4.746  0.00  0.00    +0.039 A 
ATOM     22  C   UNL     1      -1.080  -7.303   4.250  0.00  0.00    +0.013 A 
ATOM     23  C   UNL     1      -1.092  -6.330   3.272  0.00  0.00    +0.005 A 
BRANCH  18  24
ATOM     24  C   UNL     1       0.078  -4.771   1.703  0.00  0.00    +0.111 C 
BRANCH  24  25
ATOM     25  S   UNL     1       0.058  -3.129   2.474  0.00  0.00    -0.094 S 
BRANCH  25  30
ATOM     26  C   UNL     1      -0.018   1.503   0.010  0.00  0.00    +0.066 C 
ATOM     27  C   UNL     1       0.002  -0.004   0.002  0.00  0.00    +0.047 A 
ATOM     28  C   UNL     1       0.006  -0.705  -1.157  0.00  0.00    +0.070 A 
ATOM     29  S   UNL     1       0.032  -2.378  -0.535  0.00  0.00    -0.069 S 
ATOM     30  C   UNL     1       0.036  -2.016   1.108  0.00  0.00    +0.135 A 
ATOM     31  N   UNL     1       0.023  -0.700   1.125  0.00  0.00    -0.238 NA
ENDBRANCH  25  30
ENDBRANCH  24  25
ENDBRANCH  18  24
ENDBRANCH   1  21
TORSDOF 7
