REMARK  Name = ZINC12677835
REMARK  10 active torsions:
REMARK  status: ('A' for Active; 'I' for Inactive)
REMARK    1  A    between atoms: C_1  and  C_2
REMARK    2  A    between atoms: C_2  and  C_3
REMARK    3  A    between atoms: C_12  and  C_13
REMARK    4  A    between atoms: C_13  and  C_15
REMARK    5  A    between atoms: C_15  and  O_16
REMARK    6  A    between atoms: O_16  and  C_17
REMARK    7  A    between atoms: C_17  and  C_19
REMARK    8  A    between atoms: C_22  and  C_29
REMARK    9  A    between atoms: C_23  and  S_25
REMARK   10  A    between atoms: S_25  and  N_28
REMARK                            x       y       z     vdW  Elec       q    Type
REMARK                         _______ _______ _______ _____ _____    ______ ____
ROOT
ATOM      1  O   UNL     1       1.301   5.569   0.019  0.00  0.00    -0.453 OA
ENDROOT
BRANCH   1   2
ATOM      2  C   UNL     1       0.510   6.659   0.032  0.00  0.00    +0.340 C 
ATOM      3  O   UNL     1      -0.698   6.532   0.043  0.00  0.00    -0.245 OA
BRANCH   2   4
ATOM      4  C   UNL     1       1.112   8.008   0.033  0.00  0.00    +0.061 A 
ATOM      5  C   UNL     1       2.500   8.157   0.026  0.00  0.00    +0.015 A 
ATOM      6  C   UNL     1       3.055   9.419   0.021  0.00  0.00    +0.006 A 
ATOM      7  C   UNL     1       2.240  10.537   0.035  0.00  0.00    -0.024 A 
ATOM      8  C   UNL     1       0.863  10.397   0.048  0.00  0.00    +0.109 A 
ATOM      9  C   UNL     1       0.295   9.140   0.047  0.00  0.00    +0.043 A 
ATOM     10  C   UNL     1       2.853  11.914   0.035  0.00  0.00    +0.046 C 
BRANCH   8  11
ATOM     11  S   UNL     1      -0.166  11.827   0.065  0.00  0.00    +0.056 S 
ATOM     12  O   UNL     1       0.314  12.685  -0.961  0.00  0.00    -0.153 OA
ATOM     13  O   UNL     1      -1.508  11.361   0.103  0.00  0.00    -0.153 OA
BRANCH  11  14
ATOM     14  N   UNL     1       0.105  12.608   1.500  0.00  0.00    -0.204 NA
ATOM     15  H   UNL     1       0.740  12.245   2.137  0.00  0.00    +0.144 HD
ATOM     16  H   UNL     1      -0.372  13.428   1.704  0.00  0.00    +0.144 HD
ENDBRANCH  11  14
ENDBRANCH   8  11
ENDBRANCH   2   4
ENDBRANCH   1   2
BRANCH   1  17
ATOM     17  C   UNL     1       0.641   4.275   0.018  0.00  0.00    +0.312 C 
BRANCH  17  18
ATOM     18  C   UNL     1       1.679   3.182   0.003  0.00  0.00    +0.202 C 
ATOM     19  O   UNL     1       2.859   3.465  -0.007  0.00  0.00    -0.288 OA
BRANCH  18  29
ATOM     20  C   UNL     1       1.845  -1.754  -0.025  0.00  0.00    -0.024 A 
ATOM     21  C   UNL     1       3.214  -1.918  -0.040  0.00  0.00    +0.005 A 
ATOM     22  C   UNL     1       4.058  -0.817  -0.042  0.00  0.00    +0.001 A 
ATOM     23  C   UNL     1       3.535   0.458  -0.030  0.00  0.00    +0.011 A 
ATOM     24  C   UNL     1       2.156   0.638  -0.015  0.00  0.00    +0.011 A 
ATOM     25  C   UNL     1       1.300  -0.475  -0.013  0.00  0.00    +0.050 A 
ATOM     26  N   UNL     1       0.002  -0.004   0.002  0.00  0.00    -0.360 N 
ATOM     27  H   UNL     1      -0.788  -0.566   0.006  0.00  0.00    +0.165 HD
ATOM     28  C   UNL     1      -0.016   1.343   0.009  0.00  0.00    +0.095 A 
ATOM     29  C   UNL     1       1.276   1.823  -0.000  0.00  0.00    +0.046 A 
BRANCH  20  31
ATOM     30  C   UNL     1       0.521  -3.284  -1.459  0.00  0.00    +0.009 C 
ATOM     31  C   UNL     1       0.942  -2.960  -0.024  0.00  0.00    +0.034 C 
ENDBRANCH  20  31
ENDBRANCH  18  29
ENDBRANCH  17  18
ENDBRANCH   1  17
TORSDOF 8
