REMARK  Name = ZINC20883921
REMARK  8 active torsions:
REMARK  status: ('A' for Active; 'I' for Inactive)
REMARK    1  A    between atoms: C_1  and  C_2
REMARK    2  A    between atoms: C_2  and  N_3
REMARK    3  A    between atoms: C_12  and  S_13
REMARK    4  A    between atoms: S_13  and  C_14
REMARK    5  A    between atoms: C_14  and  C_16
REMARK    6  A    between atoms: C_14  and  C_17
REMARK    7  A    between atoms: N_19  and  C_20
REMARK    8  A    between atoms: C_28  and  C_32
REMARK                            x       y       z     vdW  Elec       q    Type
REMARK                         _______ _______ _______ _____ _____    ______ ____
ROOT
ATOM      1  N   UNL     1       0.018   1.065   2.439  0.00  0.00    -0.288 N 
ATOM      2  C   UNL     1       1.009   1.806   2.969  0.00  0.00    +0.263 A 
ATOM      3  O   UNL     1       1.317   2.874   2.470  0.00  0.00    -0.267 OA
ATOM      4  C   UNL     1       1.695   1.322   4.128  0.00  0.00    +0.076 A 
ATOM      5  C   UNL     1       2.791   1.956   4.863  0.00  0.00    -0.023 A 
ATOM      6  C   UNL     1       3.275   1.292   5.933  0.00  0.00    -0.004 A 
ATOM      7  S   UNL     1       2.313  -0.194   6.026  0.00  0.00    -0.073 S 
ATOM      8  C   UNL     1       1.262   0.081   4.622  0.00  0.00    +0.117 A 
ATOM      9  N   UNL     1       0.276  -0.602   4.052  0.00  0.00    -0.216 NA
ATOM     10  C   UNL     1      -0.343  -0.131   2.988  0.00  0.00    +0.173 A 
ATOM     11  C   UNL     1       4.384   1.723   6.843  0.00  0.00    +0.046 C 
ATOM     12  C   UNL     1       5.150   2.869   6.165  0.00  0.00    -0.009 C 
ATOM     13  C   UNL     1       4.139   3.893   5.641  0.00  0.00    +0.008 C 
ATOM     14  C   UNL     1       3.374   3.306   4.454  0.00  0.00    +0.037 C 
ATOM     15  C   UNL     1       6.080   3.538   7.178  0.00  0.00    +0.008 C 
ENDROOT
BRANCH   1  17
ATOM     16  C   UNL     1       0.020   1.054  -0.007  0.00  0.00    +0.027 C 
ATOM     17  C   UNL     1      -0.689   1.554   1.253  0.00  0.00    +0.124 C 
ENDBRANCH   1  17
BRANCH  10  18
ATOM     18  S   UNL     1      -1.652  -1.061   2.261  0.00  0.00    -0.075 S 
BRANCH  18  19
ATOM     19  C   UNL     1      -1.678  -2.489   3.373  0.00  0.00    +0.137 C 
ATOM     20  C   UNL     1      -0.365  -3.263   3.240  0.00  0.00    +0.029 C 
BRANCH  19  21
ATOM     21  C   UNL     1      -2.830  -3.389   3.009  0.00  0.00    +0.230 C 
ATOM     22  O   UNL     1      -3.275  -3.378   1.880  0.00  0.00    -0.274 OA
ATOM     23  N   UNL     1      -3.368  -4.205   3.936  0.00  0.00    -0.282 N 
ATOM     24  H   UNL     1      -2.919  -4.269   4.939  0.00  0.00    +0.155 HD
BRANCH  23  25
ATOM     25  C   UNL     1      -4.497  -4.972   3.624  0.00  0.00    +0.069 A 
ATOM     26  C   UNL     1      -4.659  -5.482   2.344  0.00  0.00    +0.026 A 
ATOM     27  C   UNL     1      -5.772  -6.243   2.040  0.00  0.00    +0.002 A 
ATOM     28  C   UNL     1      -6.729  -6.489   3.007  0.00  0.00    +0.003 A 
ATOM     29  C   UNL     1      -6.574  -5.979   4.283  0.00  0.00    +0.040 A 
ATOM     30  C   UNL     1      -5.461  -5.220   4.595  0.00  0.00    +0.144 A 
ATOM     31  F   UNL     1      -5.310  -4.721   5.842  0.00  0.00    -0.204 F 
ENDBRANCH  23  25
ENDBRANCH  19  21
ENDBRANCH  18  19
ENDBRANCH  10  18
TORSDOF 5
