REMARK  Name = ZINC63201692
REMARK  3 active torsions:
REMARK  status: ('A' for Active; 'I' for Inactive)
REMARK    1  A    between atoms: C_3  and  N_17
REMARK    2  A    between atoms: C_4  and  N_8
REMARK    3  A    between atoms: C_9  and  C_11
REMARK                            x       y       z     vdW  Elec       q    Type
REMARK                         _______ _______ _______ _____ _____    ______ ____
ROOT
ATOM      1  C   UNL     1      -0.023   1.368   0.040  0.00  0.00    +0.040 A 
ATOM      2  C   UNL     1       1.160   2.083   0.025  0.00  0.00    +0.027 A 
ATOM      3  C   UNL     1       2.375   1.414  -0.001  0.00  0.00    +0.046 A 
ATOM      4  C   UNL     1       2.399   0.020  -0.011  0.00  0.00    +0.057 A 
ATOM      5  C   UNL     1       1.209  -0.691   0.004  0.00  0.00    +0.063 A 
ATOM      6  C   UNL     1       0.000  -0.016   0.029  0.00  0.00    +0.125 A 
ATOM      7  F   UNL     1      -1.159  -0.710   0.044  0.00  0.00    -0.205 F 
ENDROOT
BRANCH   4   8
ATOM      8  N   UNL     1       3.623  -0.661  -0.037  0.00  0.00    -0.279 N 
ATOM      9  C   UNL     1       3.689  -1.910  -0.538  0.00  0.00    +0.255 C 
ATOM     10  O   UNL     1       2.708  -2.410  -1.059  0.00  0.00    -0.269 OA
ATOM     11  H   UNL     1       4.423  -0.233   0.305  0.00  0.00    +0.155 HD
BRANCH   9  12
ATOM     12  C   UNL     1       4.940  -2.667  -0.456  0.00  0.00    +0.076 A 
ATOM     13  C   UNL     1       5.218  -3.949  -0.909  0.00  0.00    +0.022 A 
ATOM     14  C   UNL     1       6.497  -4.396  -0.687  0.00  0.00    +0.028 A 
ATOM     15  C   UNL     1       7.381  -3.580  -0.057  0.00  0.00    +0.079 A 
ATOM     16  S   UNL     1       6.504  -2.179   0.245  0.00  0.00    -0.072 S 
ATOM     17 CL   UNL     1       9.040  -3.906   0.338  0.00  0.00    -0.076 Cl
ENDBRANCH   9  12
ENDBRANCH   4   8
BRANCH   3  18
ATOM     18  N   UNL     1       3.574   2.138  -0.016  0.00  0.00    -0.357 N 
ATOM     19  H   UNL     1       3.555   3.107  -0.009  0.00  0.00    +0.142 HD
ATOM     20  H   UNL     1       4.423   1.669  -0.034  0.00  0.00    +0.142 HD
ENDBRANCH   3  18
TORSDOF 3
