REMARK  Name = ZINC40160707
REMARK  11 active torsions:
REMARK  status: ('A' for Active; 'I' for Inactive)
REMARK    1  A    between atoms: C_1  and  N_2
REMARK    2  A    between atoms: N_5  and  C_8
REMARK    3  A    between atoms: C_8  and  C_10
REMARK    4  A    between atoms: C_8  and  C_29
REMARK    5  A    between atoms: C_10  and  N_11
REMARK    6  A    between atoms: N_11  and  C_12
REMARK    7  A    between atoms: C_12  and  C_13
REMARK    8  A    between atoms: C_13  and  C_15
REMARK    9  A    between atoms: C_13  and  O_28
REMARK   10  A    between atoms: C_15  and  O_16
REMARK   11  A    between atoms: O_16  and  C_17
REMARK                            x       y       z     vdW  Elec       q    Type
REMARK                         _______ _______ _______ _____ _____    ______ ____
ROOT
ATOM      1  N   UNL     1       3.387  -3.201   1.182  0.00  0.00    +0.382 N 
ATOM      2  H   UNL     1       3.838  -3.712   0.438  0.00  0.00    -0.086 HD
ATOM      3  H   UNL     1       3.341  -2.223   0.939  0.00  0.00    -0.086 HD
ENDROOT
BRANCH   1   4
ATOM      4  C   UNL     1       2.028  -3.720   1.381  0.00  0.00    -0.058 C 
BRANCH   4   5
ATOM      5  C   UNL     1       1.225  -3.554   0.089  0.00  0.00    +0.076 C 
BRANCH   5  10
ATOM      6  C   UNL     1       0.178   1.809  -1.286  0.00  0.00    -0.096 C 
ATOM      7  N   UNL     1       0.091   0.407  -0.857  0.00  0.00    +0.379 N 
ATOM      8  C   UNL     1       0.526  -0.468  -1.954  0.00  0.00    -0.064 C 
ATOM      9  C   UNL     1       0.417  -1.930  -1.515  0.00  0.00    +0.066 C 
ATOM     10  N   UNL     1       1.258  -2.146  -0.330  0.00  0.00    -0.300 NA
ATOM     11  C   UNL     1       0.850  -1.260   0.769  0.00  0.00    +0.066 C 
ATOM     12  C   UNL     1       0.956   0.197   0.311  0.00  0.00    -0.064 C 
ATOM     13  H   UNL     1      -0.864   0.189  -0.613  0.00  0.00    -0.082 HD
ENDBRANCH   5  10
BRANCH   5  14
ATOM     14  C   UNL     1      -0.203  -3.973   0.328  0.00  0.00    +0.005 A 
ATOM     15  C   UNL     1      -0.859  -5.067  -0.129  0.00  0.00    +0.013 A 
ATOM     16  C   UNL     1      -2.183  -5.251   0.223  0.00  0.00    +0.008 A 
ATOM     17  C   UNL     1      -2.787  -4.330   1.014  0.00  0.00    +0.045 A 
ATOM     18  S   UNL     1      -1.467  -3.161   1.292  0.00  0.00    -0.100 S 
ENDBRANCH   5  14
ENDBRANCH   4   5
ENDBRANCH   1   4
BRANCH   1  19
ATOM     19  C   UNL     1       4.159  -3.361   2.422  0.00  0.00    -0.049 C 
BRANCH  19  20
ATOM     20  C   UNL     1       5.575  -2.819   2.216  0.00  0.00    +0.123 C 
BRANCH  20  21
ATOM     21  O   UNL     1       6.212  -3.543   1.161  0.00  0.00    -0.391 OA
ATOM     22  H   UNL     1       6.291  -4.492   1.328  0.00  0.00    +0.210 HD
ENDBRANCH  20  21
BRANCH  20  23
ATOM     23  C   UNL     1       6.378  -2.986   3.507  0.00  0.00    +0.190 C 
BRANCH  23  24
ATOM     24  O   UNL     1       7.661  -2.376   3.352  0.00  0.00    -0.369 OA
BRANCH  24  25
ATOM     25  C   UNL     1       8.531  -2.560   4.471  0.00  0.00    +0.149 C 
ATOM     26  C   UNL     1       8.277  -1.454   5.493  0.00  0.00    +0.037 C 
ATOM     27  C   UNL     1       9.360  -1.539   6.576  0.00  0.00    +0.007 C 
ATOM     28  C   UNL     1      10.690  -1.108   5.961  0.00  0.00    +0.035 C 
ATOM     29  C   UNL     1      10.953  -1.864   4.685  0.00  0.00    -0.042 A 
ATOM     30  C   UNL     1       9.961  -2.527   3.999  0.00  0.00    -0.016 A 
ATOM     31  C   UNL     1      10.270  -3.199   2.824  0.00  0.00    +0.006 A 
ATOM     32  C   UNL     1      11.562  -3.210   2.341  0.00  0.00    +0.000 A 
ATOM     33  C   UNL     1      12.559  -2.547   3.032  0.00  0.00    +0.000 A 
ATOM     34  C   UNL     1      12.254  -1.879   4.199  0.00  0.00    +0.004 A 
ENDBRANCH  24  25
ENDBRANCH  23  24
ENDBRANCH  20  23
ENDBRANCH  19  20
ENDBRANCH   1  19
TORSDOF 10
