REMARK  Name = ZINC02435620
REMARK  3 active torsions:
REMARK  status: ('A' for Active; 'I' for Inactive)
REMARK    1  A    between atoms: C_4  and  N_7
REMARK    2  A    between atoms: C_13  and  C_21
REMARK    3  A    between atoms: C_15  and  C_19
REMARK                            x       y       z     vdW  Elec       q    Type
REMARK                         _______ _______ _______ _____ _____    ______ ____
ROOT
ATOM      1  N   UNL     1      -2.427  -0.238  -0.448  0.00  0.00    -0.304 N 
ATOM      2  C   UNL     1      -1.114  -0.832  -0.418  0.00  0.00    +0.222 C 
ATOM      3  N   UNL     1       0.002  -0.004   0.002  0.00  0.00    -0.248 N 
ATOM      4  C   UNL     1       1.137  -0.646   0.381  0.00  0.00    +0.222 C 
ATOM      5  O   UNL     1       1.169  -1.858   0.366  0.00  0.00    -0.275 OA
ATOM      6  C   UNL     1       2.355   0.119   0.818  0.00  0.00    +0.110 C 
ATOM      7  C   UNL     1       2.470   1.405  -0.006  0.00  0.00    +0.070 C 
ATOM      8  C   UNL     1       1.133   2.101   0.003  0.00  0.00    +0.065 C 
ATOM      9  C   UNL     1      -0.017   1.375   0.010  0.00  0.00    +0.087 C 
ATOM     10  S   UNL     1      -1.568   2.223   0.055  0.00  0.00    -0.090 S 
ATOM     11  C   UNL     1      -2.498   1.103  -1.032  0.00  0.00    +0.182 C 
ENDROOT
BRANCH   7  12
ATOM     12  C   UNL     1       3.514   2.304   0.604  0.00  0.00    -0.039 A 
ATOM     13  C   UNL     1       3.362   2.759   1.901  0.00  0.00    +0.006 A 
ATOM     14  C   UNL     1       4.321   3.580   2.463  0.00  0.00    +0.020 A 
ATOM     15  C   UNL     1       5.429   3.955   1.723  0.00  0.00    +0.041 A 
ATOM     16  C   UNL     1       5.578   3.505   0.424  0.00  0.00    +0.020 A 
ATOM     17  C   UNL     1       4.620   2.679  -0.135  0.00  0.00    +0.006 A 
ATOM     18 CL   UNL     1       6.631   4.992   2.426  0.00  0.00    -0.084 Cl
ENDBRANCH   7  12
BRANCH   1  22
ATOM     19  C   UNL     1      -5.179  -2.794  -2.245  0.00  0.00    +0.000 A 
ATOM     20  C   UNL     1      -5.589  -1.560  -1.775  0.00  0.00    +0.002 A 
ATOM     21  C   UNL     1      -4.679  -0.710  -1.178  0.00  0.00    +0.023 A 
ATOM     22  C   UNL     1      -3.351  -1.096  -1.050  0.00  0.00    +0.032 A 
ATOM     23  C   UNL     1      -2.941  -2.334  -1.528  0.00  0.00    +0.023 A 
ATOM     24  C   UNL     1      -3.858  -3.182  -2.119  0.00  0.00    +0.002 A 
ENDBRANCH   1  22
BRANCH   8  25
ATOM     25  C   UNL     1       1.074   3.532   0.003  0.00  0.00    +0.098 C 
ATOM     26  N   UNL     1       1.027   4.667   0.004  0.00  0.00    -0.191 NA
ENDBRANCH   8  25
TORSDOF 3
