REMARK  Name = ZINC63540933
REMARK  10 active torsions:
REMARK  status: ('A' for Active; 'I' for Inactive)
REMARK    1  A    between atoms: C_1  and  C_2
REMARK    2  A    between atoms: C_4  and  O_12
REMARK    3  A    between atoms: C_5  and  C_9
REMARK    4  A    between atoms: C_9  and  C_10
REMARK    5  A    between atoms: C_9  and  C_11
REMARK    6  A    between atoms: O_12  and  C_13
REMARK    7  A    between atoms: C_13  and  C_14
REMARK    8  A    between atoms: C_16  and  C_22
REMARK    9  A    between atoms: C_19  and  O_20
REMARK   10  A    between atoms: O_20  and  C_21
REMARK                            x       y       z     vdW  Elec       q    Type
REMARK                         _______ _______ _______ _____ _____    ______ ____
ROOT
ATOM      1  C   UNL     1       0.013  -2.879  -4.780  0.00  0.00    +0.032 A 
ATOM      2  C   UNL     1       0.027  -4.249  -4.606  0.00  0.00    +0.015 A 
ATOM      3  C   UNL     1       0.037  -5.087  -5.705  0.00  0.00    -0.028 A 
ATOM      4  C   UNL     1       0.033  -4.556  -6.982  0.00  0.00    +0.009 A 
ATOM      5  C   UNL     1       0.019  -3.187  -7.162  0.00  0.00    +0.046 A 
ATOM      6  C   UNL     1       0.004  -2.344  -6.060  0.00  0.00    +0.126 A 
ENDROOT
BRANCH   3   7
ATOM      7  C   UNL     1       0.053  -6.581  -5.512  0.00  0.00    +0.111 C 
ATOM      8  C   UNL     1       1.222  -7.189  -6.290  0.00  0.00    +0.128 C 
ATOM      9  C   UNL     1       0.913  -6.967  -7.766  0.00  0.00    -0.035 C 
ATOM     10  C   UNL     1       1.967  -6.350  -8.282  0.00  0.00    -0.001 A 
ATOM     11  C   UNL     1       2.294  -5.952  -9.661  0.00  0.00    +0.010 A 
ATOM     12  C   UNL     1       3.480  -5.310  -9.834  0.00  0.00    +0.001 A 
ATOM     13  C   UNL     1       4.362  -5.028  -8.787  0.00  0.00    +0.002 A 
ATOM     14  C   UNL     1       4.145  -5.362  -7.490  0.00  0.00    +0.026 A 
ATOM     15  C   UNL     1       2.934  -6.047  -7.182  0.00  0.00    +0.043 A 
ATOM     16  N   UNL     1       2.489  -6.507  -6.029  0.00  0.00    -0.376 N 
ATOM     17  C   UNL     1      -0.424  -7.341  -8.360  0.00  0.00    +0.048 C 
ATOM     18  C   UNL     1      -1.491  -6.769  -7.409  0.00  0.00    +0.086 C 
ATOM     19  N   UNL     1      -1.197  -7.161  -6.026  0.00  0.00    -0.307 NA
ATOM     20  H   UNL     1      -1.198  -8.165  -5.928  0.00  0.00    +0.123 HD
ATOM     21  H   UNL     1       2.913  -6.410  -5.162  0.00  0.00    +0.160 HD
ENDBRANCH   3   7
BRANCH   6  22
ATOM     22  O   UNL     1      -0.016  -0.996  -6.234  0.00  0.00    -0.495 OA
ATOM     23  C   UNL     1      -0.026  -0.516  -7.580  0.00  0.00    +0.277 C 
ENDBRANCH   6  22
BRANCH   1  24
ATOM     24  C   UNL     1       0.003  -1.966  -3.581  0.00  0.00    +0.268 C 
BRANCH  24  25
ATOM     25  O   UNL     1       0.017  -2.749  -2.386  0.00  0.00    -0.487 OA
BRANCH  25  29
ATOM     26  C   UNL     1      -0.038   1.503   0.010  0.00  0.00    +0.045 C 
ATOM     27  C   UNL     1      -0.017  -0.004   0.002  0.00  0.00    -0.029 A 
ATOM     28  C   UNL     1      -0.010  -0.688  -1.198  0.00  0.00    +0.050 A 
ATOM     29  C   UNL     1       0.010  -2.075  -1.206  0.00  0.00    +0.125 A 
ATOM     30  C   UNL     1       0.021  -2.773  -0.007  0.00  0.00    -0.002 A 
ATOM     31  C   UNL     1       0.014  -2.086   1.192  0.00  0.00    +0.027 A 
ATOM     32  C   UNL     1       0.000  -0.702   1.197  0.00  0.00    +0.044 A 
ATOM     33 CL   UNL     1      -0.002   0.160   2.704  0.00  0.00    -0.083 Cl
BRANCH  30  34
ATOM     34  C   UNL     1       0.042  -4.280  -0.011  0.00  0.00    +0.016 C 
ATOM     35  C   UNL     1       1.299  -4.775   0.706  0.00  0.00    +0.012 C 
ATOM     36  C   UNL     1      -1.199  -4.809   0.710  0.00  0.00    +0.012 C 
ENDBRANCH  30  34
ENDBRANCH  25  29
ENDBRANCH  24  25
ENDBRANCH   1  24
TORSDOF 6
