REMARK  Name = ZINC04953691
REMARK  8 active torsions:
REMARK  status: ('A' for Active; 'I' for Inactive)
REMARK    1  A    between atoms: C_1  and  C_2
REMARK    2  A    between atoms: C_11  and  C_13
REMARK    3  A    between atoms: N_15  and  C_16
REMARK    4  A    between atoms: N_15  and  C_17
REMARK    5  A    between atoms: C_20  and  O_25
REMARK    6  A    between atoms: C_22  and  O_23
REMARK    7  A    between atoms: O_23  and  C_24
REMARK    8  A    between atoms: O_25  and  C_26
REMARK                            x       y       z     vdW  Elec       q    Type
REMARK                         _______ _______ _______ _____ _____    ______ ____
ROOT
ATOM      1  C   UNL     1       3.962   8.868  -0.367  0.00  0.00    +0.044 C 
ATOM      2  C   UNL     1       4.447   7.446  -0.249  0.00  0.00    -0.050 A 
ATOM      3  C   UNL     1       5.807   7.184  -0.177  0.00  0.00    +0.005 A 
ATOM      4  C   UNL     1       6.266   5.889  -0.068  0.00  0.00    +0.026 A 
ATOM      5  C   UNL     1       5.366   4.831  -0.030  0.00  0.00    +0.050 A 
ATOM      6  C   UNL     1       3.984   5.094  -0.105  0.00  0.00    +0.013 A 
ATOM      7  C   UNL     1       3.537   6.413  -0.215  0.00  0.00    +0.014 A 
ATOM      8  C   UNL     1       3.055   3.976  -0.063  0.00  0.00    +0.034 A 
ATOM      9  C   UNL     1       3.514   2.649   0.050  0.00  0.00    +0.055 A 
ATOM     10  C   UNL     1       2.517   1.668   0.086  0.00  0.00    +0.034 A 
ATOM     11  C   UNL     1       1.203   2.028   0.002  0.00  0.00    +0.076 A 
ATOM     12  S   UNL     1       1.291   3.807  -0.120  0.00  0.00    -0.083 S 
ATOM     13  C   UNL     1       4.983   2.477   0.120  0.00  0.00    +0.257 A 
ATOM     14  O   UNL     1       5.448   1.355   0.218  0.00  0.00    -0.267 OA
ATOM     15  N   UNL     1       5.812   3.528   0.079  0.00  0.00    -0.322 N 
ATOM     16  H   UNL     1       6.797   3.363   0.131  0.00  0.00    +0.169 HD
ENDROOT
BRANCH  11  17
ATOM     17  C   UNL     1       0.015   1.168   0.016  0.00  0.00    +0.257 C 
ATOM     18  O   UNL     1       0.140  -0.043   0.011  0.00  0.00    -0.269 OA
ATOM     19  N   UNL     1      -1.215   1.718   0.030  0.00  0.00    -0.267 N 
ATOM     20  C   UNL     1      -2.399   0.863   0.145  0.00  0.00    +0.139 C 
BRANCH  19  21
ATOM     21  C   UNL     1      -1.362   3.109  -0.066  0.00  0.00    +0.078 A 
ATOM     22  C   UNL     1      -1.487   3.710  -1.310  0.00  0.00    +0.031 A 
ATOM     23  C   UNL     1      -1.632   5.081  -1.405  0.00  0.00    +0.047 A 
ATOM     24  C   UNL     1      -1.653   5.860  -0.257  0.00  0.00    +0.124 A 
ATOM     25  C   UNL     1      -1.528   5.264   0.989  0.00  0.00    +0.093 A 
ATOM     26  C   UNL     1      -1.388   3.889   1.088  0.00  0.00    +0.145 A 
BRANCH  26  27
ATOM     27  O   UNL     1      -1.271   3.303   2.309  0.00  0.00    -0.493 OA
ATOM     28  C   UNL     1      -1.306   4.164   3.449  0.00  0.00    +0.277 C 
ENDBRANCH  26  27
BRANCH  24  29
ATOM     29  O   UNL     1      -1.796   7.208  -0.353  0.00  0.00    -0.495 OA
ATOM     30  C   UNL     1      -1.920   7.755  -1.668  0.00  0.00    +0.277 C 
ENDBRANCH  24  29
ENDBRANCH  19  21
ENDBRANCH  11  17
TORSDOF 4
