REMARK  Name = ZINC10048843
REMARK  11 active torsions:
REMARK  status: ('A' for Active; 'I' for Inactive)
REMARK    1  A    between atoms: C_1  and  C_2
REMARK    2  A    between atoms: C_2  and  C_3
REMARK    3  A    between atoms: C_8  and  N_9
REMARK    4  A    between atoms: C_10  and  C_35
REMARK    5  A    between atoms: N_19  and  C_24
REMARK    6  A    between atoms: N_22  and  C_23
REMARK    7  A    between atoms: C_24  and  C_25
REMARK    8  A    between atoms: C_25  and  C_26
REMARK    9  A    between atoms: C_26  and  N_27
REMARK   10  A    between atoms: N_27  and  C_28
REMARK   11  A    between atoms: C_33  and  O_34
REMARK                            x       y       z     vdW  Elec       q    Type
REMARK                         _______ _______ _______ _____ _____    ______ ____
ROOT
ATOM      1  N   UNL     1      -1.853   5.372  -7.903  0.00  0.00    -0.282 N 
ATOM      2  C   UNL     1      -0.851   6.178  -7.393  0.00  0.00    +0.040 A 
ATOM      3  C   UNL     1      -0.332   5.572  -6.329  0.00  0.00    +0.116 A 
ATOM      4  N   UNL     1      -0.995   4.372  -6.144  0.00  0.00    -0.277 N 
ATOM      5  C   UNL     1      -1.931   4.251  -7.114  0.00  0.00    +0.223 A 
ATOM      6  N   UNL     1      -2.579   3.107  -6.957  0.00  0.00    -0.193 NA
ATOM      7  C   UNL     1      -2.100   2.455  -5.901  0.00  0.00    +0.170 A 
ATOM      8  C   UNL     1      -1.082   3.235  -5.354  0.00  0.00    +0.157 A 
ATOM      9  C   UNL     1      -0.401   2.772  -4.216  0.00  0.00    +0.283 A 
ATOM     10  O   UNL     1       0.492   3.437  -3.720  0.00  0.00    -0.265 OA
ATOM     11  N   UNL     1      -0.745   1.585  -3.677  0.00  0.00    -0.259 N 
ATOM     12  C   UNL     1      -1.724   0.836  -4.215  0.00  0.00    +0.333 A 
ATOM     13  O   UNL     1      -2.002  -0.232  -3.704  0.00  0.00    -0.246 OA
ATOM     14  N   UNL     1      -2.407   1.242  -5.302  0.00  0.00    -0.279 N 
ATOM     15  C   UNL     1      -3.471   0.401  -5.855  0.00  0.00    +0.155 C 
ATOM     16  C   UNL     1      -0.421   7.512  -7.948  0.00  0.00    +0.065 C 
ENDROOT
BRANCH   1  22
ATOM     17  C   UNL     1      -2.236   5.241 -10.284  0.00  0.00    -0.024 A 
ATOM     18  C   UNL     1      -3.023   5.513 -11.386  0.00  0.00    +0.005 A 
ATOM     19  C   UNL     1      -4.213   6.200 -11.235  0.00  0.00    +0.000 A 
ATOM     20  C   UNL     1      -4.622   6.613  -9.980  0.00  0.00    +0.002 A 
ATOM     21  C   UNL     1      -3.842   6.340  -8.874  0.00  0.00    +0.026 A 
ATOM     22  C   UNL     1      -2.646   5.650  -9.022  0.00  0.00    +0.053 A 
BRANCH  17  24
ATOM     23  C   UNL     1      -1.166   3.005 -10.204  0.00  0.00    +0.009 C 
ATOM     24  C   UNL     1      -0.936   4.498 -10.451  0.00  0.00    +0.034 C 
ENDBRANCH  17  24
ENDBRANCH   1  22
BRANCH  11  25
ATOM     25  C   UNL     1      -0.037   1.099  -2.490  0.00  0.00    +0.131 C 
BRANCH  25  26
ATOM     26  C   UNL     1      -0.753   1.593  -1.232  0.00  0.00    +0.040 C 
BRANCH  26  27
ATOM     27  C   UNL     1      -0.013   1.086   0.008  0.00  0.00    +0.103 C 
BRANCH  27  28
ATOM     28  N   UNL     1      -0.698   1.558   1.213  0.00  0.00    -0.341 N 
ATOM     29  H   UNL     1      -1.495   2.106   1.135  0.00  0.00    +0.146 HD
BRANCH  28  30
ATOM     30  C   UNL     1      -0.204   1.220   2.478  0.00  0.00    +0.069 A 
ATOM     31  C   UNL     1       0.933   0.432   2.592  0.00  0.00    +0.026 A 
ATOM     32  C   UNL     1       1.422   0.104   3.843  0.00  0.00    +0.002 A 
ATOM     33  C   UNL     1       0.776   0.549   4.981  0.00  0.00    +0.004 A 
ATOM     34  C   UNL     1      -0.360   1.330   4.875  0.00  0.00    +0.047 A 
ATOM     35  C   UNL     1      -0.854   1.668   3.626  0.00  0.00    +0.138 A 
BRANCH  35  36
ATOM     36  O   UNL     1      -1.972   2.435   3.519  0.00  0.00    -0.505 OA
ATOM     37  H   UNL     1      -2.796   1.929   3.490  0.00  0.00    +0.292 HD
ENDBRANCH  35  36
ENDBRANCH  28  30
ENDBRANCH  27  28
ENDBRANCH  26  27
ENDBRANCH  25  26
ENDBRANCH  11  25
TORSDOF 8
