REMARK  Name = ZINC60142632
REMARK  9 active torsions:
REMARK  status: ('A' for Active; 'I' for Inactive)
REMARK    1  A    between atoms: C_1  and  C_2
REMARK    2  A    between atoms: C_6  and  O_9
REMARK    3  A    between atoms: C_7  and  C_8
REMARK    4  A    between atoms: O_9  and  C_10
REMARK    5  A    between atoms: C_10  and  C_12
REMARK    6  A    between atoms: C_10  and  C_13
REMARK    7  A    between atoms: N_15  and  N_16
REMARK    8  A    between atoms: C_17  and  C_19
REMARK    9  A    between atoms: C_23  and  N_25
REMARK                            x       y       z     vdW  Elec       q    Type
REMARK                         _______ _______ _______ _____ _____    ______ ____
ROOT
ATOM      1  N   UNL     1       2.247  -6.651   4.501  0.00  0.00    -0.230 N 
ATOM      2  C   UNL     1       2.368  -7.990   4.594  0.00  0.00    +0.260 C 
ATOM      3  O   UNL     1       2.386  -8.670   3.587  0.00  0.00    -0.269 OA
ATOM      4  H   UNL     1       2.233  -6.108   5.305  0.00  0.00    +0.173 HD
ENDROOT
BRANCH   2   5
ATOM      5  C   UNL     1       2.480  -8.632   5.921  0.00  0.00    +0.040 A 
ATOM      6  C   UNL     1       2.454  -7.854   7.080  0.00  0.00    +0.013 A 
ATOM      7  C   UNL     1       2.559  -8.455   8.318  0.00  0.00    +0.003 A 
ATOM      8  C   UNL     1       2.689  -9.828   8.415  0.00  0.00    +0.025 A 
ATOM      9  C   UNL     1       2.716 -10.611   7.268  0.00  0.00    +0.057 A 
ATOM     10  C   UNL     1       2.606 -10.017   6.020  0.00  0.00    +0.038 A 
BRANCH   9  11
ATOM     11  N   UNL     1       2.848 -12.001   7.372  0.00  0.00    -0.188 N 
ATOM     12  C   UNL     1       3.803 -12.529   8.166  0.00  0.00    +0.240 C 
ATOM     13  O   UNL     1       4.581 -11.803   8.749  0.00  0.00    -0.273 OA
ATOM     14  C   UNL     1       3.897 -14.022   8.325  0.00  0.00    +0.093 C 
ATOM     15  C   UNL     1       4.543 -14.376   9.665  0.00  0.00    +0.040 C 
ATOM     16  C   UNL     1       4.399 -15.849   9.922  0.00  0.00    -0.030 C 
ATOM     17  C   UNL     1       3.557 -16.615   9.305  0.00  0.00    -0.030 C 
ATOM     18  C   UNL     1       2.608 -16.140   8.241  0.00  0.00    +0.040 C 
ATOM     19  C   UNL     1       2.481 -14.618   8.293  0.00  0.00    +0.092 C 
ATOM     20  C   UNL     1       1.759 -14.101   7.079  0.00  0.00    +0.234 C 
ATOM     21  O   UNL     1       0.974 -14.811   6.487  0.00  0.00    -0.274 OA
ATOM     22  N   UNL     1       1.985 -12.841   6.656  0.00  0.00    -0.227 N 
ATOM     23  H   UNL     1       1.550 -12.517   5.852  0.00  0.00    +0.173 HD
ENDBRANCH   9  11
ENDBRANCH   2   5
BRANCH   1  26
ATOM     24  C   UNL     1       2.019  -4.704   3.151  0.00  0.00    +0.270 C 
ATOM     25  O   UNL     1       2.001  -4.025   4.156  0.00  0.00    -0.270 OA
ATOM     26  N   UNL     1       2.140  -6.043   3.243  0.00  0.00    -0.231 N 
ATOM     27  H   UNL     1       2.154  -6.586   2.439  0.00  0.00    +0.173 HD
BRANCH  24  28
ATOM     28  C   UNL     1       1.905  -4.050   1.798  0.00  0.00    +0.257 C 
ATOM     29  C   UNL     1       0.602  -4.489   1.127  0.00  0.00    +0.062 C 
BRANCH  28  30
ATOM     30  O   UNL     1       1.905  -2.629   1.954  0.00  0.00    -0.480 OA
BRANCH  30  36
ATOM     31  C   UNL     1       3.013   1.727   0.052  0.00  0.00    +0.044 C 
ATOM     32  C   UNL     1       2.869   0.232  -0.075  0.00  0.00    -0.044 A 
ATOM     33  C   UNL     1       3.156  -0.390  -1.276  0.00  0.00    +0.004 A 
ATOM     34  C   UNL     1       3.025  -1.760  -1.397  0.00  0.00    +0.004 A 
ATOM     35  C   UNL     1       2.606  -2.513  -0.316  0.00  0.00    +0.046 A 
ATOM     36  C   UNL     1       2.317  -1.891   0.890  0.00  0.00    +0.125 A 
ATOM     37  C   UNL     1       2.455  -0.516   1.010  0.00  0.00    -0.006 A 
ATOM     38  C   UNL     1       2.148   0.162   2.320  0.00  0.00    +0.048 C 
ENDBRANCH  30  36
ENDBRANCH  28  30
ENDBRANCH  24  28
ENDBRANCH   1  26
TORSDOF 6
