REMARK  Name = ZINC14993467
REMARK  6 active torsions:
REMARK  status: ('A' for Active; 'I' for Inactive)
REMARK    1  A    between atoms: C_6  and  C_7
REMARK    2  A    between atoms: C_7  and  O_17
REMARK    3  A    between atoms: C_12  and  N_62
REMARK    4  A    between atoms: C_19  and  C_21
REMARK    5  A    between atoms: N_23  and  C_24
REMARK    6  A    between atoms: C_24  and  C_25
REMARK                            x       y       z     vdW  Elec       q    Type
REMARK                         _______ _______ _______ _____ _____    ______ ____
ROOT
ATOM      1  C   UNL     1      -0.969  10.139  -1.389  0.00  0.00    +0.010 A 
ATOM      2  C   UNL     1      -0.637   8.915  -0.849  0.00  0.00    +0.047 A 
ATOM      3  C   UNL     1      -0.998   7.746  -1.510  0.00  0.00    +0.136 A 
ATOM      4  C   UNL     1      -1.702   7.835  -2.726  0.00  0.00    +0.021 A 
ATOM      5  C   UNL     1      -2.029   9.085  -3.256  0.00  0.00    +0.018 A 
ATOM      6  C   UNL     1      -1.663  10.220  -2.589  0.00  0.00    -0.015 A 
ATOM      7  C   UNL     1      -1.922   6.455  -3.158  0.00  0.00    +0.063 A 
ATOM      8  C   UNL     1      -1.364   5.668  -2.202  0.00  0.00    +0.190 A 
ATOM      9  O   UNL     1      -0.820   6.439  -1.237  0.00  0.00    -0.450 OA
ENDROOT
BRANCH   6  10
ATOM     10  C   UNL     1      -2.015  11.570  -3.159  0.00  0.00    +0.088 C 
ATOM     11  C   UNL     1      -0.881  12.053  -4.068  0.00  0.00    +0.021 C 
ATOM     12  C   UNL     1      -1.217  13.450  -4.596  0.00  0.00    -0.075 C 
ATOM     13  C   UNL     1      -2.504  13.955  -2.606  0.00  0.00    -0.075 C 
ATOM     14  C   UNL     1      -2.207  12.573  -2.018  0.00  0.00    +0.021 C 
ATOM     15  N   UNL     1      -1.365  14.373  -3.450  0.00  0.00    +0.382 N 
ATOM     16  H   UNL     1      -0.506  14.346  -2.888  0.00  0.00    -0.081 HD
BRANCH  15  17
ATOM     17  C   UNL     1      -1.577  15.752  -3.937  0.00  0.00    -0.069 C 
ATOM     18  C   UNL     1      -2.849  15.846  -4.806  0.00  0.00    -0.015 C 
ATOM     19  C   UNL     1      -2.473  16.853  -5.921  0.00  0.00    -0.002 C 
ATOM     20  C   UNL     1      -0.995  16.497  -6.220  0.00  0.00    -0.002 C 
ATOM     21  C   UNL     1      -0.399  16.166  -4.836  0.00  0.00    -0.015 C 
ENDBRANCH  15  17
BRANCH  10  22
ATOM     22  O   UNL     1      -3.224  11.469  -3.914  0.00  0.00    -0.384 OA
ATOM     23  H   UNL     1      -3.174  10.850  -4.656  0.00  0.00    +0.211 HD
ENDBRANCH  10  22
ENDBRANCH   6  10
BRANCH   8  24
ATOM     24  C   UNL     1      -1.349   4.199  -2.219  0.00  0.00    +0.279 C 
ATOM     25  O   UNL     1      -1.869   3.596  -3.139  0.00  0.00    -0.267 OA
ATOM     26  N   UNL     1      -0.759   3.519  -1.216  0.00  0.00    -0.306 N 
ATOM     27  H   UNL     1      -0.344   4.000  -0.483  0.00  0.00    +0.149 HD
BRANCH  26  28
ATOM     28  C   UNL     1      -0.745   2.054  -1.233  0.00  0.00    +0.136 C 
BRANCH  28  29
ATOM     29  C   UNL     1      -0.019   1.537   0.011  0.00  0.00    +0.135 C 
ATOM     30  C   UNL     1       0.002  -0.004   0.002  0.00  0.00    +0.035 C 
ATOM     31  C   UNL     1       1.508  -0.363   0.039  0.00  0.00    +0.031 C 
ATOM     32  C   UNL     1       2.138   0.935   0.603  0.00  0.00    +0.160 C 
ATOM     33  O   UNL     1       1.348   1.983  -0.000  0.00  0.00    -0.375 OA
ENDBRANCH  28  29
ENDBRANCH  26  28
ENDBRANCH   8  24
TORSDOF 6
