REMARK  Name = ZINC04574478
REMARK  7 active torsions:
REMARK  status: ('A' for Active; 'I' for Inactive)
REMARK    1  A    between atoms: C_4  and  N_7
REMARK    2  A    between atoms: C_8  and  C_30
REMARK    3  A    between atoms: C_11  and  S_12
REMARK    4  A    between atoms: S_12  and  C_13
REMARK    5  A    between atoms: C_13  and  C_14
REMARK    6  A    between atoms: C_19  and  C_22
REMARK    7  A    between atoms: C_19  and  N_67
REMARK                            x       y       z     vdW  Elec       q    Type
REMARK                         _______ _______ _______ _____ _____    ______ ____
ROOT
ATOM      1  C   UNL     1      -6.344  -5.682  -0.198  0.00  0.00    +0.226 C 
ATOM      2  O   UNL     1      -6.003  -6.838  -0.067  0.00  0.00    -0.275 OA
ATOM      3  N   UNL     1      -7.598  -5.390  -0.599  0.00  0.00    -0.301 N 
ATOM      4  C   UNL     1      -8.027  -3.994  -0.756  0.00  0.00    +0.107 C 
ATOM      5  C   UNL     1      -8.600  -3.815  -2.170  0.00  0.00    +0.016 C 
ATOM      6  C   UNL     1      -9.710  -4.843  -2.399  0.00  0.00    +0.015 C 
ATOM      7  C   UNL     1      -9.130  -6.255  -2.289  0.00  0.00    +0.016 C 
ATOM      8  C   UNL     1      -8.562  -6.462  -0.882  0.00  0.00    +0.107 C 
ENDROOT
BRANCH   6  14
ATOM      9  C   UNL     1      -9.299  -4.953  -4.782  0.00  0.00    -0.077 C 
ATOM     10  C   UNL     1      -9.971  -4.886  -6.155  0.00  0.00    -0.019 C 
ATOM     11  C   UNL     1     -10.554  -3.486  -6.364  0.00  0.00    -0.004 C 
ATOM     12  C   UNL     1     -11.543  -3.179  -5.236  0.00  0.00    -0.019 C 
ATOM     13  C   UNL     1     -10.825  -3.296  -3.890  0.00  0.00    -0.077 C 
ATOM     14  N   UNL     1     -10.308  -4.673  -3.739  0.00  0.00    +0.389 N 
ATOM     15  H   UNL     1     -11.087  -5.334  -3.843  0.00  0.00    -0.080 HD
ENDBRANCH   6  14
BRANCH   6  16
ATOM     16  C   UNL     1     -10.786  -4.660  -1.359  0.00  0.00    +0.200 C 
ATOM     17  O   UNL     1     -10.533  -4.091  -0.319  0.00  0.00    -0.278 OA
ATOM     18  N   UNL     1     -12.028  -5.129  -1.586  0.00  0.00    -0.330 N 
ATOM     19  H   UNL     1     -12.215  -5.640  -2.389  0.00  0.00    +0.145 HD
ATOM     20  H   UNL     1     -12.736  -4.956  -0.946  0.00  0.00    +0.145 HD
ENDBRANCH   6  16
BRANCH   1  21
ATOM     21  C   UNL     1      -5.367  -4.571   0.088  0.00  0.00    +0.173 C 
BRANCH  21  22
ATOM     22  S   UNL     1      -3.782  -5.279   0.602  0.00  0.00    -0.076 S 
BRANCH  22  27
ATOM     23  N   UNL     1      -1.554  -3.722   1.268  0.00  0.00    -0.270 N 
ATOM     24  C   UNL     1      -1.269  -2.376   1.337  0.00  0.00    +0.169 A 
ATOM     25  N   UNL     1      -2.358  -1.733   0.981  0.00  0.00    -0.128 NA
ATOM     26  N   UNL     1      -3.292  -2.571   0.703  0.00  0.00    -0.122 NA
ATOM     27  C   UNL     1      -2.858  -3.802   0.864  0.00  0.00    +0.197 A 
BRANCH  23  31
ATOM     28  C   UNL     1       1.019  -6.890   2.119  0.00  0.00    +0.000 A 
ATOM     29  C   UNL     1      -0.056  -6.632   2.949  0.00  0.00    +0.002 A 
ATOM     30  C   UNL     1      -0.911  -5.583   2.669  0.00  0.00    +0.026 A 
ATOM     31  C   UNL     1      -0.689  -4.787   1.554  0.00  0.00    +0.051 A 
ATOM     32  C   UNL     1       0.389  -5.052   0.719  0.00  0.00    +0.026 A 
ATOM     33  C   UNL     1       1.243  -6.098   1.007  0.00  0.00    +0.002 A 
ENDBRANCH  23  31
BRANCH  24  34
ATOM     34  C   UNL     1       0.019  -1.770   1.730  0.00  0.00    +0.022 A 
ATOM     35  C   UNL     1       0.979  -2.510   2.431  0.00  0.00    +0.031 A 
ATOM     36  C   UNL     1       2.168  -1.905   2.778  0.00  0.00    +0.111 A 
ATOM     37  N   UNL     1       2.407  -0.647   2.459  0.00  0.00    -0.263 NA
ATOM     38  C   UNL     1       1.530   0.087   1.799  0.00  0.00    +0.111 A 
ATOM     39  C   UNL     1       0.315  -0.438   1.413  0.00  0.00    +0.031 A 
ENDBRANCH  24  34
ENDBRANCH  22  27
ENDBRANCH  21  22
ENDBRANCH   1  21
TORSDOF 7
