REMARK  Name = ZINC64605584
REMARK  10 active torsions:
REMARK  status: ('A' for Active; 'I' for Inactive)
REMARK    1  A    between atoms: C_1  and  C_2
REMARK    2  A    between atoms: C_4  and  C_8
REMARK    3  A    between atoms: C_8  and  N_9
REMARK    4  A    between atoms: C_10  and  C_12
REMARK    5  A    between atoms: C_15  and  C_18
REMARK    6  A    between atoms: C_21  and  C_24
REMARK    7  A    between atoms: C_24  and  C_25
REMARK    8  A    between atoms: C_25  and  N_26
REMARK    9  A    between atoms: N_26  and  C_27
REMARK   10  A    between atoms: C_28  and  C_30
REMARK                            x       y       z     vdW  Elec       q    Type
REMARK                         _______ _______ _______ _____ _____    ______ ____
ROOT
ATOM      1  C   UNL     1      -4.719  -5.519  -6.068  0.00  0.00    +0.274 C 
ATOM      2  N   UNL     1      -5.550  -4.959  -7.142  0.00  0.00    -0.343 N 
ATOM      3  C   UNL     1      -5.385  -5.667  -8.205  0.00  0.00    +0.104 C 
ATOM      4  N   UNL     1      -4.508  -6.692  -7.999  0.00  0.00    -0.251 N 
ATOM      5  O   UNL     1      -4.052  -6.648  -6.654  0.00  0.00    -0.243 OA
ATOM      6  H   UNL     1      -4.240  -7.346  -8.663  0.00  0.00    +0.195 HD
ATOM      7  H   UNL     1      -6.127  -4.184  -7.064  0.00  0.00    +0.164 HD
ENDROOT
BRANCH   1  11
ATOM      8  C   UNL     1      -1.858  -2.629  -4.746  0.00  0.00    +0.037 A 
ATOM      9  C   UNL     1      -2.329  -3.604  -3.865  0.00  0.00    +0.013 A 
ATOM     10  C   UNL     1      -3.252  -4.533  -4.298  0.00  0.00    +0.009 A 
ATOM     11  C   UNL     1      -3.711  -4.500  -5.602  0.00  0.00    +0.004 A 
ATOM     12  C   UNL     1      -3.249  -3.537  -6.481  0.00  0.00    +0.009 A 
ATOM     13  C   UNL     1      -2.330  -2.598  -6.059  0.00  0.00    +0.013 A 
BRANCH   8  15
ATOM     14  N   UNL     1      -0.416  -1.662  -3.020  0.00  0.00    -0.307 N 
ATOM     15  C   UNL     1      -0.869  -1.629  -4.289  0.00  0.00    +0.244 C 
ATOM     16  O   UNL     1      -0.465  -0.778  -5.057  0.00  0.00    -0.270 OA
ATOM     17  H   UNL     1      -0.738  -2.341  -2.407  0.00  0.00    +0.149 HD
BRANCH  14  18
ATOM     18  C   UNL     1       0.564  -0.672  -2.567  0.00  0.00    +0.139 C 
BRANCH  18  21
ATOM     19  C   UNL     1       0.155   1.087   0.174  0.00  0.00    +0.039 C 
ATOM     20  C   UNL     1       0.164  -0.442   0.113  0.00  0.00    +0.154 C 
ATOM     21  C   UNL     1       0.904  -0.926  -1.121  0.00  0.00    -0.007 C 
ATOM     22  C   UNL     1       1.925  -1.630  -0.628  0.00  0.00    +0.137 C 
ATOM     23  N   UNL     1       1.898  -1.633   0.724  0.00  0.00    -0.162 NA
ATOM     24  N   UNL     1       0.956  -1.003   1.221  0.00  0.00    -0.180 NA
ENDBRANCH  18  21
ENDBRANCH  14  18
ENDBRANCH   8  15
ENDBRANCH   1  11
BRANCH   3  25
ATOM     25  C   UNL     1      -6.076  -5.396  -9.516  0.00  0.00    +0.092 C 
BRANCH  25  26
ATOM     26  C   UNL     1      -7.402  -6.158  -9.561  0.00  0.00    +0.115 C 
BRANCH  26  27
ATOM     27  N   UNL     1      -8.074  -5.895 -10.836  0.00  0.00    -0.300 N 
ATOM     28  C   UNL     1      -7.819  -6.761 -11.990  0.00  0.00    +0.132 C 
ATOM     29  C   UNL     1      -8.926  -4.857 -10.947  0.00  0.00    +0.246 C 
ATOM     30  O   UNL     1      -9.057  -4.077 -10.024  0.00  0.00    -0.270 OA
BRANCH  29  31
ATOM     31  C   UNL     1      -9.702  -4.667 -12.191  0.00  0.00    +0.037 A 
ATOM     32  C   UNL     1     -10.160  -5.774 -12.907  0.00  0.00    +0.013 A 
ATOM     33  C   UNL     1     -10.884  -5.590 -14.067  0.00  0.00    +0.001 A 
ATOM     34  C   UNL     1     -11.155  -4.311 -14.521  0.00  0.00    +0.000 A 
ATOM     35  C   UNL     1     -10.704  -3.210 -13.816  0.00  0.00    +0.001 A 
ATOM     36  C   UNL     1      -9.984  -3.380 -12.651  0.00  0.00    +0.013 A 
ENDBRANCH  29  31
ENDBRANCH  26  27
ENDBRANCH  25  26
ENDBRANCH   3  25
TORSDOF 8
