REMARK  Name = ZINC31772871
REMARK  10 active torsions:
REMARK  status: ('A' for Active; 'I' for Inactive)
REMARK    1  A    between atoms: C_1  and  O_2
REMARK    2  A    between atoms: O_2  and  C_3
REMARK    3  A    between atoms: C_6  and  O_9
REMARK    4  A    between atoms: O_9  and  C_10
REMARK    5  A    between atoms: C_10  and  C_11
REMARK    6  A    between atoms: C_11  and  N_12
REMARK    7  A    between atoms: N_12  and  S_13
REMARK    8  A    between atoms: S_13  and  C_16
REMARK    9  A    between atoms: C_20  and  S_22
REMARK   10  A    between atoms: S_22  and  C_25
REMARK                            x       y       z     vdW  Elec       q    Type
REMARK                         _______ _______ _______ _____ _____    ______ ____
ROOT
ATOM      1  S   UNL     1       5.894   4.529  -3.371  0.00  0.00    +0.059 S 
ATOM      2  O   UNL     1       7.281   4.394  -3.093  0.00  0.00    -0.153 OA
ATOM      3  O   UNL     1       5.180   3.585  -4.157  0.00  0.00    -0.153 OA
ENDROOT
BRANCH   1   4
ATOM      4  C   UNL     1       5.073   4.611  -1.815  0.00  0.00    +0.107 A 
ATOM      5  C   UNL     1       5.761   5.033  -0.692  0.00  0.00    +0.028 A 
ATOM      6  C   UNL     1       5.117   5.098   0.529  0.00  0.00    +0.004 A 
ATOM      7  C   UNL     1       3.784   4.745   0.628  0.00  0.00    +0.027 A 
ATOM      8  C   UNL     1       3.098   4.319  -0.494  0.00  0.00    +0.090 A 
ATOM      9  C   UNL     1       3.741   4.254  -1.716  0.00  0.00    +0.055 A 
BRANCH   8  10
ATOM     10  S   UNL     1       1.400   3.864  -0.368  0.00  0.00    +0.001 S 
ATOM     11  O   UNL     1       0.867   4.089  -1.665  0.00  0.00    -0.169 OA
ATOM     12  O   UNL     1       0.912   4.590   0.752  0.00  0.00    -0.169 OA
BRANCH  10  13
ATOM     13  C   UNL     1       1.419   2.087  -0.000  0.00  0.00    +0.158 C 
ATOM     14  C   UNL     1      -0.019   1.544   0.011  0.00  0.00    +0.051 C 
ATOM     15  C   UNL     1       0.002  -0.004   0.002  0.00  0.00    +0.168 C 
ATOM     16  S   UNL     1       1.582  -0.382  -0.860  0.00  0.00    -0.029 S 
ATOM     17  O   UNL     1       2.444  -1.070   0.035  0.00  0.00    -0.174 OA
ATOM     18  O   UNL     1       1.292  -0.952  -2.129  0.00  0.00    -0.174 OA
ATOM     19  C   UNL     1       2.215   1.332  -1.103  0.00  0.00    +0.192 C 
ENDBRANCH  10  13
ENDBRANCH   8  10
ENDBRANCH   1   4
BRANCH   1  20
ATOM     20  N   UNL     1       5.699   6.000  -4.106  0.00  0.00    -0.187 NA
ATOM     21  H   UNL     1       4.985   6.095  -4.937  0.00  0.00    +0.148 HD
BRANCH  20  22
ATOM     22  C   UNL     1       6.302   7.198  -3.517  0.00  0.00    +0.147 C 
BRANCH  22  23
ATOM     23  C   UNL     1       6.302   8.329  -4.548  0.00  0.00    +0.246 C 
BRANCH  23  24
ATOM     24  O   UNL     1       4.955   8.694  -4.854  0.00  0.00    -0.491 OA
BRANCH  24  28
ATOM     25  C   UNL     1       4.414  11.724  -7.606  0.00  0.00    +0.120 A 
ATOM     26  C   UNL     1       3.314  11.111  -7.025  0.00  0.00    +0.049 A 
ATOM     27  C   UNL     1       3.495  10.097  -6.104  0.00  0.00    +0.049 A 
ATOM     28  C   UNL     1       4.777   9.692  -5.761  0.00  0.00    +0.121 A 
ATOM     29  C   UNL     1       5.877  10.309  -6.338  0.00  0.00    +0.049 A 
ATOM     30  C   UNL     1       5.696  11.319  -7.263  0.00  0.00    +0.049 A 
BRANCH  25  32
ATOM     31  C   UNL     1       5.413  13.309  -9.071  0.00  0.00    +0.277 C 
ATOM     32  O   UNL     1       4.236  12.722  -8.512  0.00  0.00    -0.495 OA
ENDBRANCH  25  32
ENDBRANCH  24  28
ENDBRANCH  23  24
ENDBRANCH  22  23
ENDBRANCH  20  22
ENDBRANCH   1  20
TORSDOF 9
