REMARK  Name = ZINC02624014
REMARK  8 active torsions:
REMARK  status: ('A' for Active; 'I' for Inactive)
REMARK    1  A    between atoms: C_1  and  C_2
REMARK    2  A    between atoms: C_5  and  N_8
REMARK    3  A    between atoms: C_9  and  C_11
REMARK    4  A    between atoms: C_11  and  S_12
REMARK    5  A    between atoms: S_12  and  C_13
REMARK    6  A    between atoms: C_16  and  C_27
REMARK    7  A    between atoms: N_17  and  C_18
REMARK    8  A    between atoms: C_24  and  C_26
REMARK                            x       y       z     vdW  Elec       q    Type
REMARK                         _______ _______ _______ _____ _____    ______ ____
ROOT
ATOM      1  C   UNL     1       0.870  -0.136  -2.929  0.00  0.00    +0.193 A 
ATOM      2  N   UNL     1       0.856  -0.219  -4.241  0.00  0.00    -0.122 NA
ATOM      3  N   UNL     1       0.857   0.958  -4.758  0.00  0.00    -0.128 NA
ATOM      4  C   UNL     1       0.878   1.864  -3.809  0.00  0.00    +0.167 A 
ATOM      5  N   UNL     1       0.881   1.192  -2.608  0.00  0.00    -0.299 N 
ENDROOT
BRANCH   5   6
ATOM      6  C   UNL     1       0.898   1.778  -1.266  0.00  0.00    +0.094 C 
ATOM      7  C   UNL     1      -0.377   1.381  -0.519  0.00  0.00    +0.025 C 
ATOM      8  C   UNL     1      -0.359   1.993   0.883  0.00  0.00    +0.002 C 
ATOM      9  C   UNL     1       0.861   1.478   1.649  0.00  0.00    +0.000 C 
ATOM     10  C   UNL     1       2.136   1.875   0.902  0.00  0.00    +0.005 C 
ATOM     11  C   UNL     1       2.118   1.263  -0.500  0.00  0.00    +0.009 C 
ATOM     12  C   UNL     1       3.393   1.660  -1.246  0.00  0.00    +0.009 C 
ENDBRANCH   5   6
BRANCH   4  13
ATOM     13  C   UNL     1       0.891   3.331  -3.994  0.00  0.00    +0.037 A 
ATOM     14  C   UNL     1       0.277   4.172  -3.060  0.00  0.00    +0.014 A 
ATOM     15  C   UNL     1       0.323   5.538  -3.277  0.00  0.00    +0.020 A 
ATOM     16  C   UNL     1       0.958   6.023  -4.406  0.00  0.00    +0.111 A 
ATOM     17  N   UNL     1       1.524   5.205  -5.273  0.00  0.00    -0.263 NA
ATOM     18  C   UNL     1       1.512   3.899  -5.108  0.00  0.00    +0.122 A 
ENDBRANCH   4  13
BRANCH   1  19
ATOM     19  S   UNL     1       0.875  -1.485  -1.796  0.00  0.00    -0.077 S 
BRANCH  19  20
ATOM     20  C   UNL     1       0.855  -2.872  -2.958  0.00  0.00    +0.173 C 
BRANCH  20  22
ATOM     21  N   UNL     1       0.843  -5.343  -2.855  0.00  0.00    -0.285 N 
ATOM     22  C   UNL     1       0.856  -4.170  -2.192  0.00  0.00    +0.227 C 
ATOM     23  O   UNL     1       0.869  -4.158  -0.980  0.00  0.00    -0.275 OA
ATOM     24  H   UNL     1       0.916  -5.355  -3.822  0.00  0.00    +0.155 HD
BRANCH  21  29
ATOM     25  C   UNL     1       0.363 -10.214   0.013  0.00  0.00    +0.044 C 
ATOM     26  C   UNL     1       0.491  -8.920  -0.749  0.00  0.00    -0.050 A 
ATOM     27  C   UNL     1      -0.135  -7.780  -0.280  0.00  0.00    +0.005 A 
ATOM     28  C   UNL     1      -0.020  -6.592  -0.976  0.00  0.00    +0.023 A 
ATOM     29  C   UNL     1       0.725  -6.545  -2.147  0.00  0.00    +0.033 A 
ATOM     30  C   UNL     1       1.348  -7.693  -2.618  0.00  0.00    +0.023 A 
ATOM     31  C   UNL     1       1.233  -8.876  -1.914  0.00  0.00    +0.005 A 
ENDBRANCH  21  29
ENDBRANCH  20  22
ENDBRANCH  19  20
ENDBRANCH   1  19
TORSDOF 6
