REMARK  Name = ZINC13411786
REMARK  7 active torsions:
REMARK  status: ('A' for Active; 'I' for Inactive)
REMARK    1  A    between atoms: C_1  and  C_2
REMARK    2  A    between atoms: C_2  and  C_4
REMARK    3  A    between atoms: C_2  and  O_17
REMARK    4  A    between atoms: N_6  and  C_7
REMARK    5  A    between atoms: C_12  and  C_13
REMARK    6  A    between atoms: O_17  and  C_18
REMARK    7  A    between atoms: C_23  and  C_24
REMARK                            x       y       z     vdW  Elec       q    Type
REMARK                         _______ _______ _______ _____ _____    ______ ____
ROOT
ATOM      1  C   UNL     1      -0.047   5.452   0.526  0.00  0.00    +0.258 C 
ATOM      2  O   UNL     1       1.014   5.882   0.926  0.00  0.00    -0.271 OA
ATOM      3  N   UNL     1      -1.163   6.198   0.645  0.00  0.00    -0.282 N 
ATOM      4  H   UNL     1      -2.025   5.824   0.401  0.00  0.00    +0.155 HD
ENDROOT
BRANCH   3   5
ATOM      5  C   UNL     1      -1.080   7.511   1.120  0.00  0.00    +0.045 A 
ATOM      6  C   UNL     1       0.104   8.226   0.987  0.00  0.00    +0.024 A 
ATOM      7  C   UNL     1       0.181   9.524   1.452  0.00  0.00    +0.002 A 
ATOM      8  C   UNL     1      -0.915  10.108   2.060  0.00  0.00    +0.001 A 
ATOM      9  C   UNL     1      -2.094   9.398   2.198  0.00  0.00    +0.014 A 
ATOM     10  C   UNL     1      -2.179   8.101   1.730  0.00  0.00    +0.076 A 
BRANCH  10  11
ATOM     11  C   UNL     1      -3.463   7.328   1.882  0.00  0.00    +0.419 C 
ATOM     12  F   UNL     1      -4.417   8.127   2.522  0.00  0.00    -0.166 F 
ATOM     13  F   UNL     1      -3.937   6.958   0.619  0.00  0.00    -0.166 F 
ATOM     14  F   UNL     1      -3.228   6.180   2.647  0.00  0.00    -0.166 F 
ENDBRANCH  10  11
ENDBRANCH   3   5
BRANCH   1  16
ATOM     15  C   UNL     1      -0.513   4.220  -1.575  0.00  0.00    +0.062 C 
ATOM     16  C   UNL     1      -0.118   4.085  -0.103  0.00  0.00    +0.256 C 
BRANCH  16  17
ATOM     17  O   UNL     1       1.159   3.451  -0.010  0.00  0.00    -0.479 OA
BRANCH  17  18
ATOM     18  C   UNL     1       1.177   2.095  -0.036  0.00  0.00    +0.136 A 
ATOM     19  C   UNL     1      -0.013   1.382  -0.048  0.00  0.00    +0.046 A 
ATOM     20  C   UNL     1       0.007   0.002  -0.075  0.00  0.00    +0.004 A 
ATOM     21  C   UNL     1       1.212  -0.682  -0.090  0.00  0.00    +0.001 A 
ATOM     22  C   UNL     1       2.403   0.009  -0.078  0.00  0.00    +0.019 A 
ATOM     23  C   UNL     1       2.398   1.407  -0.051  0.00  0.00    +0.105 A 
BRANCH  23  24
ATOM     24  C   UNL     1       3.670   2.152  -0.038  0.00  0.00    +0.390 C 
ATOM     25  O   UNL     1       3.662   3.367  -0.014  0.00  0.00    -0.240 OA
ATOM     26  O   UNL     1       4.841   1.487  -0.053  0.00  0.00    -0.240 OA
ENDBRANCH  23  24
ENDBRANCH  17  18
ENDBRANCH  16  17
ENDBRANCH   1  16
TORSDOF 6
