REMARK  Name = ZINC09117776
REMARK  10 active torsions:
REMARK  status: ('A' for Active; 'I' for Inactive)
REMARK    1  A    between atoms: C_1  and  S_2
REMARK    2  A    between atoms: S_2  and  C_3
REMARK    3  A    between atoms: C_3  and  C_4
REMARK    4  A    between atoms: C_4  and  C_5
REMARK    5  A    between atoms: C_5  and  C_7
REMARK    6  A    between atoms: C_5  and  N_25
REMARK    7  A    between atoms: N_9  and  C_10
REMARK    8  A    between atoms: C_13  and  N_16
REMARK    9  A    between atoms: N_25  and  S_26
REMARK   10  A    between atoms: S_26  and  C_29
REMARK                            x       y       z     vdW  Elec       q    Type
REMARK                         _______ _______ _______ _____ _____    ______ ____
ROOT
ATOM      1  C   UNL     1       1.922  -0.455   3.290  0.00  0.00    +0.236 C 
ATOM      2  O   UNL     1       2.336   0.572   3.786  0.00  0.00    -0.274 OA
ATOM      3  N   UNL     1       1.333  -1.388   4.065  0.00  0.00    -0.284 N 
ATOM      4  H   UNL     1       1.060  -2.235   3.680  0.00  0.00    +0.155 HD
ENDROOT
BRANCH   3   5
ATOM      5  C   UNL     1       1.115  -1.133   5.424  0.00  0.00    +0.034 A 
ATOM      6  C   UNL     1       1.155  -2.175   6.341  0.00  0.00    +0.025 A 
ATOM      7  C   UNL     1       0.945  -1.923   7.682  0.00  0.00    +0.028 A 
ATOM      8  C   UNL     1       0.683  -0.629   8.113  0.00  0.00    +0.048 A 
ATOM      9  C   UNL     1       0.638   0.412   7.195  0.00  0.00    +0.028 A 
ATOM     10  C   UNL     1       0.853   0.161   5.855  0.00  0.00    +0.025 A 
BRANCH   8  11
ATOM     11  N   UNL     1       0.464  -0.374   9.474  0.00  0.00    -0.299 N 
ATOM     12  C   UNL     1       1.070   0.589  10.223  0.00  0.00    +0.205 A 
ATOM     13  N   UNL     1       0.631   0.545  11.448  0.00  0.00    -0.235 NA
ATOM     14  C   UNL     1      -0.287  -0.449  11.569  0.00  0.00    +0.089 A 
ATOM     15  C   UNL     1      -0.412  -1.048  10.304  0.00  0.00    +0.073 A 
ATOM     16  C   UNL     1      -1.286  -2.111  10.125  0.00  0.00    +0.028 A 
ATOM     17  C   UNL     1      -2.037  -2.568  11.187  0.00  0.00    +0.002 A 
ATOM     18  C   UNL     1      -1.921  -1.976  12.437  0.00  0.00    +0.002 A 
ATOM     19  C   UNL     1      -1.056  -0.924  12.634  0.00  0.00    +0.030 A 
ENDBRANCH   8  11
ENDBRANCH   3   5
BRANCH   1  20
ATOM     20  C   UNL     1       2.067  -0.688   1.808  0.00  0.00    +0.163 C 
BRANCH  20  21
ATOM     21  N   UNL     1       2.735   0.463   1.196  0.00  0.00    -0.178 NA
ATOM     22  H   UNL     1       3.589   0.767   1.539  0.00  0.00    +0.149 HD
BRANCH  21  23
ATOM     23  S   UNL     1       2.030   1.245  -0.082  0.00  0.00    +0.062 S 
ATOM     24  O   UNL     1       1.754   0.254  -1.063  0.00  0.00    -0.153 OA
ATOM     25  O   UNL     1       2.835   2.384  -0.356  0.00  0.00    -0.153 OA
BRANCH  23  26
ATOM     26  C   UNL     1       0.472   1.852   0.473  0.00  0.00    +0.140 A 
ATOM     27  C   UNL     1       0.286   3.209   0.661  0.00  0.00    +0.031 A 
ATOM     28  C   UNL     1      -0.936   3.686   1.096  0.00  0.00    +0.002 A 
ATOM     29  C   UNL     1      -1.974   2.806   1.344  0.00  0.00    +0.003 A 
ATOM     30  C   UNL     1      -1.792   1.450   1.152  0.00  0.00    +0.040 A 
ATOM     31  C   UNL     1      -0.566   0.971   0.721  0.00  0.00    +0.150 A 
ATOM     32  F   UNL     1      -0.386  -0.355   0.537  0.00  0.00    -0.203 F 
ENDBRANCH  23  26
ENDBRANCH  21  23
ENDBRANCH  20  21
BRANCH  20  33
ATOM     33  C   UNL     1       2.901  -1.948   1.569  0.00  0.00    +0.040 C 
BRANCH  33  34
ATOM     34  C   UNL     1       3.064  -2.175   0.065  0.00  0.00    +0.071 C 
BRANCH  34  36
ATOM     35  C   UNL     1       4.043  -3.859  -2.027  0.00  0.00    +0.084 C 
ATOM     36  S   UNL     1       3.933  -3.741  -0.220  0.00  0.00    -0.164 S 
ENDBRANCH  34  36
ENDBRANCH  33  34
ENDBRANCH  20  33
ENDBRANCH   1  20
TORSDOF 9
