REMARK  Name = ZINC15614427
REMARK  6 active torsions:
REMARK  status: ('A' for Active; 'I' for Inactive)
REMARK    1  A    between atoms: C_10  and  C_12
REMARK    2  A    between atoms: C_12  and  C_13
REMARK    3  A    between atoms: N_15  and  C_16
REMARK    4  A    between atoms: C_16  and  C_17
REMARK    5  A    between atoms: C_20  and  S_23
REMARK    6  A    between atoms: S_23  and  N_26
REMARK                            x       y       z     vdW  Elec       q    Type
REMARK                         _______ _______ _______ _____ _____    ______ ____
ROOT
ATOM      1  C   UNL     1       4.813  -1.706   2.839  0.00  0.00    +0.215 C 
ATOM      2  O   UNL     1       5.761  -1.646   2.085  0.00  0.00    -0.276 OA
ATOM      3  N   UNL     1       4.972  -1.423   4.147  0.00  0.00    -0.311 N 
ATOM      4  H   UNL     1       4.214  -1.471   4.749  0.00  0.00    +0.149 HD
ENDROOT
BRANCH   1   5
ATOM      5  C   UNL     1       3.457  -2.099   2.313  0.00  0.00    +0.119 C 
BRANCH   5  15
ATOM      6  C   UNL     1      -0.017   1.377   0.010  0.00  0.00    +0.002 A 
ATOM      7  C   UNL     1       1.166   2.094   0.002  0.00  0.00    +0.001 A 
ATOM      8  C   UNL     1       2.377   1.426  -0.018  0.00  0.00    +0.016 A 
ATOM      9  C   UNL     1       2.401   0.041  -0.027  0.00  0.00    +0.030 A 
ATOM     10  C   UNL     1       1.213  -0.690  -0.012  0.00  0.00    +0.047 A 
ATOM     11  C   UNL     1       0.002  -0.004   0.002  0.00  0.00    +0.024 A 
ATOM     12  N   UNL     1       1.206  -2.081   0.003  0.00  0.00    -0.284 N 
ATOM     13  C   UNL     1       2.227  -2.877   0.302  0.00  0.00    +0.231 C 
ATOM     14  O   UNL     1       2.087  -4.073   0.160  0.00  0.00    -0.274 OA
ATOM     15  C   UNL     1       3.550  -2.366   0.809  0.00  0.00    +0.146 C 
ATOM     16  S   UNL     1       3.943  -0.818  -0.063  0.00  0.00    -0.110 S 
ATOM     17  H   UNL     1       0.369  -2.514  -0.229  0.00  0.00    +0.155 HD
ENDBRANCH   5  15
ENDBRANCH   1   5
BRANCH   3  18
ATOM     18  C   UNL     1       6.291  -1.041   4.658  0.00  0.00    +0.139 C 
BRANCH  18  19
ATOM     19  C   UNL     1       6.199  -0.778   6.139  0.00  0.00    -0.030 A 
ATOM     20  C   UNL     1       5.903   0.492   6.599  0.00  0.00    +0.007 A 
ATOM     21  C   UNL     1       5.818   0.733   7.957  0.00  0.00    +0.029 A 
ATOM     22  C   UNL     1       6.029  -0.296   8.856  0.00  0.00    +0.105 A 
ATOM     23  C   UNL     1       6.324  -1.566   8.397  0.00  0.00    +0.029 A 
ATOM     24  C   UNL     1       6.404  -1.808   7.038  0.00  0.00    +0.007 A 
BRANCH  22  25
ATOM     25  S   UNL     1       5.922   0.011  10.588  0.00  0.00    +0.056 S 
ATOM     26  O   UNL     1       6.698  -0.993  11.227  0.00  0.00    -0.153 OA
ATOM     27  O   UNL     1       6.172   1.398  10.770  0.00  0.00    -0.153 OA
BRANCH  25  28
ATOM     28  N   UNL     1       4.349  -0.249  11.035  0.00  0.00    -0.204 NA
ATOM     29  H   UNL     1       4.145  -0.560  11.931  0.00  0.00    +0.144 HD
ATOM     30  H   UNL     1       3.632  -0.090  10.402  0.00  0.00    +0.144 HD
ENDBRANCH  25  28
ENDBRANCH  22  25
ENDBRANCH  18  19
ENDBRANCH   3  18
TORSDOF 6
