REMARK  Name = ZINC46581460
REMARK  8 active torsions:
REMARK  status: ('A' for Active; 'I' for Inactive)
REMARK    1  A    between atoms: C_1  and  C_2
REMARK    2  A    between atoms: C_7  and  N_8
REMARK    3  A    between atoms: C_9  and  C_11
REMARK    4  A    between atoms: C_11  and  C_13
REMARK    5  A    between atoms: C_11  and  S_14
REMARK    6  A    between atoms: S_14  and  C_15
REMARK    7  A    between atoms: C_19  and  C_25
REMARK    8  A    between atoms: C_20  and  C_24
REMARK                            x       y       z     vdW  Elec       q    Type
REMARK                         _______ _______ _______ _____ _____    ______ ____
ROOT
ATOM      1  S   UNL     1       0.333  -1.324   6.769  0.00  0.00    -0.073 S 
ENDROOT
BRANCH   1   2
ATOM      2  C   UNL     1       0.098  -0.295   8.180  0.00  0.00    +0.192 A 
ATOM      3  N   UNL     1       0.536   0.959   8.152  0.00  0.00    -0.207 NA
ATOM      4  C   UNL     1       0.388   1.777   9.180  0.00  0.00    +0.129 A 
ATOM      5  C   UNL     1      -0.260   1.308  10.357  0.00  0.00    +0.050 A 
ATOM      6  C   UNL     1      -0.540   2.004  11.602  0.00  0.00    -0.028 A 
ATOM      7  C   UNL     1      -1.172   1.352  12.588  0.00  0.00    -0.008 A 
ATOM      8  S   UNL     1      -1.442  -0.274  11.907  0.00  0.00    -0.073 S 
ATOM      9  C   UNL     1      -0.699  -0.033  10.315  0.00  0.00    +0.115 A 
ATOM     10  N   UNL     1      -0.518  -0.785   9.247  0.00  0.00    -0.214 NA
ATOM     11  C   UNL     1      -1.560   1.870  13.949  0.00  0.00    +0.052 C 
ATOM     12  C   UNL     1      -0.125   3.441  11.781  0.00  0.00    +0.045 C 
ATOM     13  N   UNL     1       0.859   3.075   9.113  0.00  0.00    -0.343 N 
ATOM     14  H   UNL     1       1.575   3.300   8.498  0.00  0.00    +0.144 HD
ATOM     15  H   UNL     1       0.473   3.761   9.679  0.00  0.00    +0.144 HD
ENDBRANCH   1   2
BRANCH   1  16
ATOM     16  C   UNL     1       1.198  -0.255   5.585  0.00  0.00    +0.137 C 
ATOM     17  C   UNL     1       2.579   0.105   6.138  0.00  0.00    +0.029 C 
BRANCH  16  19
ATOM     18  N   UNL     1       1.589  -0.286   3.143  0.00  0.00    -0.284 N 
ATOM     19  C   UNL     1       1.355  -0.981   4.274  0.00  0.00    +0.230 C 
ATOM     20  O   UNL     1       1.271  -2.190   4.237  0.00  0.00    -0.274 OA
ATOM     21  H   UNL     1       1.723   0.673   3.182  0.00  0.00    +0.155 HD
BRANCH  18  28
ATOM     22  C   UNL     1       1.170   1.238   0.777  0.00  0.00    +0.045 C 
ATOM     23  C   UNL     1       1.440  -0.244   0.733  0.00  0.00    -0.029 A 
ATOM     24  C   UNL     1       1.495  -0.901  -0.481  0.00  0.00    +0.006 A 
ATOM     25  C   UNL     1       1.742  -2.260  -0.523  0.00  0.00    +0.020 A 
ATOM     26  C   UNL     1       1.936  -2.968   0.650  0.00  0.00    +0.043 A 
ATOM     27  C   UNL     1       1.882  -2.317   1.868  0.00  0.00    +0.043 A 
ATOM     28  C   UNL     1       1.639  -0.950   1.912  0.00  0.00    +0.038 A 
ATOM     29 CL   UNL     1       2.247  -4.675   0.593  0.00  0.00    -0.083 Cl
ENDBRANCH  18  28
ENDBRANCH  16  19
ENDBRANCH   1  16
TORSDOF 4
