REMARK  Name = ZINC27534034
REMARK  1 active torsions:
REMARK  status: ('A' for Active; 'I' for Inactive)
REMARK    1  A    between atoms: N_20  and  C_23
REMARK                            x       y       z     vdW  Elec       q    Type
REMARK                         _______ _______ _______ _____ _____    ______ ____
ROOT
ATOM      1  C   UNL     1      -1.221   1.751   0.017  0.00  0.00    +0.000 A 
ATOM      2  C   UNL     1      -1.250   3.135   0.030  0.00  0.00    +0.001 A 
ATOM      3  C   UNL     1      -0.071   3.853   0.015  0.00  0.00    +0.010 A 
ATOM      4  C   UNL     1       1.148   3.177  -0.006  0.00  0.00    +0.002 A 
ATOM      5  C   UNL     1       1.172   1.781   0.000  0.00  0.00    -0.037 A 
ATOM      6  C   UNL     1      -0.013   1.076   0.008  0.00  0.00    +0.004 A 
ATOM      7  C   UNL     1       2.492   1.056   0.025  0.00  0.00    +0.047 C 
ATOM      8  C   UNL     1       3.531   1.816  -0.799  0.00  0.00    +0.007 C 
ATOM      9  C   UNL     1       4.911   1.193  -0.570  0.00  0.00    +0.012 C 
ATOM     10  C   UNL     1       4.880  -0.280  -0.983  0.00  0.00    +0.001 C 
ATOM     11  C   UNL     1       4.517  -0.386  -2.466  0.00  0.00    +0.000 C 
ATOM     12  C   UNL     1       3.141   0.241  -2.700  0.00  0.00    +0.001 C 
ATOM     13  C   UNL     1       3.173   1.713  -2.284  0.00  0.00    +0.012 C 
ATOM     14  C   UNL     1       3.567   3.265  -0.394  0.00  0.00    +0.048 A 
ATOM     15  C   UNL     1       2.422   3.919  -0.046  0.00  0.00    +0.060 A 
ATOM     16  N   UNL     1       2.466   5.266   0.228  0.00  0.00    -0.307 N 
ATOM     17  H   UNL     1       1.540   5.809   0.465  0.00  0.00    +0.170 HD
ATOM     18  C   UNL     1       3.641   5.924   0.208  0.00  0.00    +0.330 A 
ATOM     19  O   UNL     1       3.665   7.113   0.461  0.00  0.00    -0.246 OA
ATOM     20  N   UNL     1       4.788   5.287  -0.088  0.00  0.00    -0.258 N 
ATOM     21  C   UNL     1       4.787   3.974  -0.394  0.00  0.00    +0.261 A 
ATOM     22  O   UNL     1       5.829   3.405  -0.667  0.00  0.00    -0.267 OA
ENDROOT
BRANCH  20  23
ATOM     23  C   UNL     1       6.052   6.027  -0.079  0.00  0.00    +0.095 C 
ATOM     24  C   UNL     1       6.294   6.605   1.317  0.00  0.00    +0.025 C 
ATOM     25  C   UNL     1       7.614   7.379   1.327  0.00  0.00    +0.002 C 
ATOM     26  C   UNL     1       7.546   8.518   0.308  0.00  0.00    +0.000 C 
ATOM     27  C   UNL     1       7.304   7.940  -1.088  0.00  0.00    +0.002 C 
ATOM     28  C   UNL     1       5.984   7.167  -1.097  0.00  0.00    +0.025 C 
ENDBRANCH  20  23
TORSDOF 1
