REMARK  Name = ZINC66361186
REMARK  9 active torsions:
REMARK  status: ('A' for Active; 'I' for Inactive)
REMARK    1  A    between atoms: C_1  and  C_2
REMARK    2  A    between atoms: C_3  and  C_8
REMARK    3  A    between atoms: C_4  and  C_7
REMARK    4  A    between atoms: C_8  and  C_9
REMARK    5  A    between atoms: C_17  and  C_19
REMARK    6  A    between atoms: C_19  and  C_20
REMARK    7  A    between atoms: C_23  and  C_30
REMARK    8  A    between atoms: C_26  and  C_28
REMARK    9  A    between atoms: C_26  and  C_29
REMARK                            x       y       z     vdW  Elec       q    Type
REMARK                         _______ _______ _______ _____ _____    ______ ____
ROOT
ATOM      1  C   UNL     1       1.411  -0.170  -3.054  0.00  0.00    +0.220 C 
ATOM      2  O   UNL     1       2.340  -0.406  -2.311  0.00  0.00    -0.275 OA
ATOM      3  N   UNL     1       1.645   0.252  -4.312  0.00  0.00    -0.298 N 
ATOM      4  C   UNL     1       0.530   0.548  -5.222  0.00  0.00    +0.126 C 
ATOM      5  C   UNL     1       0.689   1.982  -5.743  0.00  0.00    +0.126 C 
ATOM      6  N   UNL     1       2.065   2.155  -6.229  0.00  0.00    -0.298 N 
ATOM      7  C   UNL     1       3.180   1.859  -5.320  0.00  0.00    +0.126 C 
ATOM      8  C   UNL     1       3.021   0.431  -4.797  0.00  0.00    +0.126 C 
ATOM      9  C   UNL     1       2.299   2.577  -7.488  0.00  0.00    +0.216 C 
ATOM     10  O   UNL     1       1.370   2.817  -8.230  0.00  0.00    -0.276 OA
ENDROOT
BRANCH   1  11
ATOM     11  C   UNL     1      -0.005  -0.348  -2.571  0.00  0.00    +0.136 C 
BRANCH  11  14
ATOM     12  C   UNL     1      -0.018   1.503   0.010  0.00  0.00    +0.069 C 
ATOM     13  C   UNL     1       0.002  -0.004   0.002  0.00  0.00    +0.084 A 
ATOM     14  C   UNL     1       0.008  -0.824  -1.141  0.00  0.00    +0.026 A 
ATOM     15  C   UNL     1       0.027  -2.108  -0.735  0.00  0.00    +0.138 A 
ATOM     16  O   UNL     1       0.034  -2.119   0.606  0.00  0.00    -0.359 OA
ATOM     17  N   UNL     1       0.023  -0.775   1.052  0.00  0.00    -0.083 NA
ATOM     18  C   UNL     1       0.039  -3.320  -1.631  0.00  0.00    +0.089 C 
ENDBRANCH  11  14
ENDBRANCH   1  11
BRANCH   9  19
ATOM     19  C   UNL     1       3.715   2.750  -7.973  0.00  0.00    +0.099 C 
BRANCH  19  20
ATOM     20  C   UNL     1       3.702   3.235  -9.428  0.00  0.00    -0.002 C 
ATOM     21  C   UNL     1       3.107   2.142 -10.314  0.00  0.00    +0.007 C 
ATOM     22  C   UNL     1       3.077   2.586 -11.770  0.00  0.00    -0.013 C 
ATOM     23  C   UNL     1       4.416   3.093 -12.266  0.00  0.00    +0.009 C 
ATOM     24  C   UNL     1       5.165   4.012 -11.317  0.00  0.00    -0.034 C 
ATOM     25  C   UNL     1       5.135   3.511  -9.877  0.00  0.00    +0.010 C 
ATOM     26  C   UNL     1       6.641   4.062 -11.766  0.00  0.00    +0.011 C 
ATOM     27  C   UNL     1       4.616   5.440 -11.387  0.00  0.00    +0.011 C 
ATOM     28  C   UNL     1       1.965   3.608 -11.998  0.00  0.00    +0.007 C 
ENDBRANCH  19  20
ENDBRANCH   9  19
TORSDOF 4
