REMARK  Name = ZINC25364058
REMARK  7 active torsions:
REMARK  status: ('A' for Active; 'I' for Inactive)
REMARK    1  A    between atoms: C_1  and  C_2
REMARK    2  A    between atoms: C_2  and  C_3
REMARK    3  A    between atoms: C_2  and  C_4
REMARK    4  A    between atoms: C_4  and  C_6
REMARK    5  A    between atoms: C_4  and  N_20
REMARK    6  A    between atoms: N_8  and  C_9
REMARK    7  A    between atoms: N_23  and  C_24
REMARK                            x       y       z     vdW  Elec       q    Type
REMARK                         _______ _______ _______ _____ _____    ______ ____
ROOT
ATOM      1  C   UNL     1      -5.082   3.994   0.172  0.00  0.00    +0.163 C 
ENDROOT
BRANCH   1   2
ATOM      2  N   UNL     1      -6.098   2.971  -0.086  0.00  0.00    -0.288 N 
ATOM      3  C   UNL     1      -7.268   3.312  -0.660  0.00  0.00    +0.304 C 
ATOM      4  O   UNL     1      -7.481   4.470  -0.965  0.00  0.00    -0.252 OA
ATOM      5  N   UNL     1      -8.202   2.370  -0.897  0.00  0.00    -0.269 N 
ATOM      6  H   UNL     1      -5.905   1.923   0.190  0.00  0.00    +0.151 HD
ATOM      7  H   UNL     1      -8.047   1.340  -0.544  0.00  0.00    +0.156 HD
BRANCH   5   8
ATOM      8  C   UNL     1      -9.370   2.702  -1.593  0.00  0.00    +0.035 A 
ATOM      9  C   UNL     1     -10.569   2.074  -1.281  0.00  0.00    +0.023 A 
ATOM     10  C   UNL     1     -11.720   2.407  -1.966  0.00  0.00    +0.002 A 
ATOM     11  C   UNL     1     -11.680   3.359  -2.969  0.00  0.00    +0.000 A 
ATOM     12  C   UNL     1     -10.487   3.983  -3.285  0.00  0.00    +0.002 A 
ATOM     13  C   UNL     1      -9.332   3.658  -2.600  0.00  0.00    +0.023 A 
ENDBRANCH   5   8
ENDBRANCH   1   2
BRANCH   1  14
ATOM     14  C   UNL     1      -3.721   3.350   0.221  0.00  0.00    +0.238 C 
ATOM     15  O   UNL     1      -3.610   2.154   0.057  0.00  0.00    -0.273 OA
ATOM     16  N   UNL     1      -2.626   4.104   0.448  0.00  0.00    -0.284 N 
ATOM     17  H   UNL     1      -2.734   5.174   0.678  0.00  0.00    +0.155 HD
BRANCH  16  18
ATOM     18  C   UNL     1      -1.352   3.525   0.389  0.00  0.00    +0.037 A 
ATOM     19  C   UNL     1      -0.343   3.981   1.227  0.00  0.00    +0.027 A 
ATOM     20  C   UNL     1       0.916   3.415   1.166  0.00  0.00    +0.051 A 
ATOM     21  C   UNL     1       1.171   2.382   0.278  0.00  0.00    +0.173 A 
ATOM     22  C   UNL     1       0.159   1.917  -0.558  0.00  0.00    +0.174 A 
ATOM     23  C   UNL     1      -1.101   2.490  -0.501  0.00  0.00    +0.073 A 
ATOM     24  O   UNL     1       0.659   0.907  -1.329  0.00  0.00    -0.395 OA
ATOM     25  C   UNL     1       1.868   0.484  -0.672  0.00  0.00    +0.589 C 
ATOM     26  O   UNL     1       2.306   1.662   0.030  0.00  0.00    -0.395 OA
ATOM     27  F   UNL     1       1.601  -0.554   0.227  0.00  0.00    -0.125 F 
ATOM     28  F   UNL     1       2.824   0.085  -1.612  0.00  0.00    -0.125 F 
ENDBRANCH  16  18
ENDBRANCH   1  14
BRANCH   1  30
ATOM     29  C   UNL     1      -6.755   5.330   1.461  0.00  0.00    +0.009 C 
ATOM     30  C   UNL     1      -5.373   4.676   1.511  0.00  0.00    +0.012 C 
ATOM     31  C   UNL     1      -5.342   3.633   2.631  0.00  0.00    +0.009 C 
ENDBRANCH   1  30
TORSDOF 5
