REMARK  Name = ZINC62871745
REMARK  4 active torsions:
REMARK  status: ('A' for Active; 'I' for Inactive)
REMARK    1  A    between atoms: C_1  and  C_2
REMARK    2  A    between atoms: C_2  and  C_3
REMARK    3  A    between atoms: C_3  and  C_4
REMARK    4  A    between atoms: C_4  and  C_18
REMARK                            x       y       z     vdW  Elec       q    Type
REMARK                         _______ _______ _______ _____ _____    ______ ____
ROOT
ATOM      1  C   UNL     1      -1.413  -2.059   0.004  0.00  0.00    +0.088 C 
ATOM      2  C   UNL     1      -2.848  -2.588   0.018  0.00  0.00    +0.021 C 
ATOM      3  C   UNL     1      -3.574  -2.068   1.261  0.00  0.00    +0.020 C 
ATOM      4  C   UNL     1      -2.858  -2.578   2.516  0.00  0.00    +0.109 C 
ATOM      5  N   UNL     1      -1.441  -2.197   2.440  0.00  0.00    -0.284 N 
ATOM      6  C   UNL     1      -0.672  -2.569   1.244  0.00  0.00    +0.127 C 
ATOM      7  C   UNL     1      -0.857  -1.519   3.448  0.00  0.00    +0.308 C 
ATOM      8  O   UNL     1       0.336  -1.289   3.415  0.00  0.00    -0.252 OA
ATOM      9  N   UNL     1      -1.597  -1.095   4.492  0.00  0.00    -0.248 N 
ATOM     10  C   UNL     1      -1.018  -0.305   5.478  0.00  0.00    +0.165 A 
ATOM     11  N   UNL     1       0.222   0.128   5.556  0.00  0.00    -0.233 NA
ATOM     12  C   UNL     1       0.621   0.877   6.568  0.00  0.00    +0.120 A 
ATOM     13  C   UNL     1      -0.302   1.176   7.514  0.00  0.00    +0.068 A 
ATOM     14  S   UNL     1      -1.735   0.335   6.860  0.00  0.00    -0.060 S 
ATOM     15  H   UNL     1      -2.533  -1.341   4.555  0.00  0.00    +0.158 HD
ENDROOT
BRANCH   1  16
ATOM     16  C   UNL     1      -0.709  -2.544  -1.237  0.00  0.00    +0.364 C 
ATOM     17  O   UNL     1       0.452  -2.233  -1.441  0.00  0.00    -0.246 OA
ATOM     18  O   UNL     1      -1.301  -3.247  -2.038  0.00  0.00    -0.246 OA
ENDBRANCH   1  16
BRANCH   1  19
ATOM     19  C   UNL     1      -1.432  -0.529   0.014  0.00  0.00    +0.019 C 
BRANCH  19  21
ATOM     20  C   UNL     1      -0.016   1.530   0.015  0.00  0.00    +0.004 C 
ATOM     21  C   UNL     1       0.003  -0.000   0.004  0.00  0.00    -0.002 C 
ENDBRANCH  19  21
ENDBRANCH   1  19
TORSDOF 3
