REMARK  Name = ZINC08922969
REMARK  11 active torsions:
REMARK  status: ('A' for Active; 'I' for Inactive)
REMARK    1  A    between atoms: C_1  and  C_2
REMARK    2  A    between atoms: C_2  and  N_3
REMARK    3  A    between atoms: C_4  and  C_29
REMARK    4  A    between atoms: C_7  and  S_8
REMARK    5  A    between atoms: S_8  and  C_9
REMARK    6  A    between atoms: C_9  and  C_10
REMARK    7  A    between atoms: N_12  and  N_13
REMARK    8  A    between atoms: C_16  and  C_20
REMARK    9  A    between atoms: C_16  and  C_21
REMARK   10  A    between atoms: C_21  and  C_22
REMARK   11  A    between atoms: C_22  and  C_23
REMARK                            x       y       z     vdW  Elec       q    Type
REMARK                         _______ _______ _______ _____ _____    ______ ____
ROOT
ATOM      1  C   UNL     1      -2.213  -3.681   3.794  0.00  0.00    +0.240 C 
ATOM      2  O   UNL     1      -1.021  -3.682   4.019  0.00  0.00    -0.273 OA
ATOM      3  N   UNL     1      -2.976  -4.714   4.202  0.00  0.00    -0.223 N 
ATOM      4  H   UNL     1      -3.929  -4.713   4.022  0.00  0.00    +0.174 HD
ENDROOT
BRANCH   3   5
ATOM      5  N   UNL     1      -2.393  -5.789   4.885  0.00  0.00    -0.137 N 
ATOM      6  C   UNL     1      -2.513  -5.997   6.211  0.00  0.00    +0.263 C 
ATOM      7  O   UNL     1      -3.121  -5.314   7.008  0.00  0.00    -0.271 OA
ATOM      8  C   UNL     1      -1.728  -7.261   6.500  0.00  0.00    +0.112 C 
ATOM      9  N   UNL     1      -1.208  -7.655   5.179  0.00  0.00    -0.284 N 
ATOM     10  C   UNL     1      -1.654  -6.739   4.301  0.00  0.00    +0.326 C 
ATOM     11  O   UNL     1      -1.409  -6.768   3.111  0.00  0.00    -0.251 OA
ATOM     12  C   UNL     1      -0.578  -6.971   7.466  0.00  0.00    +0.041 C 
ATOM     13  H   UNL     1      -0.656  -8.428   4.981  0.00  0.00    +0.151 HD
BRANCH   8  14
ATOM     14  C   UNL     1      -2.645  -8.346   7.067  0.00  0.00    +0.040 C 
BRANCH  14  15
ATOM     15  C   UNL     1      -1.828  -9.609   7.349  0.00  0.00    +0.038 C 
BRANCH  15  16
ATOM     16  C   UNL     1      -2.731 -10.678   7.908  0.00  0.00    -0.047 A 
ATOM     17  C   UNL     1      -2.918 -10.780   9.274  0.00  0.00    +0.003 A 
ATOM     18  C   UNL     1      -3.751 -11.757   9.786  0.00  0.00    +0.000 A 
ATOM     19  C   UNL     1      -4.388 -12.639   8.933  0.00  0.00    +0.000 A 
ATOM     20  C   UNL     1      -4.197 -12.540   7.568  0.00  0.00    +0.000 A 
ATOM     21  C   UNL     1      -3.368 -11.559   7.055  0.00  0.00    +0.003 A 
ENDBRANCH  15  16
ENDBRANCH  14  15
ENDBRANCH   8  14
ENDBRANCH   3   5
BRANCH   1  22
ATOM     22  C   UNL     1      -2.840  -2.524   3.058  0.00  0.00    +0.174 C 
BRANCH  22  23
ATOM     23  S   UNL     1      -1.565  -1.307   2.649  0.00  0.00    -0.077 S 
BRANCH  23  28
ATOM     24  N   UNL     1      -2.103   1.072   1.277  0.00  0.00    -0.302 N 
ATOM     25  C   UNL     1      -3.219   1.681   0.747  0.00  0.00    +0.171 A 
ATOM     26  N   UNL     1      -4.238   0.882   0.976  0.00  0.00    -0.128 NA
ATOM     27  N   UNL     1      -3.842  -0.164   1.609  0.00  0.00    -0.122 NA
ATOM     28  C   UNL     1      -2.547  -0.102   1.820  0.00  0.00    +0.192 A 
BRANCH  25  29
ATOM     29  C   UNL     1      -3.263   2.978   0.054  0.00  0.00    +0.056 A 
ATOM     30  C   UNL     1      -4.258   3.508  -0.728  0.00  0.00    +0.019 A 
ATOM     31  C   UNL     1      -4.072   4.756  -1.278  0.00  0.00    +0.008 A 
ATOM     32  C   UNL     1      -2.914   5.423  -1.033  0.00  0.00    +0.046 A 
ATOM     33  S   UNL     1      -2.037   4.276   0.018  0.00  0.00    -0.094 S 
ENDBRANCH  25  29
BRANCH  24  35
ATOM     34  C   UNL     1      -0.013   1.086   0.008  0.00  0.00    +0.027 C 
ATOM     35  C   UNL     1      -0.729   1.579   1.267  0.00  0.00    +0.122 C 
ENDBRANCH  24  35
ENDBRANCH  23  28
ENDBRANCH  22  23
ENDBRANCH   1  22
TORSDOF 9
