REMARK  Name = ZINC30140858
REMARK  9 active torsions:
REMARK  status: ('A' for Active; 'I' for Inactive)
REMARK    1  A    between atoms: C_1  and  C_2
REMARK    2  A    between atoms: C_2  and  O_3
REMARK    3  A    between atoms: O_3  and  C_4
REMARK    4  A    between atoms: C_4  and  C_6
REMARK    5  A    between atoms: C_7  and  C_13
REMARK    6  A    between atoms: C_13  and  N_14
REMARK    7  A    between atoms: C_22  and  C_24
REMARK    8  A    between atoms: C_24  and  C_25
REMARK    9  A    between atoms: C_24  and  C_26
REMARK                            x       y       z     vdW  Elec       q    Type
REMARK                         _______ _______ _______ _____ _____    ______ ____
ROOT
ATOM      1  C   UNL     1       5.408  -2.063  -6.302  0.00  0.00    +0.072 C 
ATOM      2  C   UNL     1       4.343  -1.235  -6.362  0.00  0.00    +0.041 C 
ATOM      3  N   UNL     1       3.834  -0.827  -7.561  0.00  0.00    -0.271 N 
ATOM      4  C   UNL     1       4.339  -1.193  -8.746  0.00  0.00    +0.304 C 
ATOM      5  O   UNL     1       3.820  -0.773  -9.761  0.00  0.00    -0.253 OA
ATOM      6  N   UNL     1       5.402  -2.016  -8.848  0.00  0.00    -0.295 N 
ATOM      7  C   UNL     1       6.022  -2.518  -7.611  0.00  0.00    +0.150 C 
ATOM      8  H   UNL     1       2.959  -0.160  -7.589  0.00  0.00    +0.156 HD
ATOM      9  H   UNL     1       5.807  -2.314  -9.827  0.00  0.00    +0.151 HD
ENDROOT
BRANCH   1  10
ATOM     10  C   UNL     1       5.933  -2.492  -5.060  0.00  0.00    +0.338 C 
ATOM     11  O   UNL     1       5.357  -2.210  -4.027  0.00  0.00    -0.245 OA
BRANCH  10  12
ATOM     12  O   UNL     1       7.073  -3.213  -5.022  0.00  0.00    -0.462 OA
BRANCH  12  14
ATOM     13  C   UNL     1       8.839  -4.414  -3.892  0.00  0.00    +0.048 C 
ATOM     14  C   UNL     1       7.546  -3.612  -3.734  0.00  0.00    +0.229 C 
ENDBRANCH  12  14
ENDBRANCH  10  12
ENDBRANCH   1  10
BRANCH   2  15
ATOM     15  C   UNL     1       3.702  -0.759  -5.083  0.00  0.00    +0.156 C 
BRANCH  15  16
ATOM     16  N   UNL     1       2.731  -1.759  -4.620  0.00  0.00    -0.324 N 
ATOM     17  C   UNL     1       1.849  -2.178  -5.711  0.00  0.00    +0.106 C 
ATOM     18  C   UNL     1       0.844  -3.200  -5.164  0.00  0.00    +0.024 C 
ATOM     19  C   UNL     1      -0.094  -2.470  -4.200  0.00  0.00    +0.038 C 
ATOM     20  C   UNL     1       0.714  -1.619  -3.253  0.00  0.00    -0.026 A 
ATOM     21  C   UNL     1       2.038  -1.302  -3.500  0.00  0.00    +0.033 A 
ATOM     22  C   UNL     1       2.730  -0.496  -2.595  0.00  0.00    +0.023 A 
ATOM     23  C   UNL     1       2.103  -0.020  -1.463  0.00  0.00    +0.006 A 
ATOM     24  C   UNL     1       0.783  -0.350  -1.215  0.00  0.00    -0.044 A 
ATOM     25  C   UNL     1       0.093  -1.144  -2.109  0.00  0.00    +0.009 A 
BRANCH  24  26
ATOM     26  C   UNL     1       0.098   0.161   0.026  0.00  0.00    +0.013 C 
ATOM     27  C   UNL     1       0.106   1.691   0.019  0.00  0.00    +0.012 C 
ATOM     28  C   UNL     1       0.839  -0.347   1.264  0.00  0.00    +0.012 C 
ENDBRANCH  24  26
ENDBRANCH  15  16
ENDBRANCH   2  15
TORSDOF 6
