REMARK  Name = ZINC09714568
REMARK  8 active torsions:
REMARK  status: ('A' for Active; 'I' for Inactive)
REMARK    1  A    between atoms: C_4  and  C_7
REMARK    2  A    between atoms: C_7  and  C_8
REMARK    3  A    between atoms: C_7  and  N_14
REMARK    4  A    between atoms: C_15  and  C_17
REMARK    5  A    between atoms: C_17  and  N_61
REMARK    6  A    between atoms: N_20  and  S_23
REMARK    7  A    between atoms: S_23  and  C_26
REMARK    8  A    between atoms: C_31  and  N_32
REMARK                            x       y       z     vdW  Elec       q    Type
REMARK                         _______ _______ _______ _____ _____    ______ ____
ROOT
ATOM      1  C   UNL     1      -0.316  -2.461   4.511  0.00  0.00    -0.061 C 
ATOM      2  C   UNL     1       0.442  -2.416   5.842  0.00  0.00    +0.091 C 
ATOM      3  N   UNL     1      -0.536  -2.293   6.933  0.00  0.00    -0.180 NA
ATOM      4  C   UNL     1      -1.550  -1.232   6.843  0.00  0.00    +0.091 C 
ATOM      5  C   UNL     1      -2.230  -1.323   5.472  0.00  0.00    -0.061 C 
ATOM      6  N   UNL     1      -1.190  -1.271   4.422  0.00  0.00    +0.387 N 
ATOM      7  H   UNL     1      -0.619  -0.429   4.560  0.00  0.00    -0.081 HD
ENDROOT
BRANCH   3   8
ATOM      8  S   UNL     1      -0.498  -3.324   8.229  0.00  0.00    +0.063 S 
ATOM      9  O   UNL     1       0.859  -3.707   8.404  0.00  0.00    -0.153 OA
ATOM     10  O   UNL     1      -1.254  -2.706   9.262  0.00  0.00    -0.153 OA
BRANCH   8  11
ATOM     11  C   UNL     1      -1.376  -4.779   7.764  0.00  0.00    +0.136 A 
ATOM     12  C   UNL     1      -2.152  -4.782   6.620  0.00  0.00    +0.031 A 
ATOM     13  C   UNL     1      -2.837  -5.925   6.252  0.00  0.00    +0.002 A 
ATOM     14  C   UNL     1      -2.755  -7.062   7.035  0.00  0.00    +0.002 A 
ATOM     15  C   UNL     1      -1.984  -7.057   8.182  0.00  0.00    +0.035 A 
ATOM     16  C   UNL     1      -1.294  -5.915   8.547  0.00  0.00    +0.152 A 
BRANCH  16  17
ATOM     17  N   UNL     1      -0.469  -5.910   9.776  0.00  0.00    +0.058 N 
ATOM     18  O   UNL     1      -0.294  -6.943  10.397  0.00  0.00    -0.126 OA
ATOM     19  O   UNL     1       0.035  -4.872  10.166  0.00  0.00    -0.126 OA
ENDBRANCH  16  17
ENDBRANCH   8  11
ENDBRANCH   3   8
BRANCH   6  20
ATOM     20  C   UNL     1      -1.823  -1.209   3.088  0.00  0.00    +0.019 C 
BRANCH  20  22
ATOM     21  N   UNL     1      -1.091  -0.817   0.758  0.00  0.00    -0.306 N 
ATOM     22  C   UNL     1      -0.757  -0.938   2.058  0.00  0.00    +0.197 C 
ATOM     23  O   UNL     1       0.402  -0.828   2.398  0.00  0.00    -0.278 OA
ATOM     24  H   UNL     1      -2.018  -0.905   0.485  0.00  0.00    +0.150 HD
BRANCH  21  25
ATOM     25  C   UNL     1      -0.055  -0.553  -0.244  0.00  0.00    +0.133 C 
BRANCH  25  29
ATOM     26  C   UNL     1       0.674   3.650  -0.465  0.00  0.00    +0.000 A 
ATOM     27  C   UNL     1       1.730   2.760  -0.535  0.00  0.00    +0.000 A 
ATOM     28  C   UNL     1       1.494   1.400  -0.463  0.00  0.00    +0.006 A 
ATOM     29  C   UNL     1       0.202   0.929  -0.322  0.00  0.00    -0.023 A 
ATOM     30  C   UNL     1      -0.855   1.819  -0.258  0.00  0.00    +0.006 A 
ATOM     31  C   UNL     1      -0.618   3.179  -0.324  0.00  0.00    +0.000 A 
ENDBRANCH  25  29
BRANCH  25  32
ATOM     32  C   UNL     1      -0.517  -1.054  -1.588  0.00  0.00    -0.023 A 
ATOM     33  C   UNL     1      -1.834  -0.886  -1.973  0.00  0.00    +0.006 A 
ATOM     34  C   UNL     1      -2.256  -1.342  -3.208  0.00  0.00    +0.000 A 
ATOM     35  C   UNL     1      -1.364  -1.974  -4.054  0.00  0.00    +0.000 A 
ATOM     36  C   UNL     1      -0.048  -2.147  -3.667  0.00  0.00    +0.000 A 
ATOM     37  C   UNL     1       0.375  -1.687  -2.434  0.00  0.00    +0.006 A 
ENDBRANCH  25  32
ENDBRANCH  21  25
ENDBRANCH  20  22
ENDBRANCH   6  20
TORSDOF 8
