REMARK  Name = ZINC12376895
REMARK  4 active torsions:
REMARK  status: ('A' for Active; 'I' for Inactive)
REMARK    1  A    between atoms: C_4  and  C_7
REMARK    2  A    between atoms: C_8  and  N_15
REMARK    3  A    between atoms: N_15  and  N_16
REMARK    4  A    between atoms: C_19  and  C_24
REMARK                            x       y       z     vdW  Elec       q    Type
REMARK                         _______ _______ _______ _____ _____    ______ ____
ROOT
ATOM      1  N   UNL     1       6.530  -1.336  -0.750  0.00  0.00    -0.194 N 
ATOM      2  C   UNL     1       5.617  -0.922   0.187  0.00  0.00    +0.040 C 
ATOM      3  C   UNL     1       4.296  -0.959  -0.089  0.00  0.00    +0.022 C 
ATOM      4  C   UNL     1       3.830  -1.430  -1.448  0.00  0.00    +0.063 C 
ATOM      5  C   UNL     1       4.832  -0.957  -2.507  0.00  0.00    +0.111 C 
ATOM      6  C   UNL     1       6.223  -1.333  -2.060  0.00  0.00    +0.237 C 
ATOM      7  O   UNL     1       7.064  -1.631  -2.881  0.00  0.00    -0.274 OA
ATOM      8  C   UNL     1       3.338  -0.570   0.861  0.00  0.00    +0.161 C 
ATOM      9  O   UNL     1       2.158  -0.617   0.575  0.00  0.00    -0.292 OA
ATOM     10  C   UNL     1       3.751  -0.094   2.228  0.00  0.00    +0.080 C 
ATOM     11  C   UNL     1       5.082  -0.753   2.605  0.00  0.00    +0.014 C 
ATOM     12  C   UNL     1       6.114  -0.428   1.522  0.00  0.00    +0.053 C 
ENDROOT
BRANCH   4  13
ATOM     13  C   UNL     1       2.472  -0.849  -1.745  0.00  0.00    -0.039 A 
ATOM     14  C   UNL     1       1.399  -1.688  -1.984  0.00  0.00    +0.007 A 
ATOM     15  C   UNL     1       0.153  -1.157  -2.256  0.00  0.00    +0.038 A 
ATOM     16  C   UNL     1      -0.022   0.216  -2.289  0.00  0.00    +0.123 A 
ATOM     17  C   UNL     1       1.053   1.055  -2.050  0.00  0.00    +0.038 A 
ATOM     18  C   UNL     1       2.299   0.522  -1.779  0.00  0.00    +0.007 A 
ATOM     19  F   UNL     1      -1.239   0.736  -2.560  0.00  0.00    -0.205 F 
ENDBRANCH   4  13
BRANCH   1  20
ATOM     20  N   UNL     1       7.798  -1.766  -0.337  0.00  0.00    -0.255 N 
ATOM     21  H   UNL     1       7.904  -2.637   0.076  0.00  0.00    +0.171 HD
BRANCH  20  23
ATOM     22  C   UNL     1      10.231  -1.350  -0.055  0.00  0.00    +0.114 A 
ATOM     23  C   UNL     1       8.898  -0.949  -0.519  0.00  0.00    +0.078 A 
ATOM     24  C   UNL     1       8.784   0.284  -1.143  0.00  0.00    +0.098 A 
ATOM     25  C   UNL     1       9.950   1.052  -1.288  0.00  0.00    +0.267 A 
ATOM     26  O   UNL     1       9.896   2.144  -1.831  0.00  0.00    -0.266 OA
ATOM     27  N   UNL     1      11.126   0.589  -0.831  0.00  0.00    -0.243 N 
ATOM     28  H   UNL     1      11.916   1.140  -0.944  0.00  0.00    +0.192 HD
ATOM     29  N   UNL     1      11.249  -0.548  -0.253  0.00  0.00    -0.169 NA
BRANCH  22  33
ATOM     30  C   UNL     1      10.788  -5.086   1.897  0.00  0.00    +0.000 A 
ATOM     31  C   UNL     1      11.749  -4.617   1.019  0.00  0.00    +0.001 A 
ATOM     32  C   UNL     1      11.574  -3.405   0.383  0.00  0.00    +0.010 A 
ATOM     33  C   UNL     1      10.425  -2.653   0.626  0.00  0.00    +0.004 A 
ATOM     34  C   UNL     1       9.463  -3.128   1.516  0.00  0.00    +0.010 A 
ATOM     35  C   UNL     1       9.647  -4.344   2.142  0.00  0.00    +0.001 A 
ENDBRANCH  22  33
ENDBRANCH  20  23
ENDBRANCH   1  20
TORSDOF 4
