REMARK  Name = ZINC20142959
REMARK  6 active torsions:
REMARK  status: ('A' for Active; 'I' for Inactive)
REMARK    1  A    between atoms: C_3  and  C_25
REMARK    2  A    between atoms: C_6  and  C_7
REMARK    3  A    between atoms: C_7  and  N_8
REMARK    4  A    between atoms: C_9  and  C_11
REMARK    5  A    between atoms: C_13  and  N_22
REMARK    6  A    between atoms: C_16  and  N_17
REMARK                            x       y       z     vdW  Elec       q    Type
REMARK                         _______ _______ _______ _____ _____    ______ ____
ROOT
ATOM      1  N   UNL     1      -1.729  -1.013  -1.368  0.00  0.00    -0.307 N 
ATOM      2  C   UNL     1      -2.871  -1.687  -1.606  0.00  0.00    +0.246 C 
ATOM      3  O   UNL     1      -3.542  -2.094  -0.677  0.00  0.00    -0.270 OA
ATOM      4  H   UNL     1      -1.194  -0.688  -2.108  0.00  0.00    +0.149 HD
ENDROOT
BRANCH   2   5
ATOM      5  C   UNL     1      -3.308  -1.929  -2.993  0.00  0.00    +0.060 A 
ATOM      6  C   UNL     1      -2.538  -1.468  -4.064  0.00  0.00    +0.047 A 
ATOM      7  C   UNL     1      -2.951  -1.698  -5.357  0.00  0.00    +0.127 A 
ATOM      8  C   UNL     1      -4.129  -2.386  -5.605  0.00  0.00    +0.034 A 
ATOM      9  C   UNL     1      -4.901  -2.847  -4.559  0.00  0.00    +0.026 A 
ATOM     10  C   UNL     1      -4.497  -2.630  -3.247  0.00  0.00    +0.042 A 
BRANCH  10  11
ATOM     11  N   UNL     1      -5.269  -3.100  -2.192  0.00  0.00    -0.329 N 
ATOM     12  C   UNL     1      -6.358  -2.364  -1.533  0.00  0.00    +0.105 C 
ATOM     13  C   UNL     1      -6.906  -3.266  -0.407  0.00  0.00    +0.020 C 
ATOM     14  C   UNL     1      -5.722  -4.229  -0.128  0.00  0.00    +0.020 C 
ATOM     15  C   UNL     1      -5.137  -4.421  -1.552  0.00  0.00    +0.105 C 
ENDBRANCH  10  11
BRANCH   7  16
ATOM     16  N   UNL     1      -2.133  -1.208  -6.490  0.00  0.00    +0.056 N 
ATOM     17  O   UNL     1      -1.106  -0.608  -6.278  0.00  0.00    -0.126 OA
ATOM     18  O   UNL     1      -2.493  -1.408  -7.627  0.00  0.00    -0.126 OA
ENDBRANCH   7  16
ENDBRANCH   2   5
BRANCH   1  19
ATOM     19  C   UNL     1      -1.295  -0.772   0.011  0.00  0.00    +0.139 C 
BRANCH  19  25
ATOM     20  C   UNL     1      -0.017   1.380   0.010  0.00  0.00    +0.006 A 
ATOM     21  C   UNL     1       1.166   2.089   0.002  0.00  0.00    +0.015 A 
ATOM     22  C   UNL     1       2.385   1.407  -0.013  0.00  0.00    +0.063 A 
ATOM     23  C   UNL     1       2.397   0.009  -0.021  0.00  0.00    +0.015 A 
ATOM     24  C   UNL     1       1.206  -0.686  -0.013  0.00  0.00    +0.006 A 
ATOM     25  C   UNL     1       0.002  -0.004   0.002  0.00  0.00    -0.030 A 
BRANCH  22  26
ATOM     26  C   UNL     1       3.655   2.158  -0.022  0.00  0.00    +0.387 C 
ATOM     27  O   UNL     1       3.642   3.381  -0.015  0.00  0.00    -0.241 OA
ATOM     28  O   UNL     1       4.721   1.558  -0.035  0.00  0.00    -0.241 OA
ENDBRANCH  22  26
ENDBRANCH  19  25
ENDBRANCH   1  19
TORSDOF 6
