REMARK  Name = ZINC05351929
REMARK  7 active torsions:
REMARK  status: ('A' for Active; 'I' for Inactive)
REMARK    1  A    between atoms: C_1  and  C_2
REMARK    2  A    between atoms: C_2  and  C_3
REMARK    3  A    between atoms: C_3  and  C_4
REMARK    4  A    between atoms: C_4  and  N_5
REMARK    5  A    between atoms: C_25  and  C_27
REMARK    6  A    between atoms: C_27  and  C_28
REMARK    7  A    between atoms: C_27  and  C_29
REMARK                            x       y       z     vdW  Elec       q    Type
REMARK                         _______ _______ _______ _____ _____    ______ ____
ROOT
ATOM      1  N   UNL     1      -0.513   8.254   1.006  0.00  0.00    -0.242 N 
ATOM      2  C   UNL     1       0.779   8.199   0.661  0.00  0.00    +0.224 C 
ATOM      3  O   UNL     1       1.471   9.155   0.384  0.00  0.00    -0.275 OA
ATOM      4  C   UNL     1       1.240   6.760   0.672  0.00  0.00    +0.073 C 
ATOM      5  C   UNL     1      -0.038   5.976   1.082  0.00  0.00    +0.088 C 
ATOM      6  C   UNL     1      -1.070   7.066   1.265  0.00  0.00    +0.225 C 
ATOM      7  O   UNL     1      -2.223   6.890   1.595  0.00  0.00    -0.275 OA
ATOM      8  C   UNL     1      -0.387   5.138  -0.154  0.00  0.00    +0.050 C 
ATOM      9  C   UNL     1       0.119   3.729  -0.024  0.00  0.00    -0.026 A 
ATOM     10  C   UNL     1       1.371   3.185   0.157  0.00  0.00    +0.024 A 
ATOM     11  C   UNL     1       1.523   1.812   0.241  0.00  0.00    +0.041 A 
ATOM     12  C   UNL     1       0.414   0.989   0.143  0.00  0.00    +0.022 A 
ATOM     13  C   UNL     1      -0.840   1.530  -0.043  0.00  0.00    +0.025 A 
ATOM     14  C   UNL     1      -1.003   2.912  -0.123  0.00  0.00    +0.036 A 
ATOM     15  N   UNL     1      -2.152   3.687  -0.300  0.00  0.00    -0.286 N 
ATOM     16  C   UNL     1      -1.875   5.005  -0.329  0.00  0.00    +0.211 C 
ATOM     17  O   UNL     1      -2.671   5.910  -0.468  0.00  0.00    -0.277 OA
ATOM     18 CL   UNL     1       3.100   1.123   0.469  0.00  0.00    -0.084 Cl
ATOM     19  C   UNL     1       1.537   6.308  -0.773  0.00  0.00    -0.055 C 
ATOM     20  H   UNL     1      -3.044   3.319  -0.393  0.00  0.00    +0.155 HD
ATOM     21  N   UNL     1       0.245   5.826  -1.266  0.00  0.00    +0.394 N 
ATOM     22  H   UNL     1      -0.335   6.615  -1.572  0.00  0.00    -0.083 HD
ATOM     23  H   UNL     1       0.384   5.179  -2.051  0.00  0.00    -0.083 HD
ENDROOT
BRANCH  19  24
ATOM     24  C   UNL     1       2.049   7.485  -1.606  0.00  0.00    -0.031 C 
ATOM     25  C   UNL     1       3.446   7.882  -1.124  0.00  0.00    +0.005 C 
ATOM     26  C   UNL     1       2.115   7.076  -3.079  0.00  0.00    +0.005 C 
ENDBRANCH  19  24
BRANCH   1  27
ATOM     27  C   UNL     1      -1.256   9.514   1.094  0.00  0.00    +0.116 C 
BRANCH  27  28
ATOM     28  C   UNL     1      -1.891   9.826  -0.262  0.00  0.00    +0.019 C 
BRANCH  28  30
ATOM     29  C   UNL     1      -3.303  11.454  -1.527  0.00  0.00    +0.004 C 
ATOM     30  C   UNL     1      -2.668  11.142  -0.171  0.00  0.00    -0.002 C 
ENDBRANCH  28  30
ENDBRANCH  27  28
ENDBRANCH   1  27
TORSDOF 4
