REMARK  Name = ZINC36826293
REMARK  4 active torsions:
REMARK  status: ('A' for Active; 'I' for Inactive)
REMARK    1  A    between atoms: C_1  and  C_2
REMARK    2  A    between atoms: C_5  and  S_9
REMARK    3  A    between atoms: C_6  and  N_8
REMARK    4  A    between atoms: S_9  and  N_12
REMARK                            x       y       z     vdW  Elec       q    Type
REMARK                         _______ _______ _______ _____ _____    ______ ____
ROOT
ATOM      1  S   UNL     1       0.102  -4.365   0.145  0.00  0.00    +0.063 S 
ATOM      2  O   UNL     1      -0.677  -3.913   1.245  0.00  0.00    -0.153 OA
ATOM      3  O   UNL     1      -0.337  -5.397  -0.727  0.00  0.00    -0.153 OA
ENDROOT
BRANCH   1   4
ATOM      4  N   UNL     1       1.556  -4.856   0.766  0.00  0.00    -0.173 NA
ATOM      5  C   UNL     1       2.721  -5.049  -0.109  0.00  0.00    +0.110 C 
ATOM      6  C   UNL     1       3.287  -6.454   0.121  0.00  0.00    +0.017 C 
ATOM      7  C   UNL     1       3.576  -6.651   1.611  0.00  0.00    +0.006 C 
ATOM      8  C   UNL     1       2.268  -6.521   2.401  0.00  0.00    +0.008 C 
ATOM      9  C   UNL     1       1.713  -5.104   2.204  0.00  0.00    +0.083 C 
ATOM     10  C   UNL     1       0.371  -4.954   2.913  0.00  0.00    +0.021 C 
ATOM     11  C   UNL     1      -0.622  -5.985   2.374  0.00  0.00    +0.002 C 
ATOM     12  C   UNL     1      -0.068  -7.391   2.615  0.00  0.00    +0.000 C 
ATOM     13  C   UNL     1       1.272  -7.561   1.880  0.00  0.00    +0.005 C 
ENDBRANCH   1   4
BRANCH   1  18
ATOM     14  C   UNL     1       1.174   0.467  -3.314  0.00  0.00    +0.044 C 
ATOM     15  C   UNL     1       0.908  -0.737  -2.447  0.00  0.00    -0.049 A 
ATOM     16  C   UNL     1       0.425  -1.902  -3.014  0.00  0.00    +0.005 A 
ATOM     17  C   UNL     1       0.179  -3.009  -2.222  0.00  0.00    +0.030 A 
ATOM     18  C   UNL     1       0.416  -2.954  -0.862  0.00  0.00    +0.126 A 
ATOM     19  C   UNL     1       0.902  -1.785  -0.290  0.00  0.00    +0.051 A 
ATOM     20  C   UNL     1       1.153  -0.677  -1.089  0.00  0.00    +0.028 A 
BRANCH  19  21
ATOM     21  N   UNL     1       1.142  -1.726   1.084  0.00  0.00    -0.356 N 
ATOM     22  H   UNL     1       1.048  -2.524   1.628  0.00  0.00    +0.142 HD
ATOM     23  H   UNL     1       1.404  -0.887   1.495  0.00  0.00    +0.142 HD
ENDBRANCH  19  21
ENDBRANCH   1  18
TORSDOF 3
