REMARK  Name = ZINC47509037
REMARK  5 active torsions:
REMARK  status: ('A' for Active; 'I' for Inactive)
REMARK    1  A    between atoms: C_2  and  C_21
REMARK    2  A    between atoms: C_4  and  N_18
REMARK    3  A    between atoms: C_5  and  N_10
REMARK    4  A    between atoms: C_6  and  N_7
REMARK    5  A    between atoms: C_14  and  O_17
REMARK                            x       y       z     vdW  Elec       q    Type
REMARK                         _______ _______ _______ _____ _____    ______ ____
ROOT
ATOM      1  C   UNL     1      -0.020   1.368  -0.069  0.00  0.00    +0.047 A 
ATOM      2  C   UNL     1       1.160   2.086   0.009  0.00  0.00    +0.059 A 
ATOM      3  C   UNL     1       2.372   1.424   0.073  0.00  0.00    +0.047 A 
ATOM      4  C   UNL     1       2.409   0.044   0.058  0.00  0.00    +0.150 A 
ATOM      5  C   UNL     1       1.226  -0.680  -0.020  0.00  0.00    +0.091 A 
ATOM      6  C   UNL     1       0.010  -0.013  -0.084  0.00  0.00    +0.150 A 
ENDROOT
BRANCH   5   7
ATOM      7  N   UNL     1       1.260  -2.077  -0.035  0.00  0.00    -0.324 N 
ATOM      8  C   UNL     1       1.407  -2.808  -1.301  0.00  0.00    +0.105 C 
ATOM      9  C   UNL     1       2.591  -3.773  -1.178  0.00  0.00    +0.021 C 
ATOM     10  C   UNL     1       2.388  -4.669   0.046  0.00  0.00    +0.034 C 
ATOM     11  C   UNL     1       2.334  -3.806   1.309  0.00  0.00    +0.132 C 
ATOM     12  C   UNL     1       1.154  -2.842   1.214  0.00  0.00    +0.136 C 
BRANCH  11  13
ATOM     13  O   UNL     1       2.176  -4.646   2.454  0.00  0.00    -0.390 OA
ATOM     14  H   UNL     1       2.892  -5.285   2.575  0.00  0.00    +0.210 HD
ENDBRANCH  11  13
ENDBRANCH   5   7
BRANCH   2  15
ATOM     15  C   UNL     1       1.124   3.592   0.024  0.00  0.00    +0.418 C 
ATOM     16  F   UNL     1       1.034   4.043   1.346  0.00  0.00    -0.166 F 
ATOM     17  F   UNL     1       2.291   4.093  -0.561  0.00  0.00    -0.166 F 
ATOM     18  F   UNL     1       0.011   4.040  -0.697  0.00  0.00    -0.166 F 
ENDBRANCH   2  15
BRANCH   6  19
ATOM     19  N   UNL     1      -1.253  -0.780  -0.168  0.00  0.00    +0.058 N 
ATOM     20  O   UNL     1      -2.312  -0.198  -0.224  0.00  0.00    -0.126 OA
ATOM     21  O   UNL     1      -1.227  -1.988  -0.181  0.00  0.00    -0.126 OA
ENDBRANCH   6  19
BRANCH   4  22
ATOM     22  N   UNL     1       3.708  -0.664   0.126  0.00  0.00    +0.058 N 
ATOM     23  O   UNL     1       4.740  -0.037   0.083  0.00  0.00    -0.126 OA
ATOM     24  O   UNL     1       3.735  -1.868   0.225  0.00  0.00    -0.126 OA
ENDBRANCH   4  22
TORSDOF 5
