REMARK  Name = ZINC36147588
REMARK  6 active torsions:
REMARK  status: ('A' for Active; 'I' for Inactive)
REMARK    1  A    between atoms: C_3  and  N_24
REMARK    2  A    between atoms: C_6  and  C_7
REMARK    3  A    between atoms: C_7  and  C_9
REMARK    4  A    between atoms: C_7  and  O_23
REMARK    5  A    between atoms: C_9  and  N_10
REMARK    6  A    between atoms: C_11  and  C_13
REMARK                            x       y       z     vdW  Elec       q    Type
REMARK                         _______ _______ _______ _____ _____    ______ ____
ROOT
ATOM      1  N   UNL     1      -2.911  -1.902   1.457  0.00  0.00    -0.312 N 
ATOM      2  C   UNL     1      -3.427  -2.340   2.622  0.00  0.00    +0.219 C 
ATOM      3  O   UNL     1      -2.849  -2.114   3.664  0.00  0.00    -0.275 OA
ATOM      4  H   UNL     1      -3.373  -2.083   0.623  0.00  0.00    +0.149 HD
ENDROOT
BRANCH   2   5
ATOM      5  C   UNL     1      -4.722  -3.111   2.630  0.00  0.00    +0.048 C 
ATOM      6  C   UNL     1      -5.835  -2.246   2.036  0.00  0.00    +0.019 C 
ATOM      7  C   UNL     1      -7.149  -3.029   2.044  0.00  0.00    -0.009 C 
ATOM      8  C   UNL     1      -7.510  -3.405   3.482  0.00  0.00    +0.007 C 
ATOM      9  C   UNL     1      -6.397  -4.271   4.077  0.00  0.00    -0.009 C 
ATOM     10  C   UNL     1      -5.082  -3.488   4.069  0.00  0.00    +0.019 C 
ATOM     11  C   UNL     1      -6.238  -5.543   3.241  0.00  0.00    +0.007 C 
ATOM     12  C   UNL     1      -5.878  -5.166   1.803  0.00  0.00    -0.009 C 
ATOM     13  C   UNL     1      -6.991  -4.301   1.208  0.00  0.00    +0.007 C 
ATOM     14  C   UNL     1      -4.563  -4.383   1.794  0.00  0.00    +0.019 C 
ENDBRANCH   2   5
BRANCH   1  15
ATOM     15  C   UNL     1      -1.653  -1.152   1.449  0.00  0.00    +0.140 C 
BRANCH  15  16
ATOM     16  C   UNL     1      -1.293  -0.775   0.010  0.00  0.00    +0.162 C 
BRANCH  16  22
ATOM     17  C   UNL     1      -0.017   1.378   0.010  0.00  0.00    +0.008 A 
ATOM     18  C   UNL     1       1.171   2.086   0.002  0.00  0.00    +0.033 A 
ATOM     19  C   UNL     1       2.377   1.411  -0.013  0.00  0.00    +0.126 A 
ATOM     20  C   UNL     1       2.396   0.029  -0.020  0.00  0.00    +0.033 A 
ATOM     21  C   UNL     1       1.208  -0.679  -0.012  0.00  0.00    +0.008 A 
ATOM     22  C   UNL     1       0.002  -0.004   0.002  0.00  0.00    -0.018 A 
BRANCH  19  23
ATOM     23  N   UNL     1       3.649   2.168  -0.022  0.00  0.00    +0.056 N 
ATOM     24  O   UNL     1       3.633   3.377  -0.016  0.00  0.00    -0.126 OA
ATOM     25  O   UNL     1       4.704   1.578  -0.035  0.00  0.00    -0.126 OA
ENDBRANCH  19  23
ENDBRANCH  16  22
BRANCH  16  26
ATOM     26  O   UNL     1      -1.145  -1.963  -0.770  0.00  0.00    -0.386 OA
ATOM     27  H   UNL     1      -0.455  -2.560  -0.451  0.00  0.00    +0.210 HD
ENDBRANCH  16  26
ENDBRANCH  15  16
ENDBRANCH   1  15
TORSDOF 6
