REMARK  Name = ZINC30554684
REMARK  7 active torsions:
REMARK  status: ('A' for Active; 'I' for Inactive)
REMARK    1  A    between atoms: C_1  and  C_2
REMARK    2  A    between atoms: C_5  and  N_9
REMARK    3  A    between atoms: N_9  and  N_10
REMARK    4  A    between atoms: C_11  and  C_13
REMARK    5  A    between atoms: C_13  and  C_15
REMARK    6  A    between atoms: C_13  and  N_16
REMARK    7  A    between atoms: C_17  and  C_19
REMARK                            x       y       z     vdW  Elec       q    Type
REMARK                         _______ _______ _______ _____ _____    ______ ____
ROOT
ATOM      1  N   UNL     1       0.074  -4.876   1.187  0.00  0.00    -0.235 N 
ATOM      2  C   UNL     1       0.092  -6.224   1.179  0.00  0.00    +0.249 C 
ATOM      3  O   UNL     1       0.095  -6.824   0.124  0.00  0.00    -0.272 OA
ATOM      4  H   UNL     1       0.072  -4.396   2.030  0.00  0.00    +0.173 HD
ENDROOT
BRANCH   1   5
ATOM      5  N   UNL     1       0.059  -4.168  -0.022  0.00  0.00    -0.264 N 
ATOM      6  H   UNL     1       0.060  -4.648  -0.865  0.00  0.00    +0.170 HD
BRANCH   5  11
ATOM      7  C   UNL     1      -0.018   1.503   0.010  0.00  0.00    +0.045 C 
ATOM      8  C   UNL     1       0.002  -0.004   0.002  0.00  0.00    -0.032 A 
ATOM      9  C   UNL     1       0.006  -0.688  -1.200  0.00  0.00    +0.006 A 
ATOM     10  C   UNL     1       0.025  -2.068  -1.212  0.00  0.00    +0.025 A 
ATOM     11  C   UNL     1       0.040  -2.772  -0.013  0.00  0.00    +0.046 A 
ATOM     12  C   UNL     1       0.037  -2.083   1.193  0.00  0.00    +0.044 A 
ATOM     13  C   UNL     1       0.023  -0.701   1.197  0.00  0.00    +0.046 A 
ATOM     14 CL   UNL     1       0.025   0.161   2.704  0.00  0.00    -0.083 Cl
ENDBRANCH   5  11
ENDBRANCH   1   5
BRANCH   2  15
ATOM     15  C   UNL     1       0.109  -6.985   2.479  0.00  0.00    +0.158 C 
ATOM     16  C   UNL     1       1.357  -6.604   3.277  0.00  0.00    +0.038 C 
BRANCH  15  17
ATOM     17  N   UNL     1       0.127  -8.424   2.202  0.00  0.00    -0.300 N 
ATOM     18  C   UNL     1      -0.350  -9.291   3.116  0.00  0.00    +0.251 C 
ATOM     19  O   UNL     1      -0.796  -8.880   4.172  0.00  0.00    -0.270 OA
ATOM     20  H   UNL     1       0.482  -8.751   1.361  0.00  0.00    +0.150 HD
BRANCH  18  21
ATOM     21  C   UNL     1      -0.333 -10.731   2.840  0.00  0.00    +0.074 A 
ATOM     22  C   UNL     1      -0.775 -11.779   3.633  0.00  0.00    +0.021 A 
ATOM     23  C   UNL     1      -0.625 -13.036   3.098  0.00  0.00    +0.008 A 
ATOM     24  C   UNL     1      -0.072 -13.168   1.867  0.00  0.00    +0.046 A 
ATOM     25  S   UNL     1       0.255 -11.590   1.393  0.00  0.00    -0.092 S 
ENDBRANCH  18  21
ENDBRANCH  15  17
ENDBRANCH   2  15
TORSDOF 5
