REMARK  Name = ZINC34689141
REMARK  4 active torsions:
REMARK  status: ('A' for Active; 'I' for Inactive)
REMARK    1  A    between atoms: C_1  and  C_2
REMARK    2  A    between atoms: N_11  and  C_12
REMARK    3  A    between atoms: C_12  and  C_13
REMARK    4  A    between atoms: C_21  and  C_24
REMARK                            x       y       z     vdW  Elec       q    Type
REMARK                         _______ _______ _______ _____ _____    ______ ____
ROOT
ATOM      1  C   UNL     1       2.070   0.935   2.750  0.00  0.00    -0.028 A 
ATOM      2  C   UNL     1       2.112   2.236   2.286  0.00  0.00    +0.009 A 
ATOM      3  C   UNL     1       2.088   3.295   3.174  0.00  0.00    +0.048 A 
ATOM      4  C   UNL     1       2.023   3.055   4.538  0.00  0.00    +0.142 A 
ATOM      5  C   UNL     1       1.984   1.744   5.004  0.00  0.00    +0.070 A 
ATOM      6  C   UNL     1       2.001   0.686   4.109  0.00  0.00    +0.031 A 
ATOM      7  N   UNL     1       1.925   1.496   6.385  0.00  0.00    -0.337 N 
ATOM      8  C   UNL     1       1.595   2.627   7.269  0.00  0.00    +0.145 C 
ATOM      9  C   UNL     1       2.367   3.853   6.763  0.00  0.00    +0.187 C 
ATOM     10  O   UNL     1       1.996   4.103   5.405  0.00  0.00    -0.486 OA
ATOM     11  C   UNL     1       2.020   5.069   7.624  0.00  0.00    +0.053 C 
ATOM     12  H   UNL     1       2.096   0.612   6.743  0.00  0.00    +0.146 HD
ENDROOT
BRANCH   1  13
ATOM     13  C   UNL     1       2.094  -0.214   1.775  0.00  0.00    +0.140 C 
BRANCH  13  23
ATOM     14  C   UNL     1       0.282  -2.756   2.129  0.00  0.00    +0.028 C 
ATOM     15  C   UNL     1      -0.244  -1.325   2.002  0.00  0.00    +0.075 C 
ATOM     16  C   UNL     1      -1.504  -1.295   1.122  0.00  0.00    +0.059 C 
ATOM     17  C   UNL     1      -1.131  -0.411  -0.046  0.00  0.00    -0.025 A 
ATOM     18  C   UNL     1      -1.857  -0.019  -1.155  0.00  0.00    +0.005 A 
ATOM     19  C   UNL     1      -1.284   0.809  -2.102  0.00  0.00    +0.000 A 
ATOM     20  C   UNL     1       0.018   1.245  -1.939  0.00  0.00    +0.002 A 
ATOM     21  C   UNL     1       0.746   0.856  -0.835  0.00  0.00    +0.023 A 
ATOM     22  C   UNL     1       0.175   0.020   0.127  0.00  0.00    +0.033 A 
ATOM     23  N   UNL     1       0.733  -0.484   1.305  0.00  0.00    -0.322 N 
ENDBRANCH  13  23
ENDBRANCH   1  13
TORSDOF 2
