REMARK  Name = ZINC08920099
REMARK  9 active torsions:
REMARK  status: ('A' for Active; 'I' for Inactive)
REMARK    1  A    between atoms: C_1  and  C_2
REMARK    2  A    between atoms: C_2  and  O_3
REMARK    3  A    between atoms: O_3  and  C_4
REMARK    4  A    between atoms: C_7  and  C_9
REMARK    5  A    between atoms: C_13  and  N_14
REMARK    6  A    between atoms: C_15  and  C_17
REMARK    7  A    between atoms: C_20  and  S_23
REMARK    8  A    between atoms: S_23  and  N_26
REMARK    9  A    between atoms: C_34  and  N_63
REMARK                            x       y       z     vdW  Elec       q    Type
REMARK                         _______ _______ _______ _____ _____    ______ ____
ROOT
ATOM      1  C   UNL     1      -3.569   5.860   7.256  0.00  0.00    +0.069 A 
ATOM      2  C   UNL     1      -4.434   6.007   8.411  0.00  0.00    -0.027 A 
ATOM      3  C   UNL     1      -5.222   4.941   8.682  0.00  0.00    -0.021 A 
ATOM      4  S   UNL     1      -4.834   3.761   7.424  0.00  0.00    -0.079 S 
ATOM      5  C   UNL     1      -3.634   4.661   6.556  0.00  0.00    +0.085 A 
ATOM      6  C   UNL     1      -6.201   4.824   9.808  0.00  0.00    -0.036 C 
ATOM      7  C   UNL     1      -5.799   7.195  10.099  0.00  0.00    -0.074 C 
ATOM      8  C   UNL     1      -4.498   7.249   9.293  0.00  0.00    +0.018 C 
ATOM      9  C   UNL     1      -6.948   5.946  11.826  0.00  0.00    -0.096 C 
ATOM     10  N   UNL     1      -5.894   5.893  10.790  0.00  0.00    +0.381 N 
ATOM     11  H   UNL     1      -4.994   5.686  11.239  0.00  0.00    -0.082 HD
ENDROOT
BRANCH   1  15
ATOM     12  C   UNL     1      -0.572   7.970   6.959  0.00  0.00    +0.407 C 
ATOM     13  O   UNL     1      -0.949   8.816   6.173  0.00  0.00    -0.226 OA
ATOM     14  N   UNL     1      -1.408   6.982   7.338  0.00  0.00    -0.217 N 
ATOM     15  C   UNL     1      -2.661   6.933   6.844  0.00  0.00    +0.255 C 
ATOM     16  O   UNL     1      -3.038   7.780   6.057  0.00  0.00    -0.270 OA
ATOM     17  H   UNL     1      -1.107   6.307   7.966  0.00  0.00    +0.161 HD
BRANCH  12  18
ATOM     18  O   UNL     1       0.679   8.019   7.452  0.00  0.00    -0.450 OA
BRANCH  18  20
ATOM     19  C   UNL     1       2.898   9.000   7.662  0.00  0.00    +0.048 C 
ATOM     20  C   UNL     1       1.523   9.110   7.000  0.00  0.00    +0.230 C 
ENDBRANCH  18  20
ENDBRANCH  12  18
ENDBRANCH   1  15
BRANCH   5  21
ATOM     21  N   UNL     1      -2.919   4.281   5.432  0.00  0.00    -0.275 N 
ATOM     22  C   UNL     1      -3.119   3.066   4.885  0.00  0.00    +0.249 C 
ATOM     23  O   UNL     1      -3.928   2.303   5.378  0.00  0.00    -0.270 OA
ATOM     24  H   UNL     1      -2.274   4.889   5.039  0.00  0.00    +0.156 HD
BRANCH  22  25
ATOM     25  C   UNL     1      -2.356   2.660   3.686  0.00  0.00    +0.037 A 
ATOM     26  C   UNL     1      -2.561   1.402   3.117  0.00  0.00    +0.015 A 
ATOM     27  C   UNL     1      -1.846   1.030   1.998  0.00  0.00    +0.029 A 
ATOM     28  C   UNL     1      -0.927   1.900   1.439  0.00  0.00    +0.106 A 
ATOM     29  C   UNL     1      -0.715   3.147   2.002  0.00  0.00    +0.029 A 
ATOM     30  C   UNL     1      -1.427   3.534   3.118  0.00  0.00    +0.015 A 
BRANCH  28  31
ATOM     31  S   UNL     1      -0.017   1.417   0.010  0.00  0.00    +0.061 S 
ATOM     32  O   UNL     1       0.002  -0.004   0.002  0.00  0.00    -0.153 OA
ATOM     33  O   UNL     1       1.172   2.195   0.003  0.00  0.00    -0.153 OA
BRANCH  31  34
ATOM     34  N   UNL     1      -0.897   1.885  -1.312  0.00  0.00    -0.177 NA
ATOM     35  C   UNL     1      -1.909   1.071  -2.000  0.00  0.00    +0.109 C 
ATOM     36  C   UNL     1      -2.444   1.906  -3.183  0.00  0.00    +0.018 C 
ATOM     37  C   UNL     1      -1.295   2.918  -3.438  0.00  0.00    +0.018 C 
ATOM     38  C   UNL     1      -0.792   3.186  -1.998  0.00  0.00    +0.109 C 
ENDBRANCH  31  34
ENDBRANCH  28  31
ENDBRANCH  22  25
ENDBRANCH   5  21
TORSDOF 7
