REMARK  Name = ZINC38546899
REMARK  9 active torsions:
REMARK  status: ('A' for Active; 'I' for Inactive)
REMARK    1  A    between atoms: C_1  and  C_2
REMARK    2  A    between atoms: N_8  and  C_9
REMARK    3  A    between atoms: C_9  and  C_11
REMARK    4  A    between atoms: C_9  and  C_19
REMARK    5  A    between atoms: C_14  and  O_17
REMARK    6  A    between atoms: O_17  and  C_18
REMARK    7  A    between atoms: C_21  and  C_32
REMARK    8  A    between atoms: C_23  and  N_24
REMARK    9  A    between atoms: C_25  and  C_27
REMARK                            x       y       z     vdW  Elec       q    Type
REMARK                         _______ _______ _______ _____ _____    ______ ____
ROOT
ATOM      1  C   UNL     1      -0.042  -2.088   3.577  0.00  0.00    +0.135 C 
ENDROOT
BRANCH   1   9
ATOM      2  C   UNL     1      -3.184  -6.020   4.552  0.00  0.00    +0.044 C 
ATOM      3  C   UNL     1      -2.416  -5.542   3.347  0.00  0.00    -0.046 A 
ATOM      4  C   UNL     1      -2.508  -6.212   2.134  0.00  0.00    +0.021 A 
ATOM      5  C   UNL     1      -1.792  -5.748   1.049  0.00  0.00    +0.084 A 
ATOM      6  N   UNL     1      -1.024  -4.679   1.152  0.00  0.00    -0.350 N 
ATOM      7  C   UNL     1      -0.910  -4.013   2.291  0.00  0.00    +0.097 A 
ATOM      8  C   UNL     1      -1.608  -4.422   3.423  0.00  0.00    +0.045 A 
ATOM      9  N   UNL     1      -0.089  -2.893   2.354  0.00  0.00    -0.320 N 
ATOM     10  H   UNL     1       0.452  -2.644   1.589  0.00  0.00    +0.148 HD
ATOM     11  H   UNL     1      -0.532  -4.374   0.374  0.00  0.00    +0.166 HD
ENDBRANCH   1   9
BRANCH   1  12
ATOM     12  C   UNL     1       1.238  -1.295   3.607  0.00  0.00    -0.023 A 
ATOM     13  C   UNL     1       1.649  -0.604   2.482  0.00  0.00    +0.009 A 
ATOM     14  C   UNL     1       2.823   0.124   2.507  0.00  0.00    +0.046 A 
ATOM     15  C   UNL     1       3.590   0.161   3.662  0.00  0.00    +0.120 A 
ATOM     16  C   UNL     1       3.176  -0.532   4.790  0.00  0.00    +0.046 A 
ATOM     17  C   UNL     1       1.998  -1.254   4.762  0.00  0.00    +0.009 A 
BRANCH  15  18
ATOM     18  O   UNL     1       4.746   0.876   3.689  0.00  0.00    -0.495 OA
ATOM     19  C   UNL     1       5.484   0.869   4.912  0.00  0.00    +0.277 C 
ENDBRANCH  15  18
ENDBRANCH   1  12
BRANCH   1  20
ATOM     20  C   UNL     1      -1.218  -1.145   3.604  0.00  0.00    +0.006 A 
ATOM     21  C   UNL     1      -1.812  -0.727   2.427  0.00  0.00    +0.018 A 
ATOM     22  C   UNL     1      -2.867   0.120   2.487  0.00  0.00    -0.011 A 
ATOM     23  S   UNL     1      -3.056   0.357   4.246  0.00  0.00    -0.078 S 
ATOM     24  C   UNL     1      -1.719  -0.694   4.788  0.00  0.00    +0.078 A 
ATOM     25  C   UNL     1      -3.673   0.711   1.359  0.00  0.00    +0.051 C 
BRANCH  24  26
ATOM     26  N   UNL     1      -1.295  -0.979   6.088  0.00  0.00    -0.273 N 
ATOM     27  C   UNL     1      -1.930  -0.425   7.140  0.00  0.00    +0.284 C 
ATOM     28  O   UNL     1      -2.873   0.322   6.957  0.00  0.00    -0.266 OA
ATOM     29  H   UNL     1      -0.543  -1.574   6.233  0.00  0.00    +0.156 HD
BRANCH  27  30
ATOM     30  C   UNL     1      -1.484  -0.724   8.505  0.00  0.00    +0.189 A 
ATOM     31  C   UNL     1      -2.039  -0.238   9.654  0.00  0.00    +0.054 A 
ATOM     32  C   UNL     1      -1.302  -0.781  10.719  0.00  0.00    +0.042 A 
ATOM     33  C   UNL     1      -0.342  -1.564  10.179  0.00  0.00    +0.196 A 
ATOM     34  O   UNL     1      -0.459  -1.531   8.845  0.00  0.00    -0.458 OA
ENDBRANCH  27  30
ENDBRANCH  24  26
ENDBRANCH   1  20
TORSDOF 6
