REMARK  Name = ZINC13016688
REMARK  8 active torsions:
REMARK  status: ('A' for Active; 'I' for Inactive)
REMARK    1  A    between atoms: C_1  and  C_2
REMARK    2  A    between atoms: C_6  and  C_14
REMARK    3  A    between atoms: C_12  and  C_13
REMARK    4  A    between atoms: C_14  and  S_15
REMARK    5  A    between atoms: S_15  and  C_16
REMARK    6  A    between atoms: C_16  and  C_17
REMARK    7  A    between atoms: C_29  and  C_30
REMARK    8  A    between atoms: C_29  and  C_31
REMARK                            x       y       z     vdW  Elec       q    Type
REMARK                         _______ _______ _______ _____ _____    ______ ____
ROOT
ATOM      1  C   UNL     1      -1.700  -0.668  -1.719  0.00  0.00    +0.165 C 
ENDROOT
BRANCH   1   2
ATOM      2  C   UNL     1      -2.754  -0.098  -0.805  0.00  0.00    +0.231 C 
ATOM      3  O   UNL     1      -3.673  -0.794  -0.430  0.00  0.00    -0.274 OA
ATOM      4  N   UNL     1      -2.674   1.187  -0.404  0.00  0.00    -0.255 N 
ATOM      5  C   UNL     1      -1.556   1.976  -0.718  0.00  0.00    +0.059 A 
ATOM      6  C   UNL     1      -0.305   1.409  -0.882  0.00  0.00    +0.025 A 
ATOM      7  C   UNL     1       0.778   2.213  -1.186  0.00  0.00    +0.002 A 
ATOM      8  C   UNL     1       0.613   3.580  -1.320  0.00  0.00    +0.002 A 
ATOM      9  C   UNL     1      -0.634   4.153  -1.154  0.00  0.00    +0.025 A 
ATOM     10  C   UNL     1      -1.725   3.355  -0.851  0.00  0.00    +0.055 A 
ATOM     11  N   UNL     1      -2.998   3.913  -0.689  0.00  0.00    -0.282 N 
ATOM     12  C   UNL     1      -3.998   3.201  -0.141  0.00  0.00    +0.241 C 
ATOM     13  O   UNL     1      -5.105   3.689  -0.054  0.00  0.00    -0.273 OA
ATOM     14  C   UNL     1      -3.756   1.806   0.376  0.00  0.00    +0.113 C 
ATOM     15  C   UNL     1      -5.033   0.977   0.229  0.00  0.00    +0.042 C 
ATOM     16  C   UNL     1      -3.353   1.868   1.851  0.00  0.00    +0.042 C 
ATOM     17  H   UNL     1      -3.164   4.822  -0.985  0.00  0.00    +0.155 HD
ENDBRANCH   1   2
BRANCH   1  18
ATOM     18  S   UNL     1      -2.357  -2.137  -2.556  0.00  0.00    -0.147 S 
BRANCH  18  19
ATOM     19  C   UNL     1      -0.986  -2.696  -3.604  0.00  0.00    +0.105 C 
BRANCH  19  25
ATOM     20  C   UNL     1      -0.570  -9.191  -2.241  0.00  0.00    +0.044 C 
ATOM     21  C   UNL     1      -0.791  -7.809  -2.801  0.00  0.00    -0.044 A 
ATOM     22  C   UNL     1      -0.392  -6.700  -2.069  0.00  0.00    +0.004 A 
ATOM     23  C   UNL     1      -0.583  -5.439  -2.560  0.00  0.00    +0.012 A 
ATOM     24  C   UNL     1      -1.185  -5.266  -3.810  0.00  0.00    +0.022 A 
ATOM     25  C   UNL     1      -1.404  -3.927  -4.365  0.00  0.00    -0.020 A 
ATOM     26  C   UNL     1      -1.988  -3.827  -5.586  0.00  0.00    +0.097 A 
ATOM     27  C   UNL     1      -2.371  -4.996  -6.278  0.00  0.00    +0.338 A 
ATOM     28  O   UNL     1      -2.894  -4.893  -7.373  0.00  0.00    -0.245 OA
ATOM     29  O   UNL     1      -2.173  -6.219  -5.761  0.00  0.00    -0.422 OA
ATOM     30  C   UNL     1      -1.597  -6.387  -4.552  0.00  0.00    +0.142 A 
ATOM     31  C   UNL     1      -1.398  -7.659  -4.030  0.00  0.00    -0.005 A 
ATOM     32  C   UNL     1      -1.827  -8.873  -4.814  0.00  0.00    +0.048 C 
ENDBRANCH  19  25
ENDBRANCH  18  19
ENDBRANCH   1  18
TORSDOF 4
