REMARK  Name = ZINC19805014
REMARK  4 active torsions:
REMARK  status: ('A' for Active; 'I' for Inactive)
REMARK    1  A    between atoms: C_12  and  C_27
REMARK    2  A    between atoms: C_12  and  C_29
REMARK    3  A    between atoms: C_13  and  C_20
REMARK    4  A    between atoms: C_15  and  C_17
REMARK                            x       y       z     vdW  Elec       q    Type
REMARK                         _______ _______ _______ _____ _____    ______ ____
ROOT
ATOM      1  C   UNL     1      -0.784  -0.760   4.482  0.00  0.00    +0.001 A 
ATOM      2  C   UNL     1       0.342  -0.619   3.690  0.00  0.00    +0.000 A 
ATOM      3  C   UNL     1       0.343   0.275   2.632  0.00  0.00    +0.006 A 
ATOM      4  C   UNL     1      -0.778   1.024   2.364  0.00  0.00    -0.017 A 
ATOM      5  C   UNL     1      -1.923   0.890   3.160  0.00  0.00    -0.019 A 
ATOM      6  C   UNL     1      -1.915  -0.013   4.224  0.00  0.00    +0.008 A 
ATOM      7  C   UNL     1      -3.127   1.698   2.880  0.00  0.00    +0.023 C 
ATOM      8  C   UNL     1      -3.262   2.285   1.673  0.00  0.00    +0.072 C 
ATOM      9  N   UNL     1      -2.220   2.094   0.780  0.00  0.00    -0.314 N 
ATOM     10  C   UNL     1      -0.810   1.999   1.217  0.00  0.00    +0.139 C 
ATOM     11  C   UNL     1      -0.018   1.468   0.010  0.00  0.00    +0.174 C 
ATOM     12  C   UNL     1      -0.841   2.018  -1.188  0.00  0.00    +0.085 C 
ATOM     13  C   UNL     1      -2.294   1.881  -0.667  0.00  0.00    +0.169 C 
ENDROOT
BRANCH  12  14
ATOM     14  C   UNL     1      -0.628   1.176  -2.420  0.00  0.00    -0.038 A 
ATOM     15  C   UNL     1      -0.953  -0.168  -2.403  0.00  0.00    +0.004 A 
ATOM     16  C   UNL     1      -0.762  -0.939  -3.534  0.00  0.00    +0.001 A 
ATOM     17  C   UNL     1      -0.237  -0.369  -4.679  0.00  0.00    +0.014 A 
ATOM     18  C   UNL     1       0.093   0.974  -4.695  0.00  0.00    +0.014 A 
ATOM     19  C   UNL     1      -0.103   1.746  -3.564  0.00  0.00    +0.018 A 
ATOM     20  I   UNL     1       0.889   1.837  -6.429  0.00  0.00    -0.044 I 
ENDBRANCH  12  14
BRANCH  13  21
ATOM     21  C   UNL     1      -3.175   2.925  -1.303  0.00  0.00    +0.232 C 
ATOM     22  O   UNL     1      -3.457   3.934  -0.693  0.00  0.00    -0.274 OA
ATOM     23  N   UNL     1      -3.650   2.736  -2.550  0.00  0.00    -0.328 N 
ATOM     24  H   UNL     1      -4.293   3.498  -3.015  0.00  0.00    +0.145 HD
ATOM     25  H   UNL     1      -3.394   1.821  -3.104  0.00  0.00    +0.145 HD
ENDBRANCH  13  21
BRANCH  11  26
ATOM     26  C   UNL     1       0.002  -0.004   0.002  0.00  0.00    +0.087 C 
ATOM     27  N   UNL     1       0.018  -1.140  -0.004  0.00  0.00    -0.195 NA
ENDBRANCH  11  26
BRANCH  11  28
ATOM     28  C   UNL     1       1.351   2.009   0.000  0.00  0.00    +0.087 C 
ATOM     29  N   UNL     1       2.407   2.427  -0.008  0.00  0.00    -0.195 NA
ENDBRANCH  11  28
TORSDOF 4
