REMARK  Name = ZINC20355459
REMARK  11 active torsions:
REMARK  status: ('A' for Active; 'I' for Inactive)
REMARK    1  A    between atoms: C_1  and  C_2
REMARK    2  A    between atoms: C_5  and  C_38
REMARK    3  A    between atoms: N_8  and  S_10
REMARK    4  A    between atoms: S_10  and  C_13
REMARK    5  A    between atoms: N_19  and  C_24
REMARK    6  A    between atoms: C_24  and  C_25
REMARK    7  A    between atoms: N_27  and  C_28
REMARK    8  A    between atoms: C_28  and  C_29
REMARK    9  A    between atoms: C_29  and  C_30
REMARK   10  A    between atoms: C_30  and  S_31
REMARK   11  A    between atoms: S_31  and  C_32
REMARK                            x       y       z     vdW  Elec       q    Type
REMARK                         _______ _______ _______ _____ _____    ______ ____
ROOT
ATOM      1  C   UNL     1      -1.898   2.539   1.708  0.00  0.00    +0.107 A 
ATOM      2  C   UNL     1      -1.475   3.677   2.371  0.00  0.00    +0.032 A 
ATOM      3  C   UNL     1      -1.820   3.881   3.695  0.00  0.00    +0.049 A 
ATOM      4  C   UNL     1      -2.591   2.943   4.359  0.00  0.00    +0.143 A 
ATOM      5  C   UNL     1      -3.016   1.796   3.691  0.00  0.00    +0.081 A 
ATOM      6  C   UNL     1      -2.673   1.600   2.364  0.00  0.00    +0.055 A 
ATOM      7  N   UNL     1      -3.796   0.854   4.376  0.00  0.00    -0.256 N 
ATOM      8  C   UNL     1      -4.379   1.209   5.542  0.00  0.00    +0.258 C 
ATOM      9  O   UNL     1      -5.032   0.401   6.167  0.00  0.00    -0.271 OA
ATOM     10  C   UNL     1      -4.213   2.614   6.062  0.00  0.00    +0.325 C 
ATOM     11  O   UNL     1      -2.942   3.129   5.659  0.00  0.00    -0.481 OA
ENDROOT
BRANCH   1  12
ATOM     12  S   UNL     1      -1.454   2.289   0.021  0.00  0.00    +0.061 S 
ATOM     13  O   UNL     1      -1.189   3.575  -0.524  0.00  0.00    -0.153 OA
ATOM     14  O   UNL     1      -2.429   1.414  -0.530  0.00  0.00    -0.153 OA
BRANCH  12  20
ATOM     15  C   UNL     1       1.002  -2.001  -1.122  0.00  0.00    +0.009 C 
ATOM     16  C   UNL     1       0.858  -0.479  -1.176  0.00  0.00    +0.002 C 
ATOM     17  C   UNL     1       2.242   0.168  -1.090  0.00  0.00    +0.009 C 
ATOM     18  C   UNL     1       2.103   1.689  -1.177  0.00  0.00    +0.002 C 
ATOM     19  C   UNL     1       1.261   2.189   0.002  0.00  0.00    +0.112 C 
ATOM     20  N   UNL     1      -0.018   1.465   0.010  0.00  0.00    -0.176 NA
ATOM     21  C   UNL     1       0.002  -0.004   0.002  0.00  0.00    +0.112 C 
ATOM     22  C   UNL     1       3.489   2.333  -1.124  0.00  0.00    +0.009 C 
ENDBRANCH  12  20
ENDBRANCH   1  12
BRANCH   7  23
ATOM     23  C   UNL     1      -3.975  -0.497   3.837  0.00  0.00    +0.209 C 
BRANCH  23  24
ATOM     24  C   UNL     1      -2.886  -1.396   4.361  0.00  0.00    +0.231 C 
ATOM     25  O   UNL     1      -2.042  -0.953   5.111  0.00  0.00    -0.274 OA
ATOM     26  N   UNL     1      -2.849  -2.693   3.996  0.00  0.00    -0.314 N 
ATOM     27  H   UNL     1      -3.613  -3.095   3.315  0.00  0.00    +0.149 HD
BRANCH  26  28
ATOM     28  C   UNL     1      -1.789  -3.567   4.505  0.00  0.00    +0.105 C 
BRANCH  28  29
ATOM     29  C   UNL     1      -1.977  -4.977   3.942  0.00  0.00    +0.029 C 
BRANCH  29  30
ATOM     30  C   UNL     1      -0.870  -5.890   4.474  0.00  0.00    +0.071 C 
BRANCH  30  31
ATOM     31  S   UNL     1      -1.093  -7.562   3.806  0.00  0.00    -0.157 S 
BRANCH  31  32
ATOM     32  C   UNL     1       0.280  -8.507   4.523  0.00  0.00    +0.046 C 
ATOM     33  C   UNL     1       1.607  -7.963   3.991  0.00  0.00    +0.014 C 
ATOM     34  C   UNL     1       2.764  -8.760   4.596  0.00  0.00    +0.001 C 
ATOM     35  C   UNL     1       2.626 -10.234   4.209  0.00  0.00    +0.000 C 
ATOM     36  C   UNL     1       1.298 -10.778   4.741  0.00  0.00    +0.001 C 
ATOM     37  C   UNL     1       0.141  -9.981   4.136  0.00  0.00    +0.014 C 
ENDBRANCH  31  32
ENDBRANCH  30  31
ENDBRANCH  29  30
ENDBRANCH  28  29
ENDBRANCH  26  28
ENDBRANCH  23  24
ENDBRANCH   7  23
TORSDOF 9
