REMARK  Name = ZINC35964454
REMARK  9 active torsions:
REMARK  status: ('A' for Active; 'I' for Inactive)
REMARK    1  A    between atoms: C_1  and  C_2
REMARK    2  A    between atoms: C_2  and  N_3
REMARK    3  A    between atoms: C_6  and  C_11
REMARK    4  A    between atoms: N_19  and  C_21
REMARK    5  A    between atoms: C_21  and  C_23
REMARK    6  A    between atoms: C_21  and  C_30
REMARK    7  A    between atoms: C_23  and  C_24
REMARK    8  A    between atoms: N_32  and  C_33
REMARK    9  A    between atoms: C_33  and  C_34
REMARK                            x       y       z     vdW  Elec       q    Type
REMARK                         _______ _______ _______ _____ _____    ______ ____
ROOT
ATOM      1  N   UNL     1       0.711  -0.489   1.189  0.00  0.00    -0.257 N 
ATOM      2  C   UNL     1       2.060  -0.680   1.102  0.00  0.00    +0.042 C 
ATOM      3  C   UNL     1       2.772  -1.125   2.157  0.00  0.00    +0.058 C 
ATOM      4  C   UNL     1       2.024  -1.405   3.445  0.00  0.00    +0.142 C 
ATOM      5  N   UNL     1       0.571  -1.168   3.436  0.00  0.00    -0.288 N 
ATOM      6  C   UNL     1       0.000  -0.716   2.302  0.00  0.00    +0.307 C 
ATOM      7  O   UNL     1      -1.198  -0.513   2.286  0.00  0.00    -0.252 OA
ATOM      8  C   UNL     1       4.136  -1.239   1.815  0.00  0.00    +0.247 C 
ATOM      9  O   UNL     1       5.006  -1.618   2.577  0.00  0.00    -0.270 OA
ATOM     10  N   UNL     1       4.348  -0.875   0.538  0.00  0.00    -0.280 N 
ATOM     11  C   UNL     1       3.047  -0.488  -0.028  0.00  0.00    +0.160 C 
ATOM     12  H   UNL     1       0.037  -1.329   4.230  0.00  0.00    +0.151 HD
ENDROOT
BRANCH   4  13
ATOM     13  C   UNL     1       2.256  -2.848   3.812  0.00  0.00    -0.023 A 
ATOM     14  C   UNL     1       1.533  -3.846   3.186  0.00  0.00    +0.006 A 
ATOM     15  C   UNL     1       1.745  -5.170   3.523  0.00  0.00    +0.000 A 
ATOM     16  C   UNL     1       2.682  -5.496   4.486  0.00  0.00    +0.000 A 
ATOM     17  C   UNL     1       3.406  -4.498   5.111  0.00  0.00    +0.000 A 
ATOM     18  C   UNL     1       3.197  -3.175   4.771  0.00  0.00    +0.006 A 
ENDBRANCH   4  13
BRANCH   1  20
ATOM     19  C   UNL     1      -0.019   1.526   0.010  0.00  0.00    +0.025 C 
ATOM     20  C   UNL     1       0.002  -0.004   0.002  0.00  0.00    +0.111 C 
ENDBRANCH   1  20
BRANCH  10  21
ATOM     21  C   UNL     1       5.636  -0.866  -0.160  0.00  0.00    +0.167 C 
BRANCH  21  22
ATOM     22  C   UNL     1       6.211  -2.259  -0.173  0.00  0.00    +0.234 C 
ATOM     23  O   UNL     1       5.604  -3.170   0.349  0.00  0.00    -0.274 OA
ATOM     24  N   UNL     1       7.399  -2.493  -0.765  0.00  0.00    -0.311 N 
ATOM     25  H   UNL     1       7.884  -1.764  -1.183  0.00  0.00    +0.149 HD
BRANCH  24  26
ATOM     26  C   UNL     1       7.957  -3.848  -0.778  0.00  0.00    +0.135 C 
BRANCH  26  27
ATOM     27  C   UNL     1       9.302  -3.838  -1.506  0.00  0.00    +0.135 C 
ATOM     28  C   UNL     1       9.841  -5.279  -1.631  0.00  0.00    +0.035 C 
ATOM     29  C   UNL     1      11.362  -5.086  -1.381  0.00  0.00    +0.031 C 
ATOM     30  C   UNL     1      11.345  -3.929  -0.350  0.00  0.00    +0.160 C 
ATOM     31  O   UNL     1      10.257  -3.080  -0.754  0.00  0.00    -0.375 OA
ENDBRANCH  26  27
ENDBRANCH  24  26
ENDBRANCH  21  22
BRANCH  21  32
ATOM     32  C   UNL     1       6.601   0.076   0.562  0.00  0.00    +0.067 C 
BRANCH  32  33
ATOM     33  C   UNL     1       6.087   1.490   0.469  0.00  0.00    -0.045 A 
ATOM     34  C   UNL     1       6.457   2.291  -0.595  0.00  0.00    +0.004 A 
ATOM     35  C   UNL     1       5.986   3.588  -0.681  0.00  0.00    +0.000 A 
ATOM     36  C   UNL     1       5.143   4.083   0.297  0.00  0.00    +0.000 A 
ATOM     37  C   UNL     1       4.772   3.281   1.360  0.00  0.00    +0.000 A 
ATOM     38  C   UNL     1       5.240   1.983   1.444  0.00  0.00    +0.004 A 
ENDBRANCH  32  33
ENDBRANCH  21  32
ENDBRANCH  10  21
TORSDOF 8
