REMARK  Name = ZINC20347438
REMARK  9 active torsions:
REMARK  status: ('A' for Active; 'I' for Inactive)
REMARK    1  A    between atoms: C_1  and  C_2
REMARK    2  A    between atoms: C_5  and  S_8
REMARK    3  A    between atoms: S_8  and  N_11
REMARK    4  A    between atoms: N_14  and  C_17
REMARK    5  A    between atoms: C_17  and  C_18
REMARK    6  A    between atoms: C_18  and  C_20
REMARK    7  A    between atoms: C_18  and  O_36
REMARK    8  A    between atoms: C_20  and  O_21
REMARK    9  A    between atoms: O_21  and  N_22
REMARK                            x       y       z     vdW  Elec       q    Type
REMARK                         _______ _______ _______ _____ _____    ______ ____
ROOT
ATOM      1  C   UNL     1      -0.846   1.332   1.267  0.00  0.00    +0.168 C 
ENDROOT
BRANCH   1   2
ATOM      2  O   UNL     1      -1.982   0.465   1.264  0.00  0.00    -0.387 OA
ATOM      3  H   UNL     1      -2.702   0.498   2.095  0.00  0.00    +0.210 HD
ENDBRANCH   1   2
BRANCH   1   4
ATOM      4  C   UNL     1      -0.013   1.086   0.008  0.00  0.00    +0.119 C 
BRANCH   4   8
ATOM      5  N   UNL     1      -1.474   2.429  -3.690  0.00  0.00    -0.174 NA
ATOM      6  C   UNL     1      -1.895   3.175  -2.494  0.00  0.00    +0.125 C 
ATOM      7  C   UNL     1      -0.912   2.870  -1.359  0.00  0.00    +0.101 C 
ATOM      8  N   UNL     1      -0.811   1.416  -1.180  0.00  0.00    -0.297 NA
ATOM      9  C   UNL     1      -0.263   0.768  -2.379  0.00  0.00    +0.101 C 
ATOM     10  C   UNL     1      -1.220   0.986  -3.556  0.00  0.00    +0.125 C 
BRANCH   5  11
ATOM     11  S   UNL     1      -1.291   3.192  -5.148  0.00  0.00    +0.061 S 
ATOM     12  O   UNL     1      -1.441   2.196  -6.150  0.00  0.00    -0.153 OA
ATOM     13  O   UNL     1      -2.107   4.355  -5.102  0.00  0.00    -0.153 OA
BRANCH  11  18
ATOM     14  C   UNL     1       4.423   5.104  -5.457  0.00  0.00    +0.044 C 
ATOM     15  C   UNL     1       2.996   4.626  -5.380  0.00  0.00    -0.050 A 
ATOM     16  C   UNL     1       2.661   3.369  -5.847  0.00  0.00    +0.005 A 
ATOM     17  C   UNL     1       1.352   2.931  -5.777  0.00  0.00    +0.029 A 
ATOM     18  C   UNL     1       0.377   3.750  -5.238  0.00  0.00    +0.105 A 
ATOM     19  C   UNL     1       0.711   5.009  -4.775  0.00  0.00    +0.029 A 
ATOM     20  C   UNL     1       2.021   5.446  -4.841  0.00  0.00    +0.005 A 
ENDBRANCH  11  18
ENDBRANCH   5  11
ENDBRANCH   4   8
ENDBRANCH   1   4
BRANCH   1  21
ATOM     21  C   UNL     1       0.006   1.052   2.506  0.00  0.00    +0.295 C 
BRANCH  21  22
ATOM     22  O   UNL     1      -0.733   1.393   3.680  0.00  0.00    -0.391 OA
BRANCH  22  23
ATOM     23  N   UNL     1      -0.030   1.170   4.889  0.00  0.00    -0.084 NA
ATOM     24  C   UNL     1      -0.594   1.441   6.030  0.00  0.00    +0.118 C 
ATOM     25  C   UNL     1      -1.956   1.990   6.232  0.00  0.00    +0.012 A 
ATOM     26  C   UNL     1      -2.960   2.354   5.341  0.00  0.00    +0.011 A 
ATOM     27  C   UNL     1      -4.158   2.850   5.819  0.00  0.00    +0.001 A 
ATOM     28  C   UNL     1      -4.364   2.987   7.181  0.00  0.00    +0.001 A 
ATOM     29  C   UNL     1      -3.379   2.622   8.078  0.00  0.00    +0.009 A 
ATOM     30  C   UNL     1      -2.164   2.125   7.614  0.00  0.00    -0.008 A 
ATOM     31  C   UNL     1      -0.943   1.677   8.324  0.00  0.00    -0.008 A 
ATOM     32  C   UNL     1       0.005   1.264   7.374  0.00  0.00    +0.012 A 
ATOM     33  C   UNL     1       1.246   0.797   7.792  0.00  0.00    +0.011 A 
ATOM     34  C   UNL     1       1.542   0.739   9.141  0.00  0.00    +0.001 A 
ATOM     35  C   UNL     1       0.609   1.145  10.078  0.00  0.00    +0.001 A 
ATOM     36  C   UNL     1      -0.628   1.613   9.679  0.00  0.00    +0.009 A 
ENDBRANCH  22  23
ENDBRANCH  21  22
ENDBRANCH   1  21
TORSDOF 8
