REMARK  Name = ZINC39694037
REMARK  9 active torsions:
REMARK  status: ('A' for Active; 'I' for Inactive)
REMARK    1  A    between atoms: C_1  and  C_2
REMARK    2  A    between atoms: C_2  and  C_3
REMARK    3  A    between atoms: C_3  and  C_4
REMARK    4  A    between atoms: C_4  and  C_6
REMARK    5  A    between atoms: C_4  and  C_7
REMARK    6  A    between atoms: C_11  and  C_20
REMARK    7  A    between atoms: N_22  and  C_23
REMARK    8  A    between atoms: C_23  and  C_24
REMARK    9  A    between atoms: C_28  and  N_30
REMARK                            x       y       z     vdW  Elec       q    Type
REMARK                         _______ _______ _______ _____ _____    ______ ____
ROOT
ATOM      1  C   UNL     1       1.315  -2.550  -2.248  0.00  0.00    +0.218 C 
ATOM      2  O   UNL     1       1.689  -1.681  -3.007  0.00  0.00    -0.275 OA
ATOM      3  N   UNL     1       1.443  -3.847  -2.594  0.00  0.00    -0.300 N 
ATOM      4  C   UNL     1       1.043  -5.039  -1.810  0.00  0.00    +0.121 C 
ATOM      5  C   UNL     1       0.462  -6.017  -2.857  0.00  0.00    +0.100 C 
ATOM      6  C   UNL     1       1.106  -5.595  -4.188  0.00  0.00    -0.004 C 
ATOM      7  C   UNL     1       2.010  -4.402  -3.846  0.00  0.00    +0.115 C 
ATOM      8  C   UNL     1       0.031  -5.166  -5.182  0.00  0.00    -0.010 C 
ATOM      9  C   UNL     1       0.691  -4.806  -6.516  0.00  0.00    -0.082 C 
ATOM     10  N   UNL     1       1.426  -5.968  -7.030  0.00  0.00    +0.379 N 
ATOM     11  C   UNL     1       2.517  -6.316  -6.112  0.00  0.00    -0.082 C 
ATOM     12  C   UNL     1       1.934  -6.740  -4.761  0.00  0.00    -0.010 C 
ATOM     13  H   UNL     1       0.797  -6.751  -7.115  0.00  0.00    -0.086 HD
ATOM     14  H   UNL     1       1.809  -5.747  -7.937  0.00  0.00    -0.086 HD
ENDROOT
BRANCH   5  15
ATOM     15  C   UNL     1      -1.037  -5.878  -2.929  0.00  0.00    +0.218 C 
ATOM     16  O   UNL     1      -1.560  -4.810  -2.690  0.00  0.00    -0.275 OA
ATOM     17  N   UNL     1      -1.797  -6.941  -3.259  0.00  0.00    -0.311 N 
ATOM     18  H   UNL     1      -1.379  -7.795  -3.450  0.00  0.00    +0.149 HD
BRANCH  17  19
ATOM     19  C   UNL     1      -3.254  -6.806  -3.330  0.00  0.00    +0.139 C 
BRANCH  19  20
ATOM     20  C   UNL     1      -3.863  -8.130  -3.716  0.00  0.00    -0.028 A 
ATOM     21  C   UNL     1      -4.053  -8.439  -5.051  0.00  0.00    +0.005 A 
ATOM     22  C   UNL     1      -4.611  -9.652  -5.410  0.00  0.00    +0.002 A 
ATOM     23  C   UNL     1      -4.981 -10.559  -4.435  0.00  0.00    +0.026 A 
ATOM     24  C   UNL     1      -4.791 -10.251  -3.095  0.00  0.00    +0.046 A 
ATOM     25  C   UNL     1      -4.225  -9.034  -2.738  0.00  0.00    +0.031 A 
BRANCH  24  26
ATOM     26  N   UNL     1      -5.165 -11.169  -2.104  0.00  0.00    -0.323 N 
ATOM     27  C   UNL     1      -5.037 -10.984  -0.757  0.00  0.00    +0.091 A 
ATOM     28  C   UNL     1      -5.505 -12.084  -0.134  0.00  0.00    +0.019 A 
ATOM     29  C   UNL     1      -5.939 -12.982  -1.129  0.00  0.00    +0.019 A 
ATOM     30  C   UNL     1      -5.724 -12.396  -2.325  0.00  0.00    +0.091 A 
ENDBRANCH  24  26
ENDBRANCH  19  20
ENDBRANCH  17  19
ENDBRANCH   5  15
BRANCH   1  31
ATOM     31  C   UNL     1       0.708  -2.181  -0.920  0.00  0.00    +0.072 C 
ATOM     32  C   UNL     1       1.546  -2.783   0.209  0.00  0.00    +0.017 C 
BRANCH  31  33
ATOM     33  C   UNL     1       0.680  -0.658  -0.777  0.00  0.00    +0.012 C 
BRANCH  33  35
ATOM     34  C   UNL     1      -0.076   1.244   0.656  0.00  0.00    +0.004 C 
ATOM     35  C   UNL     1      -0.048  -0.279   0.514  0.00  0.00    -0.003 C 
ENDBRANCH  33  35
ENDBRANCH  31  33
ENDBRANCH   1  31
TORSDOF 7
