REMARK  Name = ZINC13590837
REMARK  6 active torsions:
REMARK  status: ('A' for Active; 'I' for Inactive)
REMARK    1  A    between atoms: C_1  and  C_2
REMARK    2  A    between atoms: N_4  and  C_24
REMARK    3  A    between atoms: C_8  and  N_9
REMARK    4  A    between atoms: N_9  and  C_10
REMARK    5  A    between atoms: C_13  and  N_16
REMARK    6  A    between atoms: N_17  and  C_18
REMARK                            x       y       z     vdW  Elec       q    Type
REMARK                         _______ _______ _______ _____ _____    ______ ____
ROOT
ATOM      1  N   UNL     1       5.039  -0.319   4.924  0.00  0.00    -0.320 N 
ATOM      2  H   UNL     1       5.407  -1.138   4.556  0.00  0.00    +0.152 HD
ENDROOT
BRANCH   1  10
ATOM      3  C   UNL     1       5.595   3.443   2.409  0.00  0.00    +0.068 C 
ATOM      4  C   UNL     1       6.033   2.026   2.141  0.00  0.00    +0.067 C 
ATOM      5  N   UNL     1       6.683   1.609   1.097  0.00  0.00    -0.179 NA
ATOM      6  N   UNL     1       6.929   0.238   1.168  0.00  0.00    -0.185 N 
ATOM      7  C   UNL     1       6.419  -0.266   2.310  0.00  0.00    +0.111 C 
ATOM      8  S   UNL     1       6.477  -1.895   2.832  0.00  0.00    -0.032 S 
ATOM      9  C   UNL     1       5.809   0.866   3.017  0.00  0.00    +0.042 C 
ATOM     10  C   UNL     1       5.160   0.846   4.239  0.00  0.00    +0.084 C 
BRANCH   6  11
ATOM     11  C   UNL     1       7.608  -0.506   0.196  0.00  0.00    +0.058 A 
ATOM     12  C   UNL     1       7.061  -1.689  -0.283  0.00  0.00    +0.025 A 
ATOM     13  C   UNL     1       7.732  -2.420  -1.243  0.00  0.00    +0.002 A 
ATOM     14  C   UNL     1       8.949  -1.976  -1.727  0.00  0.00    +0.000 A 
ATOM     15  C   UNL     1       9.497  -0.798  -1.252  0.00  0.00    +0.002 A 
ATOM     16  C   UNL     1       8.828  -0.059  -0.297  0.00  0.00    +0.025 A 
ENDBRANCH   6  11
ENDBRANCH   1  10
BRANCH   1  17
ATOM     17  C   UNL     1       4.386  -0.340   6.155  0.00  0.00    +0.031 A 
ATOM     18  C   UNL     1       3.855   0.836   6.679  0.00  0.00    +0.025 A 
ATOM     19  C   UNL     1       3.209   0.820   7.894  0.00  0.00    +0.031 A 
ATOM     20  C   UNL     1       3.088  -0.380   8.604  0.00  0.00    +0.086 A 
ATOM     21  C   UNL     1       3.623  -1.559   8.075  0.00  0.00    +0.031 A 
ATOM     22  C   UNL     1       4.263  -1.536   6.856  0.00  0.00    +0.025 A 
BRANCH  20  23
ATOM     23  N   UNL     1       2.449  -0.400   9.810  0.00  0.00    -0.149 NA
ATOM     24  N   UNL     1       1.695   0.588  10.156  0.00  0.00    -0.149 NA
BRANCH  24  25
ATOM     25  C   UNL     1       0.962   1.252   9.213  0.00  0.00    +0.086 A 
ATOM     26  C   UNL     1       0.374   2.483   9.519  0.00  0.00    +0.029 A 
ATOM     27  C   UNL     1      -0.364   3.147   8.562  0.00  0.00    +0.002 A 
ATOM     28  C   UNL     1      -0.525   2.598   7.302  0.00  0.00    +0.000 A 
ATOM     29  C   UNL     1       0.054   1.379   6.992  0.00  0.00    +0.002 A 
ATOM     30  C   UNL     1       0.800   0.706   7.937  0.00  0.00    +0.029 A 
ENDBRANCH  24  25
ENDBRANCH  20  23
ENDBRANCH   1  17
TORSDOF 5
