REMARK  Name = ZINC56878242
REMARK  5 active torsions:
REMARK  status: ('A' for Active; 'I' for Inactive)
REMARK    1  A    between atoms: C_4  and  C_6
REMARK    2  A    between atoms: C_4  and  N_22
REMARK    3  A    between atoms: C_6  and  N_7
REMARK    4  A    between atoms: C_13  and  C_16
REMARK    5  A    between atoms: N_18  and  C_19
REMARK                            x       y       z     vdW  Elec       q    Type
REMARK                         _______ _______ _______ _____ _____    ______ ____
ROOT
ATOM      1  N   UNL     1       3.108  -1.996  -0.090  0.00  0.00    -0.301 N 
ATOM      2  C   UNL     1       3.795  -2.876   0.666  0.00  0.00    +0.302 C 
ATOM      3  O   UNL     1       3.373  -3.195   1.761  0.00  0.00    -0.253 OA
ATOM      4  N   UNL     1       4.948  -3.401   0.209  0.00  0.00    -0.286 N 
ATOM      5  C   UNL     1       5.417  -3.107  -1.153  0.00  0.00    +0.110 C 
ATOM      6  C   UNL     1       5.686  -4.429  -1.878  0.00  0.00    +0.032 C 
ATOM      7  C   UNL     1       6.656  -5.273  -1.048  0.00  0.00    +0.078 C 
ATOM      8  C   UNL     1       6.027  -5.587   0.312  0.00  0.00    +0.032 C 
ATOM      9  C   UNL     1       5.764  -4.274   1.064  0.00  0.00    +0.110 C 
ATOM     10  H   UNL     1       3.405  -1.796  -0.991  0.00  0.00    +0.150 HD
ENDROOT
BRANCH   7  11
ATOM     11  C   UNL     1       6.950  -6.561  -1.774  0.00  0.00    +0.216 C 
ATOM     12  O   UNL     1       6.434  -6.781  -2.849  0.00  0.00    -0.276 OA
ATOM     13  N   UNL     1       7.785  -7.467  -1.229  0.00  0.00    -0.312 N 
ATOM     14  H   UNL     1       8.197  -7.290  -0.369  0.00  0.00    +0.149 HD
BRANCH  13  15
ATOM     15  C   UNL     1       8.071  -8.718  -1.935  0.00  0.00    +0.073 C 
ATOM     16  C   UNL     1       8.077 -10.008  -1.112  0.00  0.00    +0.024 C 
ATOM     17  C   UNL     1       9.394  -9.419  -1.623  0.00  0.00    +0.024 C 
ENDBRANCH  13  15
ENDBRANCH   7  11
BRANCH   1  18
ATOM     18  C   UNL     1       1.913  -1.342   0.450  0.00  0.00    +0.094 C 
BRANCH  18  22
ATOM     19  C   UNL     1       0.273   1.765  -0.051  0.00  0.00    -0.001 C 
ATOM     20  C   UNL     1       1.813   1.905   0.031  0.00  0.00    -0.001 C 
ATOM     21  C   UNL     1       2.310   0.757  -0.882  0.00  0.00    -0.010 C 
ATOM     22  C   UNL     1       1.328  -0.400  -0.603  0.00  0.00    -0.050 C 
ATOM     23  C   UNL     1       0.032   0.241  -0.075  0.00  0.00    -0.010 C 
BRANCH  22  24
ATOM     24  N   UNL     1       1.055  -1.138  -1.844  0.00  0.00    +0.386 N 
ATOM     25  C   UNL     1       0.400  -0.243  -2.800  0.00  0.00    -0.067 C 
ATOM     26  C   UNL     1       0.443  -0.860  -4.204  0.00  0.00    +0.050 C 
ATOM     27  S   UNL     1      -0.486  -2.425  -4.167  0.00  0.00    -0.164 S 
ATOM     28  C   UNL     1       0.220  -3.273  -2.719  0.00  0.00    +0.050 C 
ATOM     29  C   UNL     1       0.211  -2.295  -1.538  0.00  0.00    -0.067 C 
ATOM     30  H   UNL     1       1.927  -1.459  -2.236  0.00  0.00    -0.081 HD
ENDBRANCH  22  24
ENDBRANCH  18  22
ENDBRANCH   1  18
TORSDOF 5
