REMARK  Name = ZINC22888459
REMARK  7 active torsions:
REMARK  status: ('A' for Active; 'I' for Inactive)
REMARK    1  A    between atoms: C_1  and  C_2
REMARK    2  A    between atoms: C_2  and  C_4
REMARK    3  A    between atoms: C_2  and  O_21
REMARK    4  A    between atoms: C_15  and  C_17
REMARK    5  A    between atoms: O_21  and  C_22
REMARK    6  A    between atoms: C_22  and  C_24
REMARK    7  A    between atoms: C_25  and  N_29
REMARK                            x       y       z     vdW  Elec       q    Type
REMARK                         _______ _______ _______ _____ _____    ______ ____
ROOT
ATOM      1  C   UNL     1      -5.344   4.818   4.052  0.00  0.00    +0.261 C 
ATOM      2  O   UNL     1      -6.325   4.520   3.404  0.00  0.00    -0.271 OA
ATOM      3  N   UNL     1      -5.428   5.768   5.004  0.00  0.00    -0.258 N 
ATOM      4  C   UNL     1      -4.232   6.224   5.729  0.00  0.00    +0.209 C 
ATOM      5  C   UNL     1      -4.566   6.381   7.186  0.00  0.00    +0.235 C 
ATOM      6  O   UNL     1      -3.697   6.228   8.019  0.00  0.00    -0.274 OA
ATOM      7  N   UNL     1      -5.818   6.685   7.579  0.00  0.00    -0.283 N 
ATOM      8  C   UNL     1      -6.848   6.818   6.642  0.00  0.00    +0.056 A 
ATOM      9  C   UNL     1      -6.660   6.350   5.340  0.00  0.00    +0.058 A 
ATOM     10  C   UNL     1      -7.674   6.463   4.407  0.00  0.00    +0.026 A 
ATOM     11  C   UNL     1      -8.877   7.045   4.768  0.00  0.00    +0.014 A 
ATOM     12  C   UNL     1      -9.064   7.513   6.055  0.00  0.00    +0.057 A 
ATOM     13  C   UNL     1      -8.055   7.401   6.993  0.00  0.00    +0.037 A 
ATOM     14  H   UNL     1      -6.039   6.832   8.646  0.00  0.00    +0.155 HD
ENDROOT
BRANCH  12  15
ATOM     15  C   UNL     1     -10.376   8.148   6.438  0.00  0.00    +0.417 C 
ATOM     16  F   UNL     1     -11.234   8.149   5.333  0.00  0.00    -0.166 F 
ATOM     17  F   UNL     1     -10.960   7.421   7.481  0.00  0.00    -0.166 F 
ATOM     18  F   UNL     1     -10.152   9.465   6.856  0.00  0.00    -0.166 F 
ENDBRANCH  12  15
BRANCH   1  20
ATOM     19  C   UNL     1      -3.706   3.193   4.960  0.00  0.00    +0.062 C 
ATOM     20  C   UNL     1      -4.031   4.125   3.792  0.00  0.00    +0.259 C 
BRANCH  20  21
ATOM     21  O   UNL     1      -4.124   3.364   2.587  0.00  0.00    -0.448 OA
BRANCH  21  22
ATOM     22  C   UNL     1      -2.989   3.202   1.874  0.00  0.00    +0.349 C 
ATOM     23  O   UNL     1      -1.949   3.695   2.268  0.00  0.00    -0.244 OA
BRANCH  22  24
ATOM     24  C   UNL     1      -3.010   2.459   0.669  0.00  0.00    +0.120 A 
ATOM     25  C   UNL     1      -1.962   2.176  -0.206  0.00  0.00    +0.067 A 
ATOM     26  C   UNL     1      -2.268   1.415  -1.314  0.00  0.00    +0.034 A 
ATOM     27  C   UNL     1      -3.545   0.993  -1.497  0.00  0.00    +0.048 A 
ATOM     28  S   UNL     1      -4.382   1.642  -0.125  0.00  0.00    -0.088 S 
BRANCH  25  29
ATOM     29  N   UNL     1      -0.664   2.636   0.031  0.00  0.00    -0.322 N 
ATOM     30  C   UNL     1       0.469   1.874   0.006  0.00  0.00    +0.091 A 
ATOM     31  C   UNL     1       1.521   2.673   0.278  0.00  0.00    +0.019 A 
ATOM     32  C   UNL     1       1.022   3.975   0.483  0.00  0.00    +0.019 A 
ATOM     33  C   UNL     1      -0.317   3.924   0.330  0.00  0.00    +0.091 A 
ENDBRANCH  25  29
ENDBRANCH  22  24
ENDBRANCH  21  22
ENDBRANCH  20  21
ENDBRANCH   1  20
TORSDOF 6
