REMARK  Name = ZINC11198242
REMARK  8 active torsions:
REMARK  status: ('A' for Active; 'I' for Inactive)
REMARK    1  A    between atoms: C_1  and  C_2
REMARK    2  A    between atoms: C_7  and  N_8
REMARK    3  A    between atoms: C_9  and  C_26
REMARK    4  A    between atoms: C_12  and  S_13
REMARK    5  A    between atoms: S_13  and  C_14
REMARK    6  A    between atoms: C_14  and  C_15
REMARK    7  A    between atoms: N_17  and  C_18
REMARK    8  A    between atoms: C_19  and  C_23
REMARK                            x       y       z     vdW  Elec       q    Type
REMARK                         _______ _______ _______ _____ _____    ______ ____
ROOT
ATOM      1  N   UNL     1      -1.239   2.070   0.019  0.00  0.00    -0.270 N 
ATOM      2  C   UNL     1      -1.961   2.472   1.122  0.00  0.00    +0.169 A 
ATOM      3  N   UNL     1      -3.038   3.077   0.678  0.00  0.00    -0.128 NA
ATOM      4  N   UNL     1      -3.041   3.082  -0.607  0.00  0.00    -0.122 NA
ATOM      5  C   UNL     1      -1.963   2.486  -1.065  0.00  0.00    +0.197 A 
ENDROOT
BRANCH   1  12
ATOM      6  C   UNL     1       1.161   3.599   0.010  0.00  0.00    +0.046 C 
ATOM      7  C   UNL     1       1.177   2.092   0.002  0.00  0.00    -0.026 A 
ATOM      8  C   UNL     1       2.381   1.413  -0.013  0.00  0.00    +0.005 A 
ATOM      9  C   UNL     1       2.396   0.031  -0.021  0.00  0.00    +0.000 A 
ATOM     10  C   UNL     1       1.208  -0.677  -0.013  0.00  0.00    +0.002 A 
ATOM     11  C   UNL     1       0.002  -0.004   0.002  0.00  0.00    +0.026 A 
ATOM     12  C   UNL     1      -0.017   1.384   0.010  0.00  0.00    +0.053 A 
ENDBRANCH   1  12
BRANCH   2  13
ATOM     13  C   UNL     1      -1.592   2.260   2.538  0.00  0.00    +0.020 A 
ATOM     14  C   UNL     1      -0.600   1.338   2.873  0.00  0.00    +0.013 A 
ATOM     15  C   UNL     1      -0.257   1.149   4.196  0.00  0.00    +0.021 A 
ATOM     16  C   UNL     1      -0.902   1.864   5.191  0.00  0.00    +0.041 A 
ATOM     17  C   UNL     1      -1.891   2.777   4.864  0.00  0.00    +0.021 A 
ATOM     18  C   UNL     1      -2.239   2.979   3.545  0.00  0.00    +0.013 A 
ATOM     19 CL   UNL     1      -0.470   1.615   6.854  0.00  0.00    -0.084 Cl
ENDBRANCH   2  13
BRANCH   5  20
ATOM     20  S   UNL     1      -1.533   2.260  -2.759  0.00  0.00    -0.076 S 
BRANCH  20  21
ATOM     21  C   UNL     1      -2.948   3.061  -3.552  0.00  0.00    +0.173 C 
BRANCH  21  22
ATOM     22  C   UNL     1      -2.793   2.988  -5.049  0.00  0.00    +0.228 C 
ATOM     23  O   UNL     1      -1.821   2.447  -5.532  0.00  0.00    -0.275 OA
ATOM     24  N   UNL     1      -3.734   3.523  -5.852  0.00  0.00    -0.279 N 
ATOM     25  H   UNL     1      -4.512   3.956  -5.465  0.00  0.00    +0.155 HD
BRANCH  24  26
ATOM     26  C   UNL     1      -3.591   3.455  -7.229  0.00  0.00    +0.084 A 
ATOM     27  C   UNL     1      -4.448   3.939  -8.211  0.00  0.00    +0.065 A 
ATOM     28  C   UNL     1      -4.047   3.732  -9.582  0.00  0.00    +0.022 A 
ATOM     29  C   UNL     1      -2.888   3.083  -9.791  0.00  0.00    +0.048 A 
ATOM     30  S   UNL     1      -2.305   2.742  -8.143  0.00  0.00    -0.081 S 
BRANCH  27  31
ATOM     31  C   UNL     1      -5.697   4.628  -7.871  0.00  0.00    +0.244 C 
ATOM     32  O   UNL     1      -6.005   4.788  -6.704  0.00  0.00    -0.270 OA
ATOM     33  N   UNL     1      -6.504   5.083  -8.850  0.00  0.00    -0.325 N 
ATOM     34  H   UNL     1      -6.258   4.955  -9.779  0.00  0.00    +0.145 HD
ATOM     35  H   UNL     1      -7.330   5.539  -8.624  0.00  0.00    +0.145 HD
ENDBRANCH  27  31
ENDBRANCH  24  26
ENDBRANCH  21  22
ENDBRANCH  20  21
ENDBRANCH   5  20
TORSDOF 7
