REMARK  Name = ZINC43421119
REMARK  7 active torsions:
REMARK  status: ('A' for Active; 'I' for Inactive)
REMARK    1  A    between atoms: C_1  and  C_2
REMARK    2  A    between atoms: C_5  and  C_9
REMARK    3  A    between atoms: N_11  and  C_12
REMARK    4  A    between atoms: C_12  and  C_13
REMARK    5  A    between atoms: C_13  and  N_14
REMARK    6  A    between atoms: N_17  and  C_18
REMARK    7  A    between atoms: C_23  and  C_24
REMARK                            x       y       z     vdW  Elec       q    Type
REMARK                         _______ _______ _______ _____ _____    ______ ____
ROOT
ATOM      1  C   UNL     1       0.127  -6.919   2.566  0.00  0.00    +0.124 C 
ENDROOT
BRANCH   1   2
ATOM      2  N   UNL     1       0.141  -8.384   2.556  0.00  0.00    -0.298 N 
ATOM      3  C   UNL     1       0.143  -9.066   3.719  0.00  0.00    +0.304 C 
ATOM      4  O   UNL     1       0.133  -8.465   4.776  0.00  0.00    -0.253 OA
ATOM      5  N   UNL     1       0.157 -10.414   3.710  0.00  0.00    -0.269 N 
ATOM      6  H   UNL     1       0.150  -8.864   1.713  0.00  0.00    +0.150 HD
ATOM      7  H   UNL     1       0.083 -10.894   2.871  0.00  0.00    +0.156 HD
BRANCH   5   8
ATOM      8  C   UNL     1       0.278 -11.121   4.913  0.00  0.00    +0.038 A 
ATOM      9  C   UNL     1       0.882 -10.525   6.012  0.00  0.00    +0.026 A 
ATOM     10  C   UNL     1       1.000 -11.223   7.197  0.00  0.00    +0.040 A 
ATOM     11  C   UNL     1       0.516 -12.518   7.290  0.00  0.00    +0.124 A 
ATOM     12  C   UNL     1      -0.086 -13.114   6.196  0.00  0.00    +0.043 A 
ATOM     13  C   UNL     1      -0.211 -12.416   5.010  0.00  0.00    -0.026 A 
ATOM     14  C   UNL     1      -0.872 -13.064   3.820  0.00  0.00    +0.046 C 
ATOM     15  F   UNL     1       0.633 -13.200   8.451  0.00  0.00    -0.205 F 
ENDBRANCH   5   8
ENDBRANCH   1   2
BRANCH   1  16
ATOM     16  C   UNL     1       0.127  -6.400   1.127  0.00  0.00    +0.123 C 
BRANCH  16  19
ATOM     17  C   UNL     1       0.110  -4.253  -0.026  0.00  0.00    +0.244 C 
ATOM     18  O   UNL     1       0.121  -4.854  -1.083  0.00  0.00    -0.270 OA
ATOM     19  N   UNL     1       0.113  -4.935   1.137  0.00  0.00    -0.310 N 
ATOM     20  H   UNL     1       0.104  -4.456   1.980  0.00  0.00    +0.149 HD
BRANCH  17  25
ATOM     21  C   UNL     1       0.050   1.503   0.007  0.00  0.00    +0.047 C 
ATOM     22  C   UNL     1       0.066  -0.004  -0.001  0.00  0.00    -0.015 A 
ATOM     23  C   UNL     1       0.079  -0.687  -1.204  0.00  0.00    +0.007 A 
ATOM     24  C   UNL     1       0.093  -2.066  -1.219  0.00  0.00    +0.013 A 
ATOM     25  C   UNL     1       0.096  -2.775  -0.016  0.00  0.00    +0.039 A 
ATOM     26  C   UNL     1       0.083  -2.083   1.195  0.00  0.00    +0.051 A 
ATOM     27  C   UNL     1       0.074  -0.701   1.197  0.00  0.00    +0.127 A 
ATOM     28  F   UNL     1       0.068  -0.027   2.369  0.00  0.00    -0.205 F 
ENDBRANCH  17  25
ENDBRANCH  16  19
ENDBRANCH   1  16
TORSDOF 5
