REMARK  Name = ZINC39684675
REMARK  9 active torsions:
REMARK  status: ('A' for Active; 'I' for Inactive)
REMARK    1  A    between atoms: C_1  and  C_2
REMARK    2  A    between atoms: C_2  and  C_4
REMARK    3  A    between atoms: C_2  and  N_8
REMARK    4  A    between atoms: C_4  and  C_5
REMARK    5  A    between atoms: C_4  and  C_6
REMARK    6  A    between atoms: C_4  and  C_7
REMARK    7  A    between atoms: C_9  and  C_11
REMARK    8  A    between atoms: C_22  and  C_24
REMARK    9  A    between atoms: C_27  and  C_29
REMARK                            x       y       z     vdW  Elec       q    Type
REMARK                         _______ _______ _______ _____ _____    ______ ____
ROOT
ATOM      1  C   UNL     1       2.736  -1.073  -2.455  0.00  0.00    +0.100 C 
ATOM      2  C   UNL     1       2.409  -2.561  -2.711  0.00  0.00    +0.121 C 
ATOM      3  N   UNL     1       3.675  -3.140  -3.221  0.00  0.00    -0.294 N 
ATOM      4  C   UNL     1       4.731  -2.493  -2.406  0.00  0.00    +0.115 C 
ATOM      5  C   UNL     1       4.261  -1.032  -2.254  0.00  0.00    -0.004 C 
ATOM      6  C   UNL     1       4.910  -0.155  -3.320  0.00  0.00    -0.010 C 
ATOM      7  C   UNL     1       6.419  -0.085  -3.066  0.00  0.00    -0.082 C 
ATOM      8  N   UNL     1       6.666   0.470  -1.730  0.00  0.00    +0.379 N 
ATOM      9  C   UNL     1       6.118  -0.427  -0.706  0.00  0.00    -0.082 C 
ATOM     10  C   UNL     1       4.597  -0.513  -0.860  0.00  0.00    -0.010 C 
ATOM     11  C   UNL     1       3.830  -4.050  -4.203  0.00  0.00    +0.282 C 
ATOM     12  O   UNL     1       4.946  -4.430  -4.509  0.00  0.00    -0.267 OA
ATOM     13  H   UNL     1       7.660   0.572  -1.588  0.00  0.00    -0.086 HD
ATOM     14  H   UNL     1       6.224   1.373  -1.655  0.00  0.00    -0.086 HD
ENDROOT
BRANCH  11  15
ATOM     15  C   UNL     1       2.658  -4.581  -4.902  0.00  0.00    +0.190 A 
ATOM     16  C   UNL     1       2.674  -5.514  -5.916  0.00  0.00    +0.055 A 
ATOM     17  C   UNL     1       1.343  -5.729  -6.288  0.00  0.00    +0.050 A 
ATOM     18  C   UNL     1       0.571  -4.928  -5.497  0.00  0.00    +0.136 A 
ATOM     19  O   UNL     1       1.373  -4.245  -4.662  0.00  0.00    -0.450 OA
BRANCH  18  20
ATOM     20  C   UNL     1      -0.902  -4.832  -5.546  0.00  0.00    +0.017 A 
ATOM     21  C   UNL     1      -1.626  -5.606  -6.456  0.00  0.00    +0.011 A 
ATOM     22  C   UNL     1      -3.001  -5.512  -6.496  0.00  0.00    +0.001 A 
ATOM     23  C   UNL     1      -3.664  -4.653  -5.638  0.00  0.00    +0.000 A 
ATOM     24  C   UNL     1      -2.954  -3.882  -4.734  0.00  0.00    +0.001 A 
ATOM     25  C   UNL     1      -1.579  -3.971  -4.679  0.00  0.00    +0.011 A 
ENDBRANCH  18  20
ENDBRANCH  11  15
BRANCH   1  27
ATOM     26  N   UNL     1       1.682   0.710  -1.103  0.00  0.00    -0.312 N 
ATOM     27  C   UNL     1       2.031  -0.587  -1.215  0.00  0.00    +0.218 C 
ATOM     28  O   UNL     1       1.777  -1.363  -0.318  0.00  0.00    -0.275 OA
ATOM     29  H   UNL     1       1.885   1.331  -1.820  0.00  0.00    +0.149 HD
BRANCH  26  31
ATOM     30  C   UNL     1       2.030   1.520   1.179  0.00  0.00    +0.028 C 
ATOM     31  C   UNL     1       0.996   1.182   0.102  0.00  0.00    +0.075 C 
BRANCH  31  32
ATOM     32  C   UNL     1       0.181   2.433  -0.232  0.00  0.00    -0.020 C 
ATOM     33  C   UNL     1       1.117   3.528  -0.749  0.00  0.00    +0.012 C 
ATOM     34  C   UNL     1      -0.853   2.096  -1.308  0.00  0.00    +0.012 C 
ATOM     35  C   UNL     1      -0.535   2.927   1.027  0.00  0.00    +0.012 C 
ENDBRANCH  31  32
ENDBRANCH  26  31
ENDBRANCH   1  27
TORSDOF 5
