REMARK  Name = ZINC43453337
REMARK  8 active torsions:
REMARK  status: ('A' for Active; 'I' for Inactive)
REMARK    1  A    between atoms: C_1  and  C_2
REMARK    2  A    between atoms: C_2  and  C_26
REMARK    3  A    between atoms: C_4  and  N_10
REMARK    4  A    between atoms: C_6  and  C_8
REMARK    5  A    between atoms: C_6  and  C_9
REMARK    6  A    between atoms: N_13  and  C_14
REMARK    7  A    between atoms: C_17  and  S_20
REMARK    8  A    between atoms: S_20  and  C_23
REMARK                            x       y       z     vdW  Elec       q    Type
REMARK                         _______ _______ _______ _____ _____    ______ ____
ROOT
ATOM      1  N   UNL     1       2.618  -0.823  -2.623  0.00  0.00    -0.296 N 
ATOM      2  C   UNL     1       3.769  -0.333  -3.124  0.00  0.00    +0.304 C 
ATOM      3  O   UNL     1       4.370   0.539  -2.527  0.00  0.00    -0.253 OA
ATOM      4  N   UNL     1       4.255  -0.809  -4.288  0.00  0.00    -0.269 N 
ATOM      5  H   UNL     1       2.139  -1.519  -3.100  0.00  0.00    +0.151 HD
ATOM      6  H   UNL     1       3.812  -1.551  -4.731  0.00  0.00    +0.156 HD
ENDROOT
BRANCH   1  10
ATOM      7  C   UNL     1      -0.026   1.517   0.009  0.00  0.00    -0.010 C 
ATOM      8  C   UNL     1       0.004  -0.015   0.006  0.00  0.00    -0.072 C 
ATOM      9  C   UNL     1       0.577  -0.517  -1.315  0.00  0.00    +0.009 C 
ATOM     10  C   UNL     1       2.090  -0.304  -1.355  0.00  0.00    +0.072 C 
ATOM     11  C   UNL     1       2.712  -1.081  -0.195  0.00  0.00    +0.009 C 
ATOM     12  C   UNL     1       2.155  -0.584   1.136  0.00  0.00    -0.072 C 
ATOM     13  N   UNL     1       0.704  -0.532   1.169  0.00  0.00    +0.386 N 
ATOM     14  C   UNL     1       2.769   0.778   1.478  0.00  0.00    -0.010 C 
ATOM     15  C   UNL     1       2.616  -1.576   2.228  0.00  0.00    -0.010 C 
ATOM     16  C   UNL     1      -1.463  -0.498   0.087  0.00  0.00    -0.010 C 
ATOM     17  H   UNL     1       0.421   0.020   1.985  0.00  0.00    -0.084 HD
ATOM     18  H   UNL     1       0.354  -1.476   1.360  0.00  0.00    -0.084 HD
ENDBRANCH   1  10
BRANCH   4  19
ATOM     19  C   UNL     1       5.396  -0.235  -4.858  0.00  0.00    +0.035 A 
ATOM     20  C   UNL     1       5.509  -0.133  -6.238  0.00  0.00    +0.025 A 
ATOM     21  C   UNL     1       6.637   0.435  -6.797  0.00  0.00    +0.029 A 
ATOM     22  C   UNL     1       7.653   0.902  -5.984  0.00  0.00    +0.095 A 
ATOM     23  C   UNL     1       7.544   0.802  -4.609  0.00  0.00    +0.029 A 
ATOM     24  C   UNL     1       6.416   0.240  -4.044  0.00  0.00    +0.025 A 
BRANCH  22  25
ATOM     25  S   UNL     1       9.091   1.626  -6.701  0.00  0.00    +0.058 S 
ATOM     26  O   UNL     1      10.117   1.423  -5.740  0.00  0.00    -0.164 OA
ATOM     27  O   UNL     1       9.183   1.044  -7.994  0.00  0.00    -0.164 OA
BRANCH  25  28
ATOM     28  C   UNL     1       8.704   3.393  -6.838  0.00  0.00    +0.485 C 
ATOM     29  F   UNL     1       7.578   3.562  -7.652  0.00  0.00    -0.183 F 
ATOM     30  F   UNL     1       8.442   3.913  -5.566  0.00  0.00    -0.183 F 
ENDBRANCH  25  28
ENDBRANCH  22  25
ENDBRANCH   4  19
TORSDOF 4
