REMARK  Name = ZINC00382416
REMARK  7 active torsions:
REMARK  status: ('A' for Active; 'I' for Inactive)
REMARK    1  A    between atoms: C_1  and  C_2
REMARK    2  A    between atoms: C_4  and  C_26
REMARK    3  A    between atoms: C_10  and  C_25
REMARK    4  A    between atoms: C_13  and  C_16
REMARK    5  A    between atoms: C_19  and  O_24
REMARK    6  A    between atoms: C_21  and  O_22
REMARK    7  A    between atoms: O_22  and  C_23
REMARK                            x       y       z     vdW  Elec       q    Type
REMARK                         _______ _______ _______ _____ _____    ______ ____
ROOT
ATOM      1  C   UNL     1      -0.018   1.503   0.010  0.00  0.00    +0.044 C 
ATOM      2  C   UNL     1       0.002  -0.004   0.002  0.00  0.00    -0.049 A 
ATOM      3  C   UNL     1       0.006  -0.687  -1.202  0.00  0.00    +0.008 A 
ATOM      4  C   UNL     1       0.019  -2.070  -1.230  0.00  0.00    -0.029 A 
ATOM      5  C   UNL     1       0.032  -2.783  -0.044  0.00  0.00    +0.041 A 
ATOM      6  C   UNL     1       0.037  -2.084   1.180  0.00  0.00    +0.022 A 
ATOM      7  C   UNL     1       0.023  -0.700   1.197  0.00  0.00    +0.015 A 
ATOM      8  C   UNL     1       0.081  -2.906   2.404  0.00  0.00    +0.073 A 
ATOM      9  C   UNL     1      -0.119  -2.596   3.703  0.00  0.00    +0.052 A 
ATOM     10  C   UNL     1       0.036  -3.770   4.449  0.00  0.00    +0.061 A 
ATOM     11  N   UNL     1       0.323  -4.755   3.629  0.00  0.00    -0.174 NA
ATOM     12  N   UNL     1       0.366  -4.251   2.334  0.00  0.00    -0.238 N 
ATOM     13  C   UNL     1       0.657  -4.925   1.067  0.00  0.00    +0.226 C 
ATOM     14  N   UNL     1       0.030  -4.177  -0.031  0.00  0.00    -0.318 N 
ATOM     15  C   UNL     1      -0.102  -3.885   5.945  0.00  0.00    +0.067 C 
ATOM     16  C   UNL     1       0.020  -2.798  -2.549  0.00  0.00    +0.045 C 
ATOM     17  H   UNL     1      -0.392  -4.661  -0.758  0.00  0.00    +0.148 HD
ENDROOT
BRANCH  13  18
ATOM     18  C   UNL     1       2.149  -4.978   0.856  0.00  0.00    +0.036 A 
ATOM     19  C   UNL     1       2.774  -4.001   0.105  0.00  0.00    +0.014 A 
ATOM     20  C   UNL     1       4.141  -4.046  -0.090  0.00  0.00    +0.046 A 
ATOM     21  C   UNL     1       4.889  -5.074   0.467  0.00  0.00    +0.120 A 
ATOM     22  C   UNL     1       4.264  -6.055   1.220  0.00  0.00    +0.091 A 
ATOM     23  C   UNL     1       2.893  -6.004   1.420  0.00  0.00    +0.130 A 
BRANCH  23  24
ATOM     24  O   UNL     1       2.278  -6.962   2.163  0.00  0.00    -0.495 OA
ATOM     25  C   UNL     1       3.106  -7.988   2.712  0.00  0.00    +0.277 C 
ENDBRANCH  23  24
BRANCH  21  26
ATOM     26  O   UNL     1       6.234  -5.118   0.274  0.00  0.00    -0.507 OA
ATOM     27  H   UNL     1       6.744  -4.647   0.947  0.00  0.00    +0.292 HD
ENDBRANCH  21  26
ENDBRANCH  13  18
TORSDOF 3
