REMARK  Name = ZINC35287948
REMARK  7 active torsions:
REMARK  status: ('A' for Active; 'I' for Inactive)
REMARK    1  A    between atoms: C_1  and  C_2
REMARK    2  A    between atoms: C_5  and  C_9
REMARK    3  A    between atoms: C_6  and  C_8
REMARK    4  A    between atoms: C_9  and  O_10
REMARK    5  A    between atoms: O_10  and  C_11
REMARK    6  A    between atoms: C_14  and  C_17
REMARK    7  A    between atoms: C_20  and  C_24
REMARK                            x       y       z     vdW  Elec       q    Type
REMARK                         _______ _______ _______ _____ _____    ______ ____
ROOT
ATOM      1  C   UNL     1       0.074  -6.089  -1.557  0.00  0.00    +0.121 A 
ATOM      2  C   UNL     1       0.086  -6.940  -0.458  0.00  0.00    +0.046 A 
ATOM      3  C   UNL     1       0.102  -8.305  -0.641  0.00  0.00    +0.015 A 
ATOM      4  C   UNL     1       0.107  -8.834  -1.935  0.00  0.00    +0.018 A 
ATOM      5  C   UNL     1       0.096  -7.975  -3.037  0.00  0.00    +0.015 A 
ATOM      6  C   UNL     1       0.074  -6.611  -2.845  0.00  0.00    +0.046 A 
ENDROOT
BRANCH   4   7
ATOM      7  C   UNL     1       0.125 -10.295  -2.136  0.00  0.00    +0.145 A 
ATOM      8  N   UNL     1       0.135 -10.795  -3.405  0.00  0.00    -0.307 N 
ATOM      9  C   UNL     1       0.151 -12.130  -3.605  0.00  0.00    +0.258 A 
ATOM     10  C   UNL     1       0.157 -12.980  -2.491  0.00  0.00    +0.080 A 
ATOM     11  C   UNL     1       0.146 -12.420  -1.226  0.00  0.00    +0.280 A 
ATOM     12  N   UNL     1       0.136 -11.091  -1.087  0.00  0.00    -0.191 NA
ATOM     13  O   UNL     1       0.151 -13.216  -0.131  0.00  0.00    -0.265 OA
ATOM     14  C   UNL     1       0.174 -14.477  -2.668  0.00  0.00    +0.055 C 
ATOM     15  O   UNL     1       0.160 -12.588  -4.737  0.00  0.00    -0.267 OA
ATOM     16  H   UNL     1       0.131 -10.191  -4.164  0.00  0.00    +0.170 HD
ENDBRANCH   4   7
BRANCH   1  17
ATOM     17  O   UNL     1       0.058  -4.744  -1.371  0.00  0.00    -0.487 OA
BRANCH  17  18
ATOM     18  C   UNL     1       0.059  -4.275  -0.021  0.00  0.00    +0.264 C 
BRANCH  18  23
ATOM     19  C   UNL     1      -0.018   1.503   0.010  0.00  0.00    +0.044 C 
ATOM     20  C   UNL     1       0.002  -0.004   0.002  0.00  0.00    -0.050 A 
ATOM     21  C   UNL     1       0.006  -0.689  -1.199  0.00  0.00    +0.004 A 
ATOM     22  C   UNL     1       0.025  -2.071  -1.207  0.00  0.00    +0.007 A 
ATOM     23  C   UNL     1       0.040  -2.768  -0.013  0.00  0.00    -0.007 A 
ATOM     24  C   UNL     1       0.037  -2.084   1.188  0.00  0.00    -0.044 A 
ATOM     25  C   UNL     1       0.023  -0.702   1.195  0.00  0.00    +0.007 A 
ATOM     26  C   UNL     1       0.054  -2.845   2.489  0.00  0.00    +0.044 C 
ENDBRANCH  18  23
ENDBRANCH  17  18
ENDBRANCH   1  17
TORSDOF 4
