REMARK  Name = ZINC32123957
REMARK  7 active torsions:
REMARK  status: ('A' for Active; 'I' for Inactive)
REMARK    1  A    between atoms: C_1  and  O_2
REMARK    2  A    between atoms: O_2  and  C_3
REMARK    3  A    between atoms: C_3  and  C_5
REMARK    4  A    between atoms: C_5  and  C_7
REMARK    5  A    between atoms: C_5  and  N_14
REMARK    6  A    between atoms: C_7  and  C_8
REMARK    7  A    between atoms: C_26  and  C_28
REMARK                            x       y       z     vdW  Elec       q    Type
REMARK                         _______ _______ _______ _____ _____    ______ ____
ROOT
ATOM      1  N   UNL     1      -2.733  -2.276   2.727  0.00  0.00    -0.286 N 
ATOM      2  C   UNL     1      -3.166  -2.591   1.490  0.00  0.00    +0.304 C 
ATOM      3  O   UNL     1      -2.458  -2.378   0.525  0.00  0.00    -0.253 OA
ATOM      4  N   UNL     1      -4.385  -3.142   1.322  0.00  0.00    -0.273 N 
ATOM      5  C   UNL     1      -4.829  -3.603  -0.002  0.00  0.00    +0.116 C 
ATOM      6  C   UNL     1      -6.030  -2.762  -0.451  0.00  0.00    +0.076 C 
ATOM      7  C   UNL     1      -6.995  -2.635   0.702  0.00  0.00    +0.066 A 
ATOM      8  C   UNL     1      -6.675  -2.868   1.993  0.00  0.00    +0.064 A 
ATOM      9  N   UNL     1      -7.795  -2.648   2.732  0.00  0.00    -0.346 N 
ATOM     10  H   UNL     1      -7.877  -2.732   3.695  0.00  0.00    +0.167 HD
ATOM     11  C   UNL     1      -8.773  -2.288   1.869  0.00  0.00    +0.197 A 
ATOM     12  N   UNL     1      -8.284  -2.284   0.657  0.00  0.00    -0.240 NA
ATOM     13  C   UNL     1      -5.305  -3.304   2.463  0.00  0.00    +0.156 C 
ATOM     14  H   UNL     1      -3.325  -2.378   3.488  0.00  0.00    +0.151 HD
ENDROOT
BRANCH  13  15
ATOM     15  C   UNL     1      -5.340  -4.748   2.893  0.00  0.00    -0.017 A 
ATOM     16  C   UNL     1      -5.820  -5.713   2.027  0.00  0.00    +0.009 A 
ATOM     17  C   UNL     1      -5.854  -7.039   2.416  0.00  0.00    +0.050 A 
ATOM     18  C   UNL     1      -5.408  -7.404   3.676  0.00  0.00    +0.166 A 
ATOM     19  C   UNL     1      -4.925  -6.431   4.549  0.00  0.00    +0.167 A 
ATOM     20  C   UNL     1      -4.889  -5.105   4.149  0.00  0.00    +0.055 A 
ATOM     21  O   UNL     1      -4.551  -7.036   5.713  0.00  0.00    -0.453 OA
ATOM     22  C   UNL     1      -5.188  -8.328   5.697  0.00  0.00    +0.466 C 
ATOM     23  O   UNL     1      -5.336  -8.618   4.295  0.00  0.00    -0.453 OA
ENDBRANCH  13  15
BRANCH   1  24
ATOM     24  C   UNL     1      -1.369  -1.779   2.921  0.00  0.00    +0.187 C 
BRANCH  24  25
ATOM     25  C   UNL     1      -0.422  -2.945   3.043  0.00  0.00    +0.328 C 
ATOM     26  O   UNL     1      -0.844  -4.075   2.975  0.00  0.00    -0.249 OA
BRANCH  25  28
ATOM     27  C   UNL     1       1.729  -3.880   3.334  0.00  0.00    +0.280 C 
ATOM     28  O   UNL     1       0.890  -2.728   3.227  0.00  0.00    -0.467 OA
ENDBRANCH  25  28
ENDBRANCH  24  25
BRANCH  24  29
ATOM     29  C   UNL     1      -1.309  -0.938   4.197  0.00  0.00    +0.069 C 
BRANCH  29  30
ATOM     30  C   UNL     1      -2.162   0.293   4.027  0.00  0.00    -0.045 A 
ATOM     31  C   UNL     1      -1.610   1.450   3.509  0.00  0.00    +0.004 A 
ATOM     32  C   UNL     1      -2.392   2.579   3.354  0.00  0.00    +0.000 A 
ATOM     33  C   UNL     1      -3.725   2.552   3.716  0.00  0.00    +0.000 A 
ATOM     34  C   UNL     1      -4.277   1.395   4.234  0.00  0.00    +0.000 A 
ATOM     35  C   UNL     1      -3.497   0.265   4.385  0.00  0.00    +0.004 A 
ENDBRANCH  29  30
ENDBRANCH  24  29
ENDBRANCH   1  24
TORSDOF 6
