REMARK  Name = ZINC61887458
REMARK  4 active torsions:
REMARK  status: ('A' for Active; 'I' for Inactive)
REMARK    1  A    between atoms: C_4  and  C_8
REMARK    2  A    between atoms: N_10  and  C_11
REMARK    3  A    between atoms: C_16  and  C_18
REMARK    4  A    between atoms: N_19  and  O_20
REMARK                            x       y       z     vdW  Elec       q    Type
REMARK                         _______ _______ _______ _____ _____    ______ ____
ROOT
ATOM      1  C   UNL     1       3.491  -0.801   0.209  0.00  0.00    +0.246 C 
ATOM      2  O   UNL     1       4.491  -0.112   0.158  0.00  0.00    -0.270 OA
ATOM      3  N   UNL     1       3.597  -2.144   0.204  0.00  0.00    -0.308 N 
ATOM      4  H   UNL     1       2.798  -2.694   0.171  0.00  0.00    +0.149 HD
ENDROOT
BRANCH   1   8
ATOM      5  C   UNL     1      -0.340   1.027   0.401  0.00  0.00    +0.017 A 
ATOM      6  C   UNL     1       0.799   1.810   0.459  0.00  0.00    +0.022 A 
ATOM      7  C   UNL     1       2.048   1.222   0.397  0.00  0.00    +0.053 A 
ATOM      8  C   UNL     1       2.158  -0.165   0.276  0.00  0.00    +0.056 A 
ATOM      9  C   UNL     1       1.004  -0.948   0.218  0.00  0.00    +0.029 A 
ATOM     10  C   UNL     1      -0.237  -0.348   0.281  0.00  0.00    +0.019 A 
ATOM     11 BR   UNL     1      -1.802  -1.408   0.203  0.00  0.00    -0.050 Br
ATOM     12 CL   UNL     1       3.477   2.206   0.469  0.00  0.00    -0.083 Cl
ENDBRANCH   1   8
BRANCH   3  13
ATOM     13  C   UNL     1       4.919  -2.775   0.247  0.00  0.00    +0.083 C 
ATOM     14  C   UNL     1       5.322  -3.053   1.706  0.00  0.00    +0.023 C 
ATOM     15  C   UNL     1       5.510  -4.579   1.829  0.00  0.00    +0.003 C 
ATOM     16  C   UNL     1       4.651  -5.161   0.679  0.00  0.00    +0.013 C 
ATOM     17  C   UNL     1       4.876  -4.141  -0.467  0.00  0.00    +0.076 C 
BRANCH  17  18
ATOM     18  C   UNL     1       3.734  -4.188  -1.448  0.00  0.00    +0.136 C 
ATOM     19  N   UNL     1       3.939  -3.908  -2.693  0.00  0.00    -0.076 NA
ATOM     20  N   UNL     1       2.471  -4.530  -1.019  0.00  0.00    -0.344 N 
ATOM     21  H   UNL     1       2.317  -4.741  -0.085  0.00  0.00    +0.144 HD
ATOM     22  H   UNL     1       1.735  -4.560  -1.651  0.00  0.00    +0.144 HD
BRANCH  19  23
ATOM     23  O   UNL     1       5.254  -3.661  -3.155  0.00  0.00    -0.408 OA
ATOM     24  H   UNL     1       5.301  -3.385  -4.081  0.00  0.00    +0.328 HD
ENDBRANCH  19  23
ENDBRANCH  17  18
ENDBRANCH   3  13
TORSDOF 4
