REMARK  Name = ZINC02084580
REMARK  7 active torsions:
REMARK  status: ('A' for Active; 'I' for Inactive)
REMARK    1  A    between atoms: C_1  and  C_2
REMARK    2  A    between atoms: C_2  and  C_3
REMARK    3  A    between atoms: C_3  and  C_4
REMARK    4  A    between atoms: C_4  and  C_5
REMARK    5  A    between atoms: C_5  and  S_6
REMARK    6  A    between atoms: S_6  and  C_7
REMARK    7  A    between atoms: C_20  and  C_23
REMARK                            x       y       z     vdW  Elec       q    Type
REMARK                         _______ _______ _______ _____ _____    ______ ____
ROOT
ATOM      1  C   UNL     1      -0.038   9.222  -2.079  0.00  0.00    +0.212 A 
ATOM      2  N   UNL     1      -0.421   7.961  -1.905  0.00  0.00    -0.184 NA
ATOM      3  C   UNL     1       0.462   7.067  -1.495  0.00  0.00    +0.248 A 
ATOM      4  C   UNL     1       1.789   7.487  -1.250  0.00  0.00    +0.156 A 
ATOM      5  N   UNL     1       2.107   8.757  -1.446  0.00  0.00    -0.141 NA
ATOM      6  N   UNL     1       1.215   9.595  -1.849  0.00  0.00    -0.122 NA
ATOM      7  C   UNL     1       2.789   6.507  -0.776  0.00  0.00    +0.028 A 
ATOM      8  C   UNL     1       4.047   6.412  -1.358  0.00  0.00    +0.012 A 
ATOM      9  C   UNL     1       4.957   5.491  -0.877  0.00  0.00    +0.001 A 
ATOM     10  C   UNL     1       4.624   4.663   0.181  0.00  0.00    +0.002 A 
ATOM     11  C   UNL     1       3.374   4.744   0.766  0.00  0.00    +0.024 A 
ATOM     12  C   UNL     1       2.449   5.655   0.292  0.00  0.00    +0.039 A 
ATOM     13  N   UNL     1       1.165   5.740   0.835  0.00  0.00    -0.305 N 
ATOM     14  C   UNL     1       0.029   5.302   0.031  0.00  0.00    +0.295 C 
ATOM     15  O   UNL     1       0.120   5.770  -1.310  0.00  0.00    -0.449 OA
ATOM     16  H   UNL     1       1.032   6.084   1.732  0.00  0.00    +0.150 HD
ENDROOT
BRANCH  14  17
ATOM     17  C   UNL     1      -0.015   3.796   0.023  0.00  0.00    +0.029 A 
ATOM     18  C   UNL     1      -0.392   3.110  -1.122  0.00  0.00    +0.012 A 
ATOM     19  C   UNL     1      -0.413   1.724  -1.085  0.00  0.00    +0.020 A 
ATOM     20  C   UNL     1      -0.070   1.077   0.088  0.00  0.00    +0.111 A 
ATOM     21  N   UNL     1       0.284   1.762   1.158  0.00  0.00    -0.263 NA
ATOM     22  C   UNL     1       0.320   3.080   1.157  0.00  0.00    +0.119 A 
ENDBRANCH  14  17
BRANCH   1  23
ATOM     23  S   UNL     1      -1.211  10.418  -2.624  0.00  0.00    -0.084 S 
BRANCH  23  24
ATOM     24  C   UNL     1      -0.159  11.890  -2.678  0.00  0.00    +0.077 C 
BRANCH  24  25
ATOM     25  C   UNL     1      -0.986  13.092  -3.138  0.00  0.00    +0.011 C 
BRANCH  25  26
ATOM     26  C   UNL     1      -0.096  14.336  -3.183  0.00  0.00    +0.001 C 
BRANCH  26  28
ATOM     27  C   UNL     1      -0.034  16.782  -3.689  0.00  0.00    +0.004 C 
ATOM     28  C   UNL     1      -0.923  15.538  -3.644  0.00  0.00    -0.003 C 
ENDBRANCH  26  28
ENDBRANCH  25  26
ENDBRANCH  24  25
ENDBRANCH  23  24
ENDBRANCH   1  23
TORSDOF 6
