REMARK  Name = ZINC03319290
REMARK  8 active torsions:
REMARK  status: ('A' for Active; 'I' for Inactive)
REMARK    1  A    between atoms: C_1  and  C_2
REMARK    2  A    between atoms: C_2  and  C_3
REMARK    3  A    between atoms: C_2  and  C_4
REMARK    4  A    between atoms: C_4  and  S_5
REMARK    5  A    between atoms: S_5  and  C_6
REMARK    6  A    between atoms: C_9  and  C_18
REMARK    7  A    between atoms: N_10  and  C_11
REMARK    8  A    between atoms: C_18  and  N_19
REMARK                            x       y       z     vdW  Elec       q    Type
REMARK                         _______ _______ _______ _____ _____    ______ ____
ROOT
ATOM      1  C   UNL     1      -3.136   0.611   1.110  0.00  0.00    +0.196 A 
ATOM      2  N   UNL     1      -4.198  -0.016   0.659  0.00  0.00    -0.122 NA
ATOM      3  N   UNL     1      -4.199  -0.006  -0.626  0.00  0.00    -0.131 NA
ATOM      4  C   UNL     1      -3.150   0.626  -1.071  0.00  0.00    +0.159 A 
ATOM      5  N   UNL     1      -2.430   1.038   0.019  0.00  0.00    -0.271 N 
ENDROOT
BRANCH   5   6
ATOM      6  C   UNL     1      -1.224   1.754   0.017  0.00  0.00    +0.069 A 
ATOM      7  C   UNL     1      -0.013   1.076   0.008  0.00  0.00    +0.028 A 
ATOM      8  C   UNL     1       1.174   1.783   0.000  0.00  0.00    +0.002 A 
ATOM      9  C   UNL     1       1.157   3.166   0.008  0.00  0.00    +0.002 A 
ATOM     10  C   UNL     1      -0.048   3.845   0.023  0.00  0.00    +0.022 A 
ATOM     11  C   UNL     1      -1.238   3.143   0.031  0.00  0.00    +0.065 A 
ATOM     12 CL   UNL     1      -2.750   3.996   0.050  0.00  0.00    -0.081 Cl
ENDBRANCH   5   6
BRANCH   1  13
ATOM     13  S   UNL     1      -2.703   0.855   2.800  0.00  0.00    -0.085 S 
BRANCH  13  14
ATOM     14  C   UNL     1      -4.094   0.023   3.605  0.00  0.00    +0.080 C 
BRANCH  14  16
ATOM     15  C   UNL     1      -5.166  -0.484   5.804  0.00  0.00    +0.008 C 
ATOM     16  C   UNL     1      -3.931   0.109   5.124  0.00  0.00    -0.007 C 
ATOM     17  C   UNL     1      -2.689  -0.677   5.548  0.00  0.00    +0.008 C 
ENDBRANCH  14  16
ENDBRANCH  13  14
ENDBRANCH   1  13
BRANCH   4  18
ATOM     18  C   UNL     1      -2.793   0.859  -2.517  0.00  0.00    +0.199 C 
BRANCH  18  19
ATOM     19  N   UNL     1      -1.972  -0.254  -3.002  0.00  0.00    -0.323 N 
ATOM     20  C   UNL     1      -0.614  -0.294  -3.046  0.00  0.00    +0.200 A 
ATOM     21  N   UNL     1      -0.215  -1.432  -3.534  0.00  0.00    -0.236 NA
ATOM     22  C   UNL     1      -1.293  -2.201  -3.836  0.00  0.00    +0.089 A 
ATOM     23  C   UNL     1      -2.435  -1.458  -3.493  0.00  0.00    +0.069 A 
ATOM     24  C   UNL     1      -3.697  -1.997  -3.701  0.00  0.00    +0.028 A 
ATOM     25  C   UNL     1      -3.821  -3.263  -4.232  0.00  0.00    +0.002 A 
ATOM     26  C   UNL     1      -2.692  -3.999  -4.565  0.00  0.00    +0.002 A 
ATOM     27  C   UNL     1      -1.442  -3.483  -4.373  0.00  0.00    +0.030 A 
ENDBRANCH  18  19
ENDBRANCH   4  18
TORSDOF 6
