REMARK  Name = ZINC05710460
REMARK  9 active torsions:
REMARK  status: ('A' for Active; 'I' for Inactive)
REMARK    1  A    between atoms: C_1  and  C_2
REMARK    2  A    between atoms: C_2  and  C_3
REMARK    3  A    between atoms: C_6  and  N_9
REMARK    4  A    between atoms: C_10  and  C_12
REMARK    5  A    between atoms: C_12  and  S_13
REMARK    6  A    between atoms: S_13  and  C_14
REMARK    7  A    between atoms: C_15  and  C_32
REMARK    8  A    between atoms: C_16  and  C_26
REMARK    9  A    between atoms: C_29  and  C_31
REMARK                            x       y       z     vdW  Elec       q    Type
REMARK                         _______ _______ _______ _____ _____    ______ ____
ROOT
ATOM      1  C   UNL     1      -9.752  -3.102  -2.608  0.00  0.00    +0.112 C 
ATOM      2  C   UNL     1     -10.529  -3.274  -3.741  0.00  0.00    +0.076 C 
ATOM      3  C   UNL     1     -11.973  -3.696  -3.536  0.00  0.00    +0.133 C 
ATOM      4  C   UNL     1     -12.408  -3.885  -2.095  0.00  0.00    +0.032 C 
ATOM      5  C   UNL     1     -13.667  -4.261  -1.819  0.00  0.00    +0.162 C 
ATOM      6  C   UNL     1     -14.132  -4.457  -0.400  0.00  0.00    +0.080 C 
ATOM      7  C   UNL     1     -12.945  -4.891   0.466  0.00  0.00    +0.014 C 
ATOM      8  C   UNL     1     -11.845  -3.830   0.364  0.00  0.00    +0.056 C 
ATOM      9  C   UNL     1     -11.456  -3.656  -1.085  0.00  0.00    +0.050 C 
ATOM     10  N   UNL     1     -10.230  -3.299  -1.378  0.00  0.00    -0.244 NA
ATOM     11  O   UNL     1     -14.532  -4.468  -2.831  0.00  0.00    -0.292 OA
ENDROOT
BRANCH   3  12
ATOM     12  C   UNL     1     -12.191  -4.997  -4.264  0.00  0.00    +0.118 A 
ATOM     13  C   UNL     1     -13.071  -5.203  -5.260  0.00  0.00    +0.046 A 
ATOM     14  C   UNL     1     -12.943  -6.556  -5.648  0.00  0.00    +0.044 A 
ATOM     15  C   UNL     1     -11.992  -7.097  -4.865  0.00  0.00    +0.102 A 
ATOM     16  O   UNL     1     -11.536  -6.146  -4.033  0.00  0.00    -0.464 OA
ATOM     17  C   UNL     1     -11.514  -8.525  -4.917  0.00  0.00    +0.086 C 
ENDBRANCH   3  12
BRANCH   2  18
ATOM     18  C   UNL     1      -9.993  -3.062  -5.052  0.00  0.00    +0.099 C 
ATOM     19  N   UNL     1      -9.568  -2.894  -6.092  0.00  0.00    -0.191 NA
ENDBRANCH   2  18
BRANCH   1  20
ATOM     20  S   UNL     1      -8.069  -2.613  -2.797  0.00  0.00    -0.096 S 
BRANCH  20  21
ATOM     21  C   UNL     1      -7.446  -2.518  -1.097  0.00  0.00    +0.172 C 
BRANCH  21  23
ATOM     22  N   UNL     1      -5.320  -1.968   0.042  0.00  0.00    -0.285 N 
ATOM     23  C   UNL     1      -5.997  -2.104  -1.115  0.00  0.00    +0.227 C 
ATOM     24  O   UNL     1      -5.440  -1.894  -2.172  0.00  0.00    -0.275 OA
ATOM     25  H   UNL     1      -5.742  -2.209   0.882  0.00  0.00    +0.155 HD
BRANCH  22  29
ATOM     26  C   UNL     1      -1.419  -0.507   0.015  0.00  0.00    -0.048 A 
ATOM     27  C   UNL     1      -2.333  -0.051  -0.916  0.00  0.00    +0.005 A 
ATOM     28  C   UNL     1      -3.627  -0.533  -0.910  0.00  0.00    +0.023 A 
ATOM     29  C   UNL     1      -4.010  -1.478   0.033  0.00  0.00    +0.033 A 
ATOM     30  C   UNL     1      -3.089  -1.935   0.967  0.00  0.00    +0.023 A 
ATOM     31  C   UNL     1      -1.795  -1.452   0.952  0.00  0.00    +0.005 A 
BRANCH  26  33
ATOM     32  C   UNL     1       0.858  -0.854  -0.904  0.00  0.00    +0.009 C 
ATOM     33  C   UNL     1      -0.007   0.021   0.005  0.00  0.00    +0.032 C 
ENDBRANCH  26  33
ENDBRANCH  22  29
ENDBRANCH  21  23
ENDBRANCH  20  21
ENDBRANCH   1  20
TORSDOF 7
