REMARK  Name = ZINC03157856
REMARK  2 active torsions:
REMARK  status: ('A' for Active; 'I' for Inactive)
REMARK    1  A    between atoms: C_4  and  O_19
REMARK    2  A    between atoms: C_5  and  C_7
REMARK                            x       y       z     vdW  Elec       q    Type
REMARK                         _______ _______ _______ _____ _____    ______ ____
ROOT
ATOM      1  C   UNL     1       1.248  -2.161  -0.022  0.00  0.00    +0.127 C 
ATOM      2  N   UNL     1       2.286  -2.946  -0.048  0.00  0.00    -0.178 NA
ATOM      3  N   UNL     1       2.185  -4.324  -0.001  0.00  0.00    -0.252 N 
ATOM      4  C   UNL     1       0.825  -4.841   0.216  0.00  0.00    +0.100 C 
ATOM      5  S   UNL     1      -0.138  -3.291  -0.015  0.00  0.00    -0.077 S 
ATOM      6  C   UNL     1       0.645  -5.328   1.642  0.00  0.00    +0.038 C 
ATOM      7  C   UNL     1       0.442  -6.840   1.739  0.00  0.00    +0.003 C 
ATOM      8  C   UNL     1       1.788  -7.505   2.061  0.00  0.00    +0.000 C 
ATOM      9  C   UNL     1       2.670  -7.477   0.809  0.00  0.00    +0.000 C 
ATOM     10  C   UNL     1       1.860  -7.872  -0.420  0.00  0.00    +0.000 C 
ATOM     11  C   UNL     1       1.620  -6.666  -1.322  0.00  0.00    +0.003 C 
ATOM     12  C   UNL     1       0.419  -5.844  -0.852  0.00  0.00    +0.038 C 
ATOM     13  H   UNL     1       2.962  -4.893  -0.100  0.00  0.00    +0.170 HD
ENDROOT
BRANCH   1  18
ATOM     14  C   UNL     1      -0.017   1.375   0.010  0.00  0.00    +0.001 A 
ATOM     15  C   UNL     1       1.169   2.089   0.002  0.00  0.00    +0.004 A 
ATOM     16  C   UNL     1       2.383   1.427  -0.013  0.00  0.00    +0.046 A 
ATOM     17  C   UNL     1       2.418   0.042  -0.021  0.00  0.00    +0.127 A 
ATOM     18  C   UNL     1       1.221  -0.683  -0.013  0.00  0.00    +0.050 A 
ATOM     19  C   UNL     1       0.002  -0.004   0.002  0.00  0.00    +0.014 A 
BRANCH  17  20
ATOM     20  O   UNL     1       3.610  -0.609  -0.036  0.00  0.00    -0.506 OA
ATOM     21  H   UNL     1       3.964  -0.802   0.843  0.00  0.00    +0.292 HD
ENDBRANCH  17  20
ENDBRANCH   1  18
TORSDOF 2
