REMARK  Name = ZINC13739516
REMARK  7 active torsions:
REMARK  status: ('A' for Active; 'I' for Inactive)
REMARK    1  A    between atoms: C_1  and  C_2
REMARK    2  A    between atoms: C_4  and  C_27
REMARK    3  A    between atoms: C_5  and  C_25
REMARK    4  A    between atoms: C_6  and  S_8
REMARK    5  A    between atoms: S_8  and  C_9
REMARK    6  A    between atoms: C_9  and  C_10
REMARK    7  A    between atoms: C_17  and  N_22
REMARK                            x       y       z     vdW  Elec       q    Type
REMARK                         _______ _______ _______ _____ _____    ______ ____
ROOT
ATOM      1  C   UNL     1       0.056  -2.020   5.357  0.00  0.00    +0.229 C 
ATOM      2  O   UNL     1       0.074  -3.221   5.520  0.00  0.00    -0.275 OA
ATOM      3  N   UNL     1       0.050  -1.195   6.423  0.00  0.00    -0.264 N 
ATOM      4  C   UNL     1       0.064  -1.721   7.705  0.00  0.00    +0.165 A 
ATOM      5  N   UNL     1       0.055  -1.087   8.854  0.00  0.00    -0.224 NA
ATOM      6  C   UNL     1       0.071  -1.734  10.040  0.00  0.00    +0.082 A 
ATOM      7  C   UNL     1       0.065  -1.175  11.339  0.00  0.00    +0.061 A 
ATOM      8  C   UNL     1       0.083  -1.981  12.448  0.00  0.00    +0.128 A 
ATOM      9  C   UNL     1       0.109  -3.364  12.338  0.00  0.00    +0.034 A 
ATOM     10  C   UNL     1       0.116  -3.944  11.083  0.00  0.00    +0.019 A 
ATOM     11  C   UNL     1       0.097  -3.145   9.967  0.00  0.00    +0.041 A 
ATOM     12  S   UNL     1       0.089  -3.434   8.214  0.00  0.00    -0.052 S 
ATOM     13  H   UNL     1       0.036  -0.234   6.293  0.00  0.00    +0.157 HD
ENDROOT
BRANCH   8  14
ATOM     14  N   UNL     1       0.076  -1.362  13.792  0.00  0.00    +0.056 N 
ATOM     15  O   UNL     1       0.054  -0.158  13.903  0.00  0.00    -0.126 OA
ATOM     16  O   UNL     1       0.092  -2.060  14.779  0.00  0.00    -0.126 OA
ENDBRANCH   8  14
BRANCH   1  17
ATOM     17  C   UNL     1       0.042  -1.448   3.963  0.00  0.00    +0.172 C 
BRANCH  17  18
ATOM     18  S   UNL     1       0.054  -2.801   2.754  0.00  0.00    -0.095 S 
BRANCH  18  24
ATOM     19  C   UNL     1      -0.018   1.503   0.010  0.00  0.00    +0.065 C 
ATOM     20  C   UNL     1       0.002  -0.004   0.002  0.00  0.00    +0.040 A 
ATOM     21  C   UNL     1       0.005  -0.676  -1.207  0.00  0.00    +0.036 A 
ATOM     22  C   UNL     1       0.025  -2.060  -1.218  0.00  0.00    +0.076 A 
ATOM     23  C   UNL     1       0.040  -2.735   0.008  0.00  0.00    +0.095 A 
ATOM     24  C   UNL     1       0.035  -1.981   1.195  0.00  0.00    +0.116 A 
ATOM     25  N   UNL     1       0.022  -0.657   1.147  0.00  0.00    -0.244 NA
BRANCH  22  26
ATOM     26  C   UNL     1       0.029  -2.822  -2.518  0.00  0.00    +0.419 C 
ATOM     27  F   UNL     1       0.010  -1.920  -3.587  0.00  0.00    -0.166 F 
ATOM     28  F   UNL     1       1.181  -3.611  -2.594  0.00  0.00    -0.166 F 
ATOM     29  F   UNL     1      -1.103  -3.642  -2.581  0.00  0.00    -0.166 F 
ENDBRANCH  22  26
BRANCH  23  30
ATOM     30  C   UNL     1       0.060  -4.166   0.053  0.00  0.00    +0.102 C 
ATOM     31  N   UNL     1       0.075  -5.301   0.088  0.00  0.00    -0.191 NA
ENDBRANCH  23  30
ENDBRANCH  18  24
ENDBRANCH  17  18
ENDBRANCH   1  17
TORSDOF 6
