REMARK  Name = ZINC08924794
REMARK  8 active torsions:
REMARK  status: ('A' for Active; 'I' for Inactive)
REMARK    1  A    between atoms: C_1  and  O_2
REMARK    2  A    between atoms: O_2  and  C_3
REMARK    3  A    between atoms: C_3  and  C_5
REMARK    4  A    between atoms: C_9  and  N_10
REMARK    5  A    between atoms: C_11  and  C_13
REMARK    6  A    between atoms: C_13  and  S_14
REMARK    7  A    between atoms: S_14  and  C_15
REMARK    8  A    between atoms: C_18  and  C_20
REMARK                            x       y       z     vdW  Elec       q    Type
REMARK                         _______ _______ _______ _____ _____    ______ ____
ROOT
ATOM      1  N   UNL     1      -9.402  -1.226   0.037  0.00  0.00    -0.279 N 
ATOM      2  C   UNL     1      -8.662  -0.100   0.040  0.00  0.00    +0.228 C 
ATOM      3  O   UNL     1      -9.206   0.984   0.048  0.00  0.00    -0.275 OA
ATOM      4  H   UNL     1      -8.967  -2.093   0.030  0.00  0.00    +0.155 HD
ENDROOT
BRANCH   1   9
ATOM      5  C   UNL     1     -11.710  -2.182   0.036  0.00  0.00    +0.091 A 
ATOM      6  C   UNL     1     -13.119  -1.824   0.051  0.00  0.00    -0.021 A 
ATOM      7  C   UNL     1     -13.376  -0.498   0.058  0.00  0.00    -0.004 A 
ATOM      8  S   UNL     1     -11.782   0.272   0.055  0.00  0.00    -0.077 S 
ATOM      9  C   UNL     1     -10.786  -1.146   0.043  0.00  0.00    +0.086 A 
ATOM     10  C   UNL     1     -14.721   0.161   0.066  0.00  0.00    +0.043 C 
ATOM     11  C   UNL     1     -15.776  -0.888  -0.313  0.00  0.00    +0.005 C 
ATOM     12  C   UNL     1     -15.535  -2.152   0.516  0.00  0.00    +0.005 C 
ATOM     13  C   UNL     1     -14.252  -2.843   0.051  0.00  0.00    +0.037 C 
BRANCH   5  14
ATOM     14  C   UNL     1     -11.282  -3.582   0.020  0.00  0.00    +0.342 C 
ATOM     15  O   UNL     1     -11.101  -4.175   1.066  0.00  0.00    -0.245 OA
BRANCH  14  17
ATOM     16  C   UNL     1     -10.665  -5.602  -1.097  0.00  0.00    +0.280 C 
ATOM     17  O   UNL     1     -11.089  -4.214  -1.156  0.00  0.00    -0.464 OA
ENDBRANCH  14  17
ENDBRANCH   5  14
ENDBRANCH   1   9
BRANCH   2  18
ATOM     18  C   UNL     1      -7.157  -0.187   0.033  0.00  0.00    +0.175 C 
BRANCH  18  19
ATOM     19  S   UNL     1      -6.456   1.481   0.039  0.00  0.00    -0.056 S 
BRANCH  19  20
ATOM     20  C   UNL     1      -4.738   1.091   0.029  0.00  0.00    +0.278 A 
ATOM     21  N   UNL     1      -4.215  -0.112   0.020  0.00  0.00    -0.101 NA
ATOM     22  N   UNL     1      -2.932  -0.023   0.015  0.00  0.00    -0.106 NA
ATOM     23  C   UNL     1      -2.583   1.243   0.020  0.00  0.00    +0.256 A 
ATOM     24  O   UNL     1      -3.720   1.974   0.035  0.00  0.00    -0.410 OA
BRANCH  23  25
ATOM     25  C   UNL     1      -1.209   1.767   0.017  0.00  0.00    +0.077 A 
ATOM     26  C   UNL     1      -0.013   1.076   0.008  0.00  0.00    +0.022 A 
ATOM     27  C   UNL     1       1.160   1.797   0.001  0.00  0.00    +0.028 A 
ATOM     28  C   UNL     1       1.105   3.155   0.009  0.00  0.00    +0.079 A 
ATOM     29  S   UNL     1      -0.653   3.464   0.027  0.00  0.00    -0.072 S 
ATOM     30 CL   UNL     1       2.412   4.298   0.002  0.00  0.00    -0.076 Cl
ENDBRANCH  23  25
ENDBRANCH  19  20
ENDBRANCH  18  19
ENDBRANCH   2  18
TORSDOF 7
