REMARK  Name = ZINC63269957
REMARK  14 active torsions:
REMARK  status: ('A' for Active; 'I' for Inactive)
REMARK    1  A    between atoms: C_1  and  O_2
REMARK    2  A    between atoms: O_2  and  C_3
REMARK    3  A    between atoms: C_6  and  C_11
REMARK    4  A    between atoms: C_8  and  O_9
REMARK    5  A    between atoms: O_9  and  C_10
REMARK    6  A    between atoms: C_11  and  C_12
REMARK    7  A    between atoms: C_12  and  N_13
REMARK    8  A    between atoms: C_14  and  C_16
REMARK    9  A    between atoms: C_16  and  C_17
REMARK   10  A    between atoms: C_17  and  C_18
REMARK   11  A    between atoms: N_22  and  C_26
REMARK   12  A    between atoms: C_23  and  O_25
REMARK   13  A    between atoms: C_26  and  C_27
REMARK   14  A    between atoms: C_27  and  C_28
REMARK                            x       y       z     vdW  Elec       q    Type
REMARK                         _______ _______ _______ _____ _____    ______ ____
ROOT
ATOM      1  C   UNL     1       1.943  -5.410  11.112  0.00  0.00    +0.197 C 
ATOM      2  C   UNL     1       0.981  -5.610  12.267  0.00  0.00    +0.248 C 
ATOM      3  O   UNL     1       0.395  -4.754  12.896  0.00  0.00    -0.273 OA
ATOM      4  N   UNL     1       0.918  -6.947  12.443  0.00  0.00    -0.224 N 
ATOM      5  C   UNL     1       1.722  -7.592  11.539  0.00  0.00    +0.285 C 
ATOM      6  N   UNL     1       2.344  -6.777  10.743  0.00  0.00    -0.224 NA
ENDROOT
BRANCH   5   7
ATOM      7  O   UNL     1       1.855  -8.935  11.484  0.00  0.00    -0.481 OA
ATOM      8  H   UNL     1       2.458  -9.243  10.793  0.00  0.00    +0.295 HD
ENDBRANCH   5   7
BRANCH   1   9
ATOM      9  C   UNL     1       1.240  -4.722   9.940  0.00  0.00    +0.045 C 
BRANCH   9  10
ATOM     10  C   UNL     1       2.249  -4.466   8.819  0.00  0.00    +0.098 C 
BRANCH  10  12
ATOM     11  N   UNL     1       2.253  -3.463   6.558  0.00  0.00    -0.315 N 
ATOM     12  C   UNL     1       1.557  -3.788   7.665  0.00  0.00    +0.213 C 
ATOM     13  O   UNL     1       0.372  -3.535   7.733  0.00  0.00    -0.276 OA
ATOM     14  H   UNL     1       3.201  -3.665   6.505  0.00  0.00    +0.149 HD
BRANCH  11  15
ATOM     15  C   UNL     1       1.580  -2.804   5.436  0.00  0.00    +0.109 C 
BRANCH  15  16
ATOM     16  C   UNL     1       2.590  -2.548   4.315  0.00  0.00    +0.054 C 
BRANCH  16  20
ATOM     17  C   UNL     1       0.626  -0.619   1.042  0.00  0.00    +0.161 A 
ATOM     18  C   UNL     1       1.202   0.137   2.051  0.00  0.00    +0.049 A 
ATOM     19  C   UNL     1       1.836  -0.490   3.108  0.00  0.00    +0.007 A 
ATOM     20  C   UNL     1       1.897  -1.870   3.161  0.00  0.00    -0.042 A 
ATOM     21  C   UNL     1       1.325  -2.630   2.158  0.00  0.00    +0.053 A 
ATOM     22  C   UNL     1       0.683  -2.008   1.099  0.00  0.00    +0.162 A 
BRANCH  17  24
ATOM     23  C   UNL     1      -0.017   1.425   0.010  0.00  0.00    +0.277 C 
ATOM     24  O   UNL     1       0.002  -0.004   0.002  0.00  0.00    -0.491 OA
ENDBRANCH  17  24
BRANCH  22  25
ATOM     25  O   UNL     1       0.115  -2.754   0.114  0.00  0.00    -0.491 OA
ATOM     26  C   UNL     1       0.211  -4.174   0.238  0.00  0.00    +0.277 C 
ENDBRANCH  22  25
ENDBRANCH  16  20
ENDBRANCH  15  16
ENDBRANCH  11  15
ENDBRANCH  10  12
ENDBRANCH   9  10
ENDBRANCH   1   9
BRANCH   4  27
ATOM     27  C   UNL     1       0.103  -7.616  13.460  0.00  0.00    +0.122 C 
BRANCH  27  28
ATOM     28  C   UNL     1      -1.282  -7.919  12.886  0.00  0.00    +0.052 C 
BRANCH  28  29
ATOM     29  C   UNL     1      -2.120  -8.607  13.932  0.00  0.00    -0.040 C 
ATOM     30  C   UNL     1      -3.001  -8.028  14.778  0.00  0.00    -0.001 A 
ATOM     31  C   UNL     1      -3.426  -6.636  14.972  0.00  0.00    +0.010 A 
ATOM     32  C   UNL     1      -4.348  -6.358  15.922  0.00  0.00    +0.001 A 
ATOM     33  C   UNL     1      -4.906  -7.362  16.724  0.00  0.00    +0.002 A 
ATOM     34  C   UNL     1      -4.566  -8.663  16.606  0.00  0.00    +0.026 A 
ATOM     35  C   UNL     1      -3.606  -9.070  15.639  0.00  0.00    +0.043 A 
ATOM     36  N   UNL     1      -3.117 -10.248  15.335  0.00  0.00    -0.380 N 
ATOM     37  C   UNL     1      -2.151 -10.087  14.243  0.00  0.00    +0.144 C 
ATOM     38  H   UNL     1      -3.358 -11.087  15.760  0.00  0.00    +0.160 HD
ENDBRANCH  28  29
ENDBRANCH  27  28
ENDBRANCH   4  27
TORSDOF 12
