REMARK  Name = ZINC40386500
REMARK  5 active torsions:
REMARK  status: ('A' for Active; 'I' for Inactive)
REMARK    1  A    between atoms: N_9  and  C_11
REMARK    2  A    between atoms: C_11  and  C_12
REMARK    3  A    between atoms: C_27  and  C_29
REMARK    4  A    between atoms: C_29  and  C_30
REMARK    5  A    between atoms: C_30  and  C_31
REMARK                            x       y       z     vdW  Elec       q    Type
REMARK                         _______ _______ _______ _____ _____    ______ ____
ROOT
ATOM      1  C   UNL     1       5.835  -2.252   1.262  0.00  0.00    +0.064 A 
ATOM      2  C   UNL     1       6.285  -3.048   2.275  0.00  0.00    +0.094 A 
ATOM      3  C   UNL     1       7.192  -2.513   3.207  0.00  0.00    +0.253 A 
ATOM      4  O   UNL     1       7.616  -3.196   4.125  0.00  0.00    -0.268 OA
ATOM      5  N   UNL     1       7.587  -1.229   3.067  0.00  0.00    -0.295 N 
ATOM      6  H   UNL     1       8.212  -0.840   3.698  0.00  0.00    +0.172 HD
ATOM      7  C   UNL     1       7.104  -0.484   2.036  0.00  0.00    +0.199 A 
ATOM      8  N   UNL     1       6.258  -0.993   1.164  0.00  0.00    -0.219 NA
ATOM      9  N   UNL     1       7.508   0.817   1.900  0.00  0.00    -0.300 N 
ATOM     10  C   UNL     1       6.967   1.604   0.782  0.00  0.00    +0.109 C 
ATOM     11  C   UNL     1       6.569   3.022   1.198  0.00  0.00    +0.038 C 
ATOM     12  C   UNL     1       5.881   3.001   2.549  0.00  0.00    +0.109 C 
ATOM     13  N   UNL     1       6.913   3.073   3.583  0.00  0.00    -0.300 N 
ATOM     14  C   UNL     1       7.655   1.957   4.058  0.00  0.00    +0.126 C 
ATOM     15  C   UNL     1       8.445   1.354   2.872  0.00  0.00    +0.127 C 
ATOM     16  C   UNL     1       7.178   4.279   4.123  0.00  0.00    +0.216 C 
ATOM     17  O   UNL     1       6.569   5.258   3.747  0.00  0.00    -0.276 OA
ENDROOT
BRANCH   1  18
ATOM     18  C   UNL     1       4.863  -2.801   0.250  0.00  0.00    +0.140 C 
BRANCH  18  27
ATOM     19  C   UNL     1      -0.017   1.376   0.010  0.00  0.00    +0.000 A 
ATOM     20  C   UNL     1       1.173   2.080   0.002  0.00  0.00    +0.000 A 
ATOM     21  C   UNL     1       2.374   1.400  -0.015  0.00  0.00    +0.005 A 
ATOM     22  C   UNL     1       2.395   0.013  -0.024  0.00  0.00    -0.030 A 
ATOM     23  C   UNL     1       1.208  -0.688  -0.012  0.00  0.00    -0.042 A 
ATOM     24  C   UNL     1       0.002  -0.004   0.002  0.00  0.00    +0.004 A 
ATOM     25  C   UNL     1       1.180  -2.195  -0.009  0.00  0.00    +0.051 C 
ATOM     26  C   UNL     1       2.541  -2.744  -0.440  0.00  0.00    +0.090 C 
ATOM     27  N   UNL     1       3.585  -2.085   0.361  0.00  0.00    -0.292 NA
ATOM     28  C   UNL     1       3.730  -0.684  -0.048  0.00  0.00    +0.120 C 
ENDBRANCH  18  27
ENDBRANCH   1  18
BRANCH  16  29
ATOM     29  C   UNL     1       8.232   4.410   5.192  0.00  0.00    +0.096 C 
BRANCH  29  30
ATOM     30  C   UNL     1       8.334   5.873   5.630  0.00  0.00    +0.013 C 
BRANCH  30  31
ATOM     31  C   UNL     1       9.403   6.007   6.716  0.00  0.00    -0.011 C 
ATOM     32  C   UNL     1       8.939   5.298   8.005  0.00  0.00    +0.003 C 
ATOM     33  C   UNL     1       9.462   6.205   9.147  0.00  0.00    +0.000 C 
ATOM     34  C   UNL     1       9.256   7.629   8.573  0.00  0.00    +0.000 C 
ATOM     35  C   UNL     1       9.605   7.489   7.077  0.00  0.00    +0.003 C 
ENDBRANCH  30  31
ENDBRANCH  29  30
ENDBRANCH  16  29
TORSDOF 5
