REMARK  Name = ZINC33052692
REMARK  12 active torsions:
REMARK  status: ('A' for Active; 'I' for Inactive)
REMARK    1  A    between atoms: C_1  and  C_2
REMARK    2  A    between atoms: C_2  and  O_3
REMARK    3  A    between atoms: O_3  and  C_4
REMARK    4  A    between atoms: C_4  and  C_5
REMARK    5  A    between atoms: C_5  and  C_6
REMARK    6  A    between atoms: C_6  and  N_7
REMARK    7  A    between atoms: C_13  and  C_39
REMARK    8  A    between atoms: N_15  and  C_33
REMARK    9  A    between atoms: C_22  and  C_24
REMARK   10  A    between atoms: C_28  and  O_30
REMARK   11  A    between atoms: O_30  and  C_31
REMARK   12  A    between atoms: C_31  and  C_32
REMARK                            x       y       z     vdW  Elec       q    Type
REMARK                         _______ _______ _______ _____ _____    ______ ____
ROOT
ATOM      1  N   UNL     1      -2.453  -5.182   2.882  0.00  0.00    -0.299 N 
ATOM      2  C   UNL     1      -2.584  -4.031   2.193  0.00  0.00    +0.303 C 
ATOM      3  O   UNL     1      -3.048  -3.047   2.735  0.00  0.00    -0.253 OA
ATOM      4  N   UNL     1      -2.200  -3.971   0.902  0.00  0.00    -0.269 N 
ATOM      5  C   UNL     1      -1.630  -5.145   0.199  0.00  0.00    +0.151 C 
ATOM      6  C   UNL     1      -0.502  -4.749  -0.708  0.00  0.00    +0.035 A 
ATOM      7  C   UNL     1       0.863  -4.978  -0.565  0.00  0.00    +0.067 A 
ATOM      8  N   UNL     1       1.477  -4.488  -1.616  0.00  0.00    -0.169 NA
ATOM      9  N   UNL     1       0.514  -3.927  -2.472  0.00  0.00    -0.215 N 
ATOM     10  C   UNL     1      -0.685  -4.070  -1.878  0.00  0.00    +0.146 A 
ATOM     11  N   UNL     1      -1.954  -3.603  -2.238  0.00  0.00    -0.303 N 
ATOM     12  C   UNL     1      -2.605  -3.650  -3.424  0.00  0.00    +0.093 A 
ATOM     13  C   UNL     1      -3.849  -3.156  -3.235  0.00  0.00    +0.020 A 
ATOM     14  C   UNL     1      -3.951  -2.766  -1.881  0.00  0.00    +0.025 A 
ATOM     15  C   UNL     1      -2.766  -3.017  -1.301  0.00  0.00    +0.050 A 
ATOM     16  C   UNL     1      -2.325  -2.729   0.105  0.00  0.00    +0.155 C 
ATOM     17  C   UNL     1       1.523  -5.670   0.600  0.00  0.00    +0.068 C 
ATOM     18  H   UNL     1      -2.034  -6.072   2.391  0.00  0.00    +0.150 HD
ENDROOT
BRANCH  16  19
ATOM     19  C   UNL     1      -0.989  -2.032   0.068  0.00  0.00    -0.018 A 
ATOM     20  C   UNL     1      -0.731  -1.083  -0.904  0.00  0.00    +0.006 A 
ATOM     21  C   UNL     1       0.493  -0.442  -0.940  0.00  0.00    +0.004 A 
ATOM     22  C   UNL     1       1.461  -0.745  -0.002  0.00  0.00    +0.045 A 
ATOM     23  C   UNL     1       1.206  -1.700   0.971  0.00  0.00    +0.121 A 
ATOM     24  C   UNL     1      -0.023  -2.342   1.006  0.00  0.00    +0.051 A 
BRANCH  23  25
ATOM     25  O   UNL     1       2.158  -2.003   1.893  0.00  0.00    -0.492 OA
BRANCH  25  26
ATOM     26  C   UNL     1       3.400  -1.303   1.797  0.00  0.00    +0.225 C 
ATOM     27  C   UNL     1       4.339  -1.774   2.910  0.00  0.00    +0.048 C 
ENDBRANCH  25  26
ENDBRANCH  23  25
ENDBRANCH  16  19
BRANCH   9  28
ATOM     28  C   UNL     1       0.758  -3.328  -3.716  0.00  0.00    +0.068 A 
ATOM     29  C   UNL     1       1.674  -3.893  -4.593  0.00  0.00    +0.028 A 
ATOM     30  C   UNL     1       1.907  -3.304  -5.820  0.00  0.00    +0.002 A 
ATOM     31  C   UNL     1       1.238  -2.146  -6.171  0.00  0.00    +0.000 A 
ATOM     32  C   UNL     1       0.330  -1.577  -5.297  0.00  0.00    +0.002 A 
ATOM     33  C   UNL     1       0.087  -2.165  -4.071  0.00  0.00    +0.028 A 
ENDBRANCH   9  28
BRANCH   1  34
ATOM     34  C   UNL     1      -2.870  -5.247   4.285  0.00  0.00    +0.108 C 
BRANCH  34  35
ATOM     35  C   UNL     1      -2.617  -6.655   4.827  0.00  0.00    +0.047 C 
BRANCH  35  36
ATOM     36  C   UNL     1      -3.053  -6.723   6.293  0.00  0.00    +0.161 C 
BRANCH  36  37
ATOM     37  O   UNL     1      -2.816  -8.038   6.799  0.00  0.00    -0.380 OA
BRANCH  37  39
ATOM     38  C   UNL     1      -2.894  -9.646   8.601  0.00  0.00    +0.034 C 
ATOM     39  C   UNL     1      -3.191  -8.209   8.168  0.00  0.00    +0.156 C 
ENDBRANCH  37  39
ENDBRANCH  36  37
ENDBRANCH  35  36
ENDBRANCH  34  35
ENDBRANCH   1  34
TORSDOF 9
