REMARK  Name = ZINC35344387
REMARK  12 active torsions:
REMARK  status: ('A' for Active; 'I' for Inactive)
REMARK    1  A    between atoms: C_1  and  C_2
REMARK    2  A    between atoms: C_5  and  C_8
REMARK    3  A    between atoms: C_14  and  C_16
REMARK    4  A    between atoms: C_16  and  C_18
REMARK    5  A    between atoms: C_16  and  N_21
REMARK    6  A    between atoms: C_18  and  C_19
REMARK    7  A    between atoms: C_18  and  C_20
REMARK    8  A    between atoms: N_21  and  S_22
REMARK    9  A    between atoms: S_22  and  C_25
REMARK   10  A    between atoms: C_25  and  C_26
REMARK   11  A    between atoms: C_31  and  C_32
REMARK   12  A    between atoms: C_31  and  C_33
REMARK                            x       y       z     vdW  Elec       q    Type
REMARK                         _______ _______ _______ _____ _____    ______ ____
ROOT
ATOM      1  C   UNL     1       0.403 -10.587   0.551  0.00  0.00    +0.165 C 
ENDROOT
BRANCH   1   8
ATOM      2  C   UNL     1      -0.227  -4.340  -0.269  0.00  0.00    +0.134 A 
ATOM      3  N   UNL     1      -0.424  -5.268  -1.197  0.00  0.00    -0.140 NA
ATOM      4  N   UNL     1      -0.284  -6.484  -0.883  0.00  0.00    -0.125 NA
ATOM      5  C   UNL     1       0.051  -6.855   0.338  0.00  0.00    +0.188 A 
ATOM      6  S   UNL     1       0.192  -5.372   1.128  0.00  0.00    -0.030 S 
ATOM      7  N   UNL     1       0.242  -8.136   0.842  0.00  0.00    -0.262 N 
ATOM      8  C   UNL     1       0.085  -9.206   0.037  0.00  0.00    +0.238 C 
ATOM      9  O   UNL     1      -0.312  -9.058  -1.099  0.00  0.00    -0.274 OA
ATOM     10  H   UNL     1       0.489  -8.260   1.771  0.00  0.00    +0.157 HD
BRANCH   2  15
ATOM     11  C   UNL     1      -0.597   1.391  -0.643  0.00  0.00    +0.044 C 
ATOM     12  C   UNL     1      -0.500  -0.110  -0.545  0.00  0.00    -0.050 A 
ATOM     13  C   UNL     1      -0.758  -0.891  -1.657  0.00  0.00    +0.004 A 
ATOM     14  C   UNL     1      -0.671  -2.265  -1.575  0.00  0.00    +0.011 A 
ATOM     15  C   UNL     1      -0.322  -2.867  -0.365  0.00  0.00    +0.009 A 
ATOM     16  C   UNL     1      -0.063  -2.074   0.754  0.00  0.00    +0.011 A 
ATOM     17  C   UNL     1      -0.148  -0.701   0.656  0.00  0.00    +0.004 A 
ENDBRANCH   2  15
ENDBRANCH   1   8
BRANCH   1  18
ATOM     18  C   UNL     1      -0.770 -11.102   1.388  0.00  0.00    +0.010 C 
ATOM     19  C   UNL     1      -2.030 -11.156   0.523  0.00  0.00    +0.009 C 
ATOM     20  C   UNL     1      -0.448 -12.504   1.909  0.00  0.00    +0.009 C 
ENDBRANCH   1  18
BRANCH   1  21
ATOM     21  N   UNL     1       0.627 -11.489  -0.582  0.00  0.00    -0.182 NA
ATOM     22  H   UNL     1      -0.126 -11.921  -1.014  0.00  0.00    +0.148 HD
BRANCH  21  23
ATOM     23  S   UNL     1       2.166 -11.771  -1.123  0.00  0.00    +0.031 S 
ATOM     24  O   UNL     1       2.010 -12.685  -2.200  0.00  0.00    -0.158 OA
ATOM     25  O   UNL     1       2.715 -10.479  -1.344  0.00  0.00    -0.158 OA
BRANCH  23  26
ATOM     26  C   UNL     1       3.008 -12.580   0.265  0.00  0.00    +0.200 C 
BRANCH  26  27
ATOM     27  C   UNL     1       4.499 -12.716  -0.052  0.00  0.00    +0.055 C 
ATOM     28  C   UNL     1       5.275 -11.379  -0.257  0.00  0.00    +0.017 C 
ATOM     29  C   UNL     1       6.759 -11.754  -0.041  0.00  0.00    +0.005 C 
ATOM     30  C   UNL     1       6.734 -13.284   0.265  0.00  0.00    +0.003 C 
ATOM     31  C   UNL     1       5.381 -13.399   1.051  0.00  0.00    -0.018 C 
ATOM     32  C   UNL     1       5.401 -12.594   2.352  0.00  0.00    +0.012 C 
ATOM     33  C   UNL     1       4.977 -14.855   1.291  0.00  0.00    +0.012 C 
ATOM     34  C   UNL     1       6.346 -13.942  -1.095  0.00  0.00    +0.079 C 
ATOM     35  C   UNL     1       4.847 -13.577  -1.274  0.00  0.00    +0.142 C 
ATOM     36  O   UNL     1       4.118 -13.882  -2.187  0.00  0.00    -0.297 OA
ENDBRANCH  26  27
ENDBRANCH  23  26
ENDBRANCH  21  23
ENDBRANCH   1  21
TORSDOF 7
