REMARK  Name = ZINC63373564
REMARK  12 active torsions:
REMARK  status: ('A' for Active; 'I' for Inactive)
REMARK    1  A    between atoms: C_1  and  C_2
REMARK    2  A    between atoms: C_2  and  C_4
REMARK    3  A    between atoms: C_2  and  N_12
REMARK    4  A    between atoms: C_4  and  C_5
REMARK    5  A    between atoms: C_5  and  C_6
REMARK    6  A    between atoms: C_13  and  C_15
REMARK    7  A    between atoms: C_15  and  C_17
REMARK    8  A    between atoms: C_15  and  N_21
REMARK    9  A    between atoms: C_17  and  C_18
REMARK   10  A    between atoms: C_18  and  C_19
REMARK   11  A    between atoms: C_18  and  C_20
REMARK   12  A    between atoms: C_24  and  C_40
REMARK                            x       y       z     vdW  Elec       q    Type
REMARK                         _______ _______ _______ _____ _____    ______ ____
ROOT
ATOM      1  N   UNL     1       4.223  -1.127   2.126  0.00  0.00    -0.212 N 
ATOM      2  C   UNL     1       4.980  -2.242   2.174  0.00  0.00    +0.249 C 
ATOM      3  O   UNL     1       4.617  -3.362   2.463  0.00  0.00    -0.273 OA
ATOM      4  C   UNL     1       6.377  -1.806   1.789  0.00  0.00    +0.136 C 
ATOM      5  C   UNL     1       7.347  -2.063   2.949  0.00  0.00    +0.139 C 
ATOM      6  C   UNL     1       8.539  -1.139   2.727  0.00  0.00    -0.034 C 
ATOM      7  C   UNL     1       9.612  -1.922   2.671  0.00  0.00    -0.001 A 
ATOM      8  C   UNL     1      11.044  -1.608   2.535  0.00  0.00    +0.010 A 
ATOM      9  C   UNL     1      11.889  -2.672   2.502  0.00  0.00    +0.001 A 
ATOM     10  C   UNL     1      11.459  -4.000   2.588  0.00  0.00    +0.002 A 
ATOM     11  C   UNL     1      10.163  -4.379   2.720  0.00  0.00    +0.026 A 
ATOM     12  C   UNL     1       9.179  -3.349   2.771  0.00  0.00    +0.043 A 
ATOM     13  N   UNL     1       7.877  -3.428   2.910  0.00  0.00    -0.375 N 
ATOM     14  C   UNL     1       8.408   0.354   2.548  0.00  0.00    +0.052 C 
ATOM     15  C   UNL     1       7.363   0.589   1.439  0.00  0.00    +0.115 C 
ATOM     16  N   UNL     1       6.248  -0.338   1.655  0.00  0.00    -0.269 N 
ATOM     17  C   UNL     1       4.948  -0.050   1.798  0.00  0.00    +0.313 C 
ATOM     18  O   UNL     1       4.480   1.062   1.650  0.00  0.00    -0.252 OA
ATOM     19  C   UNL     1       6.843  -2.463   0.488  0.00  0.00    +0.044 C 
ATOM     20  H   UNL     1       7.353  -4.241   2.974  0.00  0.00    +0.160 HD
ENDROOT
BRANCH   1  21
ATOM     21  C   UNL     1       2.783  -1.099   2.395  0.00  0.00    +0.171 C 
BRANCH  21  23
ATOM     22  N   UNL     1       0.711  -0.489   1.189  0.00  0.00    -0.311 N 
ATOM     23  C   UNL     1       2.054  -0.600   1.174  0.00  0.00    +0.234 C 
ATOM     24  O   UNL     1       2.676  -0.297   0.177  0.00  0.00    -0.274 OA
ATOM     25  H   UNL     1       0.213  -0.731   1.986  0.00  0.00    +0.149 HD
BRANCH  22  27
ATOM     26  C   UNL     1      -0.019   1.526   0.010  0.00  0.00    +0.028 C 
ATOM     27  C   UNL     1       0.002  -0.004   0.002  0.00  0.00    +0.070 C 
BRANCH  27  28
ATOM     28  C   UNL     1      -1.433  -0.534   0.013  0.00  0.00    +0.026 C 
BRANCH  28  29
ATOM     29  C   UNL     1      -1.416  -2.058  -0.121  0.00  0.00    +0.037 C 
BRANCH  29  30
ATOM     30  C   UNL     1      -2.829  -2.579  -0.111  0.00  0.00    -0.047 A 
ATOM     31  C   UNL     1      -3.432  -2.917   1.087  0.00  0.00    +0.003 A 
ATOM     32  C   UNL     1      -4.729  -3.396   1.096  0.00  0.00    +0.000 A 
ATOM     33  C   UNL     1      -5.423  -3.536  -0.091  0.00  0.00    +0.000 A 
ATOM     34  C   UNL     1      -4.821  -3.197  -1.288  0.00  0.00    +0.000 A 
ATOM     35  C   UNL     1      -3.525  -2.714  -1.297  0.00  0.00    +0.003 A 
ENDBRANCH  29  30
ENDBRANCH  28  29
ENDBRANCH  27  28
ENDBRANCH  22  27
ENDBRANCH  21  23
BRANCH  21  36
ATOM     36  C   UNL     1       2.502  -0.165   3.574  0.00  0.00    +0.035 C 
BRANCH  36  37
ATOM     37  C   UNL     1       3.139  -0.738   4.841  0.00  0.00    -0.015 C 
ATOM     38  C   UNL     1       2.966   0.254   5.992  0.00  0.00    +0.007 C 
ATOM     39  C   UNL     1       2.458  -2.061   5.201  0.00  0.00    +0.007 C 
ENDBRANCH  36  37
ENDBRANCH  21  36
ENDBRANCH   1  21
TORSDOF 8
