REMARK  Name = ZINC19772420
REMARK  8 active torsions:
REMARK  status: ('A' for Active; 'I' for Inactive)
REMARK    1  A    between atoms: C_1  and  C_2
REMARK    2  A    between atoms: C_3  and  C_26
REMARK    3  A    between atoms: C_4  and  C_16
REMARK    4  A    between atoms: C_10  and  C_14
REMARK    5  A    between atoms: C_10  and  C_15
REMARK    6  A    between atoms: C_18  and  N_23
REMARK    7  A    between atoms: C_26  and  O_28
REMARK    8  A    between atoms: O_28  and  C_29
REMARK                            x       y       z     vdW  Elec       q    Type
REMARK                         _______ _______ _______ _____ _____    ______ ____
ROOT
ATOM      1  C   UNL     1       2.433   0.980  -0.455  0.00  0.00    +0.061 C 
ATOM      2  C   UNL     1       1.167   1.659  -0.000  0.00  0.00    +0.016 C 
ATOM      3  C   UNL     1       1.204   2.943   0.396  0.00  0.00    +0.065 C 
ATOM      4  C   UNL     1      -0.035   3.649   0.864  0.00  0.00    +0.094 C 
ATOM      5  C   UNL     1      -1.276   2.914   0.425  0.00  0.00    +0.024 C 
ATOM      6  C   UNL     1      -1.210   1.628   0.017  0.00  0.00    +0.016 C 
ATOM      7  N   UNL     1      -0.011   0.966   0.007  0.00  0.00    -0.321 N 
ATOM      8  C   UNL     1      -2.446   0.888  -0.425  0.00  0.00    +0.058 C 
ATOM      9  C   UNL     1      -3.667   1.429   0.322  0.00  0.00    -0.023 C 
ATOM     10  C   UNL     1      -3.783   2.931   0.042  0.00  0.00    +0.086 C 
ATOM     11  C   UNL     1      -2.501   3.605   0.449  0.00  0.00    +0.162 C 
ATOM     12  O   UNL     1      -2.524   4.766   0.806  0.00  0.00    -0.292 OA
ATOM     13  C   UNL     1      -3.493   1.198   1.825  0.00  0.00    +0.011 C 
ATOM     14  C   UNL     1      -4.930   0.716  -0.165  0.00  0.00    +0.011 C 
ATOM     15  H   UNL     1      -0.002  -0.134   0.006  0.00  0.00    +0.152 HD
ENDROOT
BRANCH   4  16
ATOM     16  C   UNL     1      -0.016   3.735   2.369  0.00  0.00    -0.015 A 
ATOM     17  C   UNL     1       0.021   2.579   3.126  0.00  0.00    +0.038 A 
ATOM     18  C   UNL     1       0.038   2.657   4.506  0.00  0.00    +0.127 A 
ATOM     19  C   UNL     1       0.018   3.891   5.130  0.00  0.00    +0.034 A 
ATOM     20  C   UNL     1      -0.019   5.047   4.374  0.00  0.00    +0.022 A 
ATOM     21  C   UNL     1      -0.031   4.969   2.992  0.00  0.00    +0.045 A 
ATOM     22 CL   UNL     1      -0.071   6.421   2.042  0.00  0.00    -0.083 Cl
BRANCH  18  23
ATOM     23  N   UNL     1       0.078   1.419   5.317  0.00  0.00    +0.056 N 
ATOM     24  O   UNL     1       0.096   0.332   4.768  0.00  0.00    -0.126 OA
ATOM     25  O   UNL     1       0.093   1.487   6.532  0.00  0.00    -0.126 OA
ENDBRANCH  18  23
ENDBRANCH   4  16
BRANCH   3  26
ATOM     26  C   UNL     1       2.433   3.642   0.370  0.00  0.00    +0.337 C 
ATOM     27  O   UNL     1       3.444   3.081  -0.008  0.00  0.00    -0.245 OA
BRANCH  26  28
ATOM     28  O   UNL     1       2.485   4.932   0.765  0.00  0.00    -0.465 OA
ATOM     29  C   UNL     1       3.759   5.576   0.713  0.00  0.00    +0.280 C 
ENDBRANCH  26  28
ENDBRANCH   3  26
TORSDOF 4
