REMARK  Name = ZINC20574648
REMARK  10 active torsions:
REMARK  status: ('A' for Active; 'I' for Inactive)
REMARK    1  A    between atoms: C_1  and  C_2
REMARK    2  A    between atoms: C_2  and  C_3
REMARK    3  A    between atoms: N_9  and  C_10
REMARK    4  A    between atoms: C_10  and  C_11
REMARK    5  A    between atoms: C_11  and  C_12
REMARK    6  A    between atoms: C_12  and  N_13
REMARK    7  A    between atoms: C_14  and  C_16
REMARK    8  A    between atoms: C_16  and  C_17
REMARK    9  A    between atoms: C_17  and  N_18
REMARK   10  A    between atoms: C_25  and  C_28
REMARK                            x       y       z     vdW  Elec       q    Type
REMARK                         _______ _______ _______ _____ _____    ______ ____
ROOT
ATOM      1  C   UNL     1       2.477   0.887   0.126  0.00  0.00    +0.135 C 
ENDROOT
BRANCH   1   2
ATOM      2  N   UNL     1       1.209   1.621   0.168  0.00  0.00    -0.298 N 
ATOM      3  C   UNL     1       0.036   0.944   0.187  0.00  0.00    +0.206 A 
ATOM      4  N   UNL     1      -1.123   1.544   0.219  0.00  0.00    -0.200 NA
ATOM      5  C   UNL     1      -1.211   2.878   0.245  0.00  0.00    +0.265 A 
ATOM      6  C   UNL     1      -0.030   3.636   0.226  0.00  0.00    +0.133 A 
ATOM      7  C   UNL     1       1.213   2.976   0.186  0.00  0.00    +0.267 A 
ATOM      8  O   UNL     1       2.258   3.602   0.169  0.00  0.00    -0.267 OA
ATOM      9  C   UNL     1      -0.515   5.018   0.257  0.00  0.00    +0.128 A 
ATOM     10  N   UNL     1      -1.823   4.917   0.288  0.00  0.00    -0.075 NA
ATOM     11  O   UNL     1      -2.209   3.771   0.282  0.00  0.00    -0.334 OA
BRANCH   9  12
ATOM     12  C   UNL     1       0.295   6.260   0.254  0.00  0.00    +0.005 A 
ATOM     13  C   UNL     1       1.518   6.298   0.921  0.00  0.00    +0.013 A 
ATOM     14  C   UNL     1       2.271   7.454   0.912  0.00  0.00    +0.039 A 
ATOM     15  C   UNL     1       1.807   8.579   0.249  0.00  0.00    +0.123 A 
ATOM     16  C   UNL     1       0.589   8.548  -0.411  0.00  0.00    +0.039 A 
ATOM     17  C   UNL     1      -0.168   7.394  -0.411  0.00  0.00    +0.013 A 
ATOM     18  F   UNL     1       2.545   9.711   0.247  0.00  0.00    -0.205 F 
ENDBRANCH   9  12
ENDBRANCH   1   2
BRANCH   1  19
ATOM     19  C   UNL     1       2.882   0.652  -1.330  0.00  0.00    +0.117 C 
BRANCH  19  21
ATOM     20  N   UNL     1       4.740  -0.424  -2.559  0.00  0.00    -0.315 N 
ATOM     21  C   UNL     1       4.186  -0.103  -1.373  0.00  0.00    +0.215 C 
ATOM     22  O   UNL     1       4.736  -0.421  -0.340  0.00  0.00    -0.276 OA
ATOM     23  H   UNL     1       4.241  -0.135  -3.495  0.00  0.00    +0.149 HD
BRANCH  20  24
ATOM     24  C   UNL     1       6.007  -1.158  -2.600  0.00  0.00    +0.102 C 
BRANCH  24  25
ATOM     25  C   UNL     1       6.413  -1.393  -4.056  0.00  0.00    +0.000 C 
BRANCH  25  26
ATOM     26  C   UNL     1       7.737  -2.159  -4.100  0.00  0.00    -0.077 C 
BRANCH  26  32
ATOM     27  C   UNL     1       9.533  -2.793  -5.593  0.00  0.00    -0.069 C 
ATOM     28  C   UNL     1       9.943  -2.878  -7.065  0.00  0.00    -0.015 C 
ATOM     29  C   UNL     1       9.048  -3.893  -7.782  0.00  0.00    -0.003 C 
ATOM     30  C   UNL     1       7.585  -3.471  -7.626  0.00  0.00    -0.019 C 
ATOM     31  C   UNL     1       7.243  -3.369  -6.138  0.00  0.00    -0.078 C 
ATOM     32  N   UNL     1       8.126  -2.385  -5.498  0.00  0.00    +0.382 N 
ATOM     33  H   UNL     1       8.016  -1.434  -6.039  0.00  0.00    -0.081 HD
BRANCH  27  35
ATOM     34  C   UNL     1      10.158  -0.377  -5.471  0.00  0.00    +0.002 C 
ATOM     35  C   UNL     1      10.412  -1.765  -4.878  0.00  0.00    -0.019 C 
ENDBRANCH  27  35
ENDBRANCH  26  32
ENDBRANCH  25  26
ENDBRANCH  24  25
ENDBRANCH  20  24
ENDBRANCH  19  21
ENDBRANCH   1  19
TORSDOF 9
