REMARK  Name = ZINC22523983
REMARK  10 active torsions:
REMARK  status: ('A' for Active; 'I' for Inactive)
REMARK    1  A    between atoms: C_3  and  C_6
REMARK    2  A    between atoms: C_9  and  S_16
REMARK    3  A    between atoms: N_10  and  C_11
REMARK    4  A    between atoms: C_11  and  C_12
REMARK    5  A    between atoms: C_12  and  C_13
REMARK    6  A    between atoms: S_16  and  C_17
REMARK    7  A    between atoms: C_17  and  C_18
REMARK    8  A    between atoms: N_20  and  C_21
REMARK    9  A    between atoms: N_20  and  C_29
REMARK   10  A    between atoms: C_21  and  C_22
REMARK                            x       y       z     vdW  Elec       q    Type
REMARK                         _______ _______ _______ _____ _____    ______ ____
ROOT
ATOM      1  S   UNL     1      -5.051  -1.686  -0.356  0.00  0.00    -0.077 S 
ENDROOT
BRANCH   1   5
ATOM      2  C   UNL     1      -1.300  -0.804  -1.015  0.00  0.00    +0.200 A 
ATOM      3  N   UNL     1      -1.290  -2.119  -0.995  0.00  0.00    -0.125 NA
ATOM      4  N   UNL     1      -2.476  -2.563  -0.778  0.00  0.00    -0.122 NA
ATOM      5  C   UNL     1      -3.318  -1.562  -0.654  0.00  0.00    +0.192 A 
ATOM      6  N   UNL     1      -2.602  -0.408  -0.800  0.00  0.00    -0.299 N 
BRANCH   2   9
ATOM      7  C   UNL     1       1.929   0.861  -1.434  0.00  0.00    +0.042 A 
ATOM      8  C   UNL     1       1.169  -0.291  -1.158  0.00  0.00    +0.053 A 
ATOM      9  C   UNL     1      -0.141   0.077  -1.231  0.00  0.00    +0.172 A 
ATOM     10  O   UNL     1      -0.191   1.388  -1.537  0.00  0.00    -0.460 OA
ATOM     11  C   UNL     1       1.059   1.865  -1.660  0.00  0.00    +0.196 A 
ENDBRANCH   2   9
BRANCH   6  12
ATOM     12  C   UNL     1      -3.111   0.964  -0.741  0.00  0.00    +0.135 C 
BRANCH  12  13
ATOM     13  C   UNL     1      -3.532   1.413  -2.143  0.00  0.00    +0.117 C 
BRANCH  13  14
ATOM     14  C   UNL     1      -4.056   2.824  -2.082  0.00  0.00    +0.212 C 
ATOM     15  O   UNL     1      -4.090   3.414  -1.022  0.00  0.00    -0.276 OA
ATOM     16  N   UNL     1      -4.488   3.432  -3.205  0.00  0.00    -0.329 N 
ATOM     17  H   UNL     1      -4.870   4.462  -3.161  0.00  0.00    +0.145 HD
ATOM     18  H   UNL     1      -4.457   2.897  -4.166  0.00  0.00    +0.145 HD
ENDBRANCH  13  14
ENDBRANCH  12  13
ENDBRANCH   6  12
ENDBRANCH   1   5
BRANCH   1  19
ATOM     19  C   UNL     1      -5.230  -3.486  -0.288  0.00  0.00    +0.173 C 
BRANCH  19  20
ATOM     20  C   UNL     1      -6.674  -3.837  -0.035  0.00  0.00    +0.226 C 
ATOM     21  O   UNL     1      -7.483  -2.960   0.179  0.00  0.00    -0.275 OA
ATOM     22  N   UNL     1      -7.065  -5.127  -0.045  0.00  0.00    -0.293 N 
BRANCH  22  23
ATOM     23  C   UNL     1      -6.071  -6.193  -0.193  0.00  0.00    +0.076 C 
ATOM     24  C   UNL     1      -6.397  -7.027  -1.433  0.00  0.00    +0.022 C 
ATOM     25  C   UNL     1      -5.359  -8.140  -1.587  0.00  0.00    +0.002 C 
ATOM     26  C   UNL     1      -5.386  -9.037  -0.348  0.00  0.00    +0.000 C 
ATOM     27  C   UNL     1      -5.059  -8.203   0.892  0.00  0.00    +0.002 C 
ATOM     28  C   UNL     1      -6.097  -7.090   1.046  0.00  0.00    +0.022 C 
ENDBRANCH  22  23
BRANCH  22  29
ATOM     29  C   UNL     1      -8.484  -5.463   0.090  0.00  0.00    +0.143 C 
BRANCH  29  30
ATOM     30  C   UNL     1      -9.155  -5.363  -1.255  0.00  0.00    -0.030 A 
ATOM     31  C   UNL     1      -9.585  -4.135  -1.723  0.00  0.00    +0.008 A 
ATOM     32  C   UNL     1     -10.197  -4.042  -2.959  0.00  0.00    +0.038 A 
ATOM     33  C   UNL     1     -10.388  -5.180  -3.724  0.00  0.00    +0.123 A 
ATOM     34  C   UNL     1      -9.961  -6.410  -3.252  0.00  0.00    +0.038 A 
ATOM     35  C   UNL     1      -9.346  -6.500  -2.018  0.00  0.00    +0.008 A 
ATOM     36  F   UNL     1     -10.989  -5.090  -4.931  0.00  0.00    -0.205 F 
ENDBRANCH  29  30
ENDBRANCH  22  29
ENDBRANCH  19  20
ENDBRANCH   1  19
TORSDOF 10
