REMARK  Name = ZINC41584632
REMARK  5 active torsions:
REMARK  status: ('A' for Active; 'I' for Inactive)
REMARK    1  A    between atoms: C_3  and  C_8
REMARK    2  A    between atoms: C_15  and  O_33
REMARK    3  A    between atoms: C_16  and  C_19
REMARK    4  A    between atoms: C_19  and  N_20
REMARK    5  A    between atoms: C_25  and  C_27
REMARK                            x       y       z     vdW  Elec       q    Type
REMARK                         _______ _______ _______ _____ _____    ______ ____
ROOT
ATOM      1  C   UNL     1      11.349  -4.662  -0.761  0.00  0.00    +0.058 C 
ATOM      2  C   UNL     1      10.475  -3.631  -0.871  0.00  0.00    +0.176 C 
ATOM      3  C   UNL     1      10.816  -2.229  -1.165  0.00  0.00    +0.231 C 
ATOM      4  O   UNL     1      11.922  -1.755  -1.359  0.00  0.00    -0.283 OA
ATOM      5  C   UNL     1       9.519  -1.528  -1.174  0.00  0.00    +0.068 A 
ATOM      6  C   UNL     1       9.155  -0.198  -1.388  0.00  0.00    +0.019 A 
ATOM      7  C   UNL     1       7.839   0.165  -1.331  0.00  0.00    +0.046 A 
ATOM      8  C   UNL     1       6.862  -0.789  -1.060  0.00  0.00    +0.122 A 
ATOM      9  C   UNL     1       7.209  -2.113  -0.846  0.00  0.00    +0.020 A 
ATOM     10  C   UNL     1       8.543  -2.499  -0.900  0.00  0.00    +0.144 A 
ATOM     11  O   UNL     1       9.130  -3.704  -0.735  0.00  0.00    -0.451 OA
ENDROOT
BRANCH   1  14
ATOM     12  C   UNL     1       9.019  -7.557  -0.262  0.00  0.00    +0.002 A 
ATOM     13  C   UNL     1       9.480  -6.268  -0.422  0.00  0.00    +0.008 A 
ATOM     14  C   UNL     1      10.849  -6.034  -0.590  0.00  0.00    -0.020 A 
ATOM     15  C   UNL     1      11.741  -7.113  -0.594  0.00  0.00    +0.028 A 
ATOM     16  C   UNL     1      11.263  -8.397  -0.432  0.00  0.00    +0.042 A 
ATOM     17  C   UNL     1       9.906  -8.619  -0.267  0.00  0.00    +0.020 A 
ATOM     18 CL   UNL     1      12.366  -9.738  -0.437  0.00  0.00    -0.084 Cl
ENDBRANCH   1  14
BRANCH   8  19
ATOM     19  O   UNL     1       5.557  -0.419  -1.006  0.00  0.00    -0.506 OA
ATOM     20  H   UNL     1       5.097  -0.472  -1.855  0.00  0.00    +0.292 HD
ENDBRANCH   8  19
BRANCH   9  21
ATOM     21  C   UNL     1       6.140  -3.135  -0.553  0.00  0.00    -0.035 C 
BRANCH  21  22
ATOM     22  N   UNL     1       5.797  -3.089   0.874  0.00  0.00    +0.387 N 
ATOM     23  C   UNL     1       6.962  -3.496   1.669  0.00  0.00    -0.078 C 
ATOM     24  C   UNL     1       6.636  -3.373   3.159  0.00  0.00    -0.019 C 
ATOM     25  C   UNL     1       5.446  -4.278   3.492  0.00  0.00    -0.003 C 
ATOM     26  C   UNL     1       4.260  -3.893   2.605  0.00  0.00    -0.011 C 
ATOM     27  C   UNL     1       4.674  -3.997   1.135  0.00  0.00    -0.036 C 
ATOM     28  H   UNL     1       5.533  -2.148   1.126  0.00  0.00    -0.080 HD
BRANCH  27  29
ATOM     29  C   UNL     1       3.509  -3.619   0.258  0.00  0.00    -0.043 A 
ATOM     30  C   UNL     1       2.822  -4.591  -0.455  0.00  0.00    +0.005 A 
ATOM     31  C   UNL     1       1.757  -4.197  -1.250  0.00  0.00    +0.020 A 
ATOM     32  C   UNL     1       1.416  -2.858  -1.305  0.00  0.00    +0.111 A 
ATOM     33  N   UNL     1       2.092  -1.961  -0.614  0.00  0.00    -0.263 NA
ATOM     34  C   UNL     1       3.107  -2.301   0.157  0.00  0.00    +0.112 A 
ENDBRANCH  27  29
ENDBRANCH  21  22
ENDBRANCH   9  21
TORSDOF 5
