REMARK  Name = ZINC00913769
REMARK  8 active torsions:
REMARK  status: ('A' for Active; 'I' for Inactive)
REMARK    1  A    between atoms: C_1  and  C_2
REMARK    2  A    between atoms: C_7  and  C_14
REMARK    3  A    between atoms: C_14  and  N_15
REMARK    4  A    between atoms: N_15  and  C_16
REMARK    5  A    between atoms: N_15  and  S_26
REMARK    6  A    between atoms: C_16  and  C_17
REMARK    7  A    between atoms: S_26  and  C_29
REMARK    8  A    between atoms: C_34  and  C_35
REMARK                            x       y       z     vdW  Elec       q    Type
REMARK                         _______ _______ _______ _____ _____    ______ ____
ROOT
ATOM      1  N   UNL     1       6.085  -1.097   0.836  0.00  0.00    -0.168 NA
ENDROOT
BRANCH   1   2
ATOM      2  S   UNL     1       6.978   0.165   0.243  0.00  0.00    +0.062 S 
ATOM      3  O   UNL     1       7.298  -0.161  -1.103  0.00  0.00    -0.153 OA
ATOM      4  O   UNL     1       6.284   1.354   0.595  0.00  0.00    -0.153 OA
BRANCH   2   5
ATOM      5  C   UNL     1       8.500   0.189   1.130  0.00  0.00    +0.117 A 
ATOM      6  C   UNL     1       8.871  -0.901   1.896  0.00  0.00    +0.029 A 
ATOM      7  C   UNL     1      10.067  -0.885   2.588  0.00  0.00    +0.002 A 
ATOM      8  C   UNL     1      10.888   0.226   2.523  0.00  0.00    +0.001 A 
ATOM      9  C   UNL     1      10.515   1.317   1.762  0.00  0.00    +0.014 A 
ATOM     10  C   UNL     1       9.321   1.299   1.065  0.00  0.00    +0.081 A 
BRANCH  10  11
ATOM     11  C   UNL     1       8.914   2.489   0.236  0.00  0.00    +0.419 C 
ATOM     12  F   UNL     1       9.958   3.420   0.212  0.00  0.00    -0.166 F 
ATOM     13  F   UNL     1       8.630   2.073  -1.069  0.00  0.00    -0.166 F 
ATOM     14  F   UNL     1       7.776   3.080   0.795  0.00  0.00    -0.166 F 
ENDBRANCH  10  11
ENDBRANCH   2   5
ENDBRANCH   1   2
BRANCH   1  15
ATOM     15  C   UNL     1       6.297  -2.451   0.318  0.00  0.00    +0.150 C 
BRANCH  15  22
ATOM     16  C   UNL     1       1.502  -3.748  -5.923  0.00  0.00    +0.044 C 
ATOM     17  C   UNL     1       2.565  -3.432  -4.902  0.00  0.00    -0.048 A 
ATOM     18  C   UNL     1       3.794  -2.939  -5.319  0.00  0.00    +0.004 A 
ATOM     19  C   UNL     1       4.770  -2.645  -4.410  0.00  0.00    +0.010 A 
ATOM     20  C   UNL     1       4.530  -2.844  -3.046  0.00  0.00    -0.001 A 
ATOM     21  C   UNL     1       5.554  -2.540  -2.045  0.00  0.00    +0.020 A 
ATOM     22  C   UNL     1       5.265  -2.753  -0.738  0.00  0.00    +0.033 A 
ATOM     23  C   UNL     1       4.003  -3.261  -0.362  0.00  0.00    +0.254 A 
ATOM     24  O   UNL     1       3.766  -3.450   0.818  0.00  0.00    -0.268 OA
ATOM     25  N   UNL     1       3.054  -3.538  -1.274  0.00  0.00    -0.322 N 
ATOM     26  H   UNL     1       2.168  -3.889  -0.972  0.00  0.00    +0.169 HD
ATOM     27  C   UNL     1       3.285  -3.343  -2.619  0.00  0.00    +0.049 A 
ATOM     28  C   UNL     1       2.306  -3.635  -3.563  0.00  0.00    +0.029 A 
ENDBRANCH  15  22
ENDBRANCH   1  15
BRANCH   1  29
ATOM     29  C   UNL     1       5.083  -0.860   1.877  0.00  0.00    +0.145 C 
BRANCH  29  30
ATOM     30  C   UNL     1       5.688  -1.138   3.229  0.00  0.00    -0.028 A 
ATOM     31  C   UNL     1       6.395  -0.147   3.885  0.00  0.00    +0.009 A 
ATOM     32  C   UNL     1       6.953  -0.397   5.125  0.00  0.00    +0.050 A 
ATOM     33  C   UNL     1       6.804  -1.642   5.714  0.00  0.00    +0.166 A 
ATOM     34  C   UNL     1       6.091  -2.640   5.053  0.00  0.00    +0.167 A 
ATOM     35  C   UNL     1       5.535  -2.382   3.811  0.00  0.00    +0.054 A 
ATOM     36  O   UNL     1       6.088  -3.762   5.832  0.00  0.00    -0.453 OA
ATOM     37  C   UNL     1       6.453  -3.315   7.151  0.00  0.00    +0.466 C 
ATOM     38  O   UNL     1       7.246  -2.139   6.906  0.00  0.00    -0.453 OA
ENDBRANCH  29  30
ENDBRANCH   1  29
TORSDOF 7
