REMARK  Name = ZINC65399251
REMARK  4 active torsions:
REMARK  status: ('A' for Active; 'I' for Inactive)
REMARK    1  A    between atoms: C_1  and  C_2
REMARK    2  A    between atoms: C_4  and  C_14
REMARK    3  A    between atoms: N_5  and  C_7
REMARK    4  A    between atoms: C_14  and  C_15
REMARK                            x       y       z     vdW  Elec       q    Type
REMARK                         _______ _______ _______ _____ _____    ______ ____
ROOT
ATOM      1  C   UNL     1      -0.375   1.474  -0.029  0.00  0.00    +0.090 C 
ATOM      2  C   UNL     1      -0.154  -0.017  -0.015  0.00  0.00    +0.149 A 
ATOM      3  N   UNL     1       0.064  -0.776  -1.088  0.00  0.00    -0.215 NA
ATOM      4  C   UNL     1       0.216  -2.024  -0.725  0.00  0.00    +0.140 A 
ATOM      5  N   UNL     1       0.095  -2.086   0.616  0.00  0.00    -0.215 N 
ATOM      6  N   UNL     1      -0.140  -0.772   1.052  0.00  0.00    -0.150 NA
ENDROOT
BRANCH   5   7
ATOM      7  C   UNL     1       0.189  -3.234   1.416  0.00  0.00    +0.086 A 
ATOM      8  C   UNL     1      -0.543  -4.369   1.094  0.00  0.00    +0.029 A 
ATOM      9  C   UNL     1      -0.448  -5.498   1.884  0.00  0.00    +0.002 A 
ATOM     10  C   UNL     1       0.374  -5.498   2.996  0.00  0.00    +0.002 A 
ATOM     11  C   UNL     1       1.103  -4.370   3.321  0.00  0.00    +0.022 A 
ATOM     12  C   UNL     1       1.018  -3.239   2.531  0.00  0.00    +0.066 A 
ATOM     13 CL   UNL     1       1.940  -1.825   2.935  0.00  0.00    -0.081 Cl
ENDBRANCH   5   7
BRANCH   4  14
ATOM     14  C   UNL     1       0.480  -3.188  -1.645  0.00  0.00    +0.141 C 
BRANCH  14  15
ATOM     15  C   UNL     1       1.965  -3.341  -1.848  0.00  0.00    +0.111 A 
ATOM     16  N   UNL     1       2.844  -4.050  -1.170  0.00  0.00    -0.144 NA
ATOM     17  N   UNL     1       4.068  -4.071  -1.473  0.00  0.00    -0.126 NA
ATOM     18  C   UNL     1       4.547  -3.378  -2.498  0.00  0.00    +0.179 A 
ATOM     19  S   UNL     1       3.037  -2.616  -3.086  0.00  0.00    -0.035 S 
ATOM     20  N   UNL     1       5.844  -3.276  -2.979  0.00  0.00    -0.336 N 
ATOM     21  H   UNL     1       6.562  -3.763  -2.545  0.00  0.00    +0.144 HD
ATOM     22  H   UNL     1       6.033  -2.719  -3.750  0.00  0.00    +0.144 HD
ENDBRANCH  14  15
ENDBRANCH   4  14
TORSDOF 3
