REMARK  Name = ZINC45619328
REMARK  6 active torsions:
REMARK  status: ('A' for Active; 'I' for Inactive)
REMARK    1  A    between atoms: C_3  and  C_6
REMARK    2  A    between atoms: C_6  and  C_7
REMARK    3  A    between atoms: C_7  and  N_8
REMARK    4  A    between atoms: C_12  and  S_14
REMARK    5  A    between atoms: S_14  and  C_15
REMARK    6  A    between atoms: C_15  and  C_16
REMARK                            x       y       z     vdW  Elec       q    Type
REMARK                         _______ _______ _______ _____ _____    ______ ____
ROOT
ATOM      1  S   UNL     1       9.188   3.751   5.811  0.00  0.00    -0.089 S 
ENDROOT
BRANCH   1   6
ATOM      2  N   UNL     1       5.633   2.506   1.403  0.00  0.00    -0.322 N 
ATOM      3  C   UNL     1       6.299   2.735   2.602  0.00  0.00    +0.182 A 
ATOM      4  N   UNL     1       5.875   2.566   3.839  0.00  0.00    -0.125 NA
ATOM      5  N   UNL     1       6.708   2.857   4.894  0.00  0.00    -0.133 NA
ATOM      6  C   UNL     1       7.927   3.304   4.664  0.00  0.00    +0.160 A 
ATOM      7  S   UNL     1       7.961   3.330   2.878  0.00  0.00    -0.025 S 
ATOM      8  H   UNL     1       6.082   2.674   0.560  0.00  0.00    +0.148 HD
BRANCH   2   9
ATOM      9  C   UNL     1       4.255   2.011   1.414  0.00  0.00    +0.108 C 
BRANCH   9  10
ATOM     10  C   UNL     1       3.761   1.845  -0.024  0.00  0.00    +0.061 C 
BRANCH  10  13
ATOM     11  C   UNL     1      -0.016   1.351   0.009  0.00  0.00    +0.008 A 
ATOM     12  C   UNL     1       1.183   2.038   0.002  0.00  0.00    +0.011 A 
ATOM     13  C   UNL     1       2.343   1.336  -0.013  0.00  0.00    -0.009 A 
ATOM     14  S   UNL     1       1.754  -0.349  -0.017  0.00  0.00    -0.102 S 
ATOM     15  C   UNL     1       0.002  -0.004   0.002  0.00  0.00    +0.045 A 
ENDBRANCH  10  13
ENDBRANCH   9  10
ENDBRANCH   2   9
ENDBRANCH   1   6
BRANCH   1  16
ATOM     16  C   UNL     1       8.431   3.456   7.432  0.00  0.00    +0.150 C 
BRANCH  16  17
ATOM     17  C   UNL     1       9.417   3.803   8.518  0.00  0.00    +0.121 A 
ATOM     18  N   UNL     1       9.057   3.651   9.818  0.00  0.00    -0.310 N 
ATOM     19  H   UNL     1       8.170   3.320  10.030  0.00  0.00    +0.170 HD
ATOM     20  C   UNL     1       9.907   3.950  10.819  0.00  0.00    +0.260 A 
ATOM     21  O   UNL     1       9.570   3.808  11.982  0.00  0.00    -0.267 OA
ATOM     22  C   UNL     1      11.214   4.437  10.492  0.00  0.00    +0.075 A 
ATOM     23  C   UNL     1      12.295   4.821  11.412  0.00  0.00    -0.023 A 
ATOM     24  C   UNL     1      13.440   5.253  10.856  0.00  0.00    -0.004 A 
ATOM     25  S   UNL     1      13.158   5.174   9.102  0.00  0.00    -0.073 S 
ATOM     26  C   UNL     1      11.495   4.560   9.125  0.00  0.00    +0.116 A 
ATOM     27  N   UNL     1      10.604   4.240   8.190  0.00  0.00    -0.226 NA
ATOM     28  C   UNL     1      14.469   5.623  11.890  0.00  0.00    +0.043 C 
ATOM     29  C   UNL     1      13.665   5.772  13.201  0.00  0.00    +0.010 C 
ATOM     30  C   UNL     1      12.457   4.854  12.934  0.00  0.00    +0.037 C 
ENDBRANCH  16  17
ENDBRANCH   1  16
TORSDOF 6
