REMARK  Name = ZINC38582796
REMARK  3 active torsions:
REMARK  status: ('A' for Active; 'I' for Inactive)
REMARK    1  A    between atoms: C_6  and  S_10
REMARK    2  A    between atoms: S_10  and  C_11
REMARK    3  A    between atoms: C_11  and  C_12
REMARK                            x       y       z     vdW  Elec       q    Type
REMARK                         _______ _______ _______ _____ _____    ______ ____
ROOT
ATOM      1  C   UNL     1      -5.516  -3.129   0.015  0.00  0.00    +0.107 C 
ENDROOT
BRANCH   1   2
ATOM      2  C   UNL     1      -6.427  -4.358   0.013  0.00  0.00    +0.153 C 
ATOM      3  C   UNL     1      -7.905  -3.933  -0.055  0.00  0.00    +0.196 C 
ATOM      4  N   UNL     1      -8.475  -4.463   1.196  0.00  0.00    -0.272 N 
ATOM      5  C   UNL     1      -9.749  -4.394   1.684  0.00  0.00    +0.098 C 
ATOM      6  C   UNL     1     -10.068  -4.954   2.869  0.00  0.00    +0.055 C 
ATOM      7  C   UNL     1      -9.083  -5.619   3.620  0.00  0.00    +0.024 C 
ATOM      8  C   UNL     1      -7.814  -5.697   3.150  0.00  0.00    +0.045 C 
ATOM      9  C   UNL     1      -7.488  -5.103   1.897  0.00  0.00    +0.122 C 
ATOM     10  N   UNL     1      -6.318  -5.080   1.286  0.00  0.00    -0.262 NA
ATOM     11 CL   UNL     1     -11.694  -4.852   3.467  0.00  0.00    -0.082 Cl
ATOM     12 CL   UNL     1      -8.047  -2.137  -0.111  0.00  0.00    -0.098 Cl
ENDBRANCH   1   2
BRANCH   1  13
ATOM     13  S   UNL     1      -3.782  -3.663   0.003  0.00  0.00    -0.086 S 
BRANCH  13  19
ATOM     14  C   UNL     1      -0.017   1.375   0.010  0.00  0.00    +0.002 A 
ATOM     15  C   UNL     1      -1.222   2.062   0.019  0.00  0.00    +0.002 A 
ATOM     16  C   UNL     1      -2.416   1.377   0.021  0.00  0.00    +0.030 A 
ATOM     17  C   UNL     1      -2.414  -0.021   0.014  0.00  0.00    +0.090 A 
ATOM     18  N   UNL     1      -3.401  -0.955   0.014  0.00  0.00    -0.222 NA
ATOM     19  C   UNL     1      -2.872  -2.154   0.005  0.00  0.00    +0.167 A 
ATOM     20  N   UNL     1      -1.509  -2.059  -0.001  0.00  0.00    -0.333 N 
ATOM     21  C   UNL     1      -1.191  -0.711   0.004  0.00  0.00    +0.067 A 
ATOM     22  C   UNL     1       0.002  -0.004   0.002  0.00  0.00    +0.028 A 
ATOM     23  H   UNL     1      -0.880  -2.798  -0.009  0.00  0.00    +0.168 HD
ENDBRANCH  13  19
ENDBRANCH   1  13
TORSDOF 3
