REMARK  Name = ZINC39413095
REMARK  7 active torsions:
REMARK  status: ('A' for Active; 'I' for Inactive)
REMARK    1  A    between atoms: C_1  and  C_2
REMARK    2  A    between atoms: C_2  and  C_17
REMARK    3  A    between atoms: N_5  and  C_9
REMARK    4  A    between atoms: C_9  and  C_10
REMARK    5  A    between atoms: N_20  and  C_23
REMARK    6  A    between atoms: C_23  and  C_24
REMARK    7  A    between atoms: C_29  and  C_30
REMARK                            x       y       z     vdW  Elec       q    Type
REMARK                         _______ _______ _______ _____ _____    ______ ____
ROOT
ATOM      1  C   UNL     1      -1.436  -0.905  -0.302  0.00  0.00    +0.018 C 
ATOM      2  C   UNL     1      -2.140  -0.442  -1.581  0.00  0.00    -0.013 C 
ATOM      3  C   UNL     1      -3.623  -0.814  -1.503  0.00  0.00    -0.078 C 
ATOM      4  N   UNL     1      -4.235  -0.160  -0.341  0.00  0.00    +0.380 N 
ATOM      5  C   UNL     1      -3.613  -0.654   0.893  0.00  0.00    -0.078 C 
ATOM      6  C   UNL     1      -2.131  -0.275   0.909  0.00  0.00    -0.013 C 
ATOM      7  H   UNL     1      -4.101   0.838  -0.408  0.00  0.00    -0.082 HD
ENDROOT
BRANCH   1   9
ATOM      8  C   UNL     1       0.133   1.060  -0.302  0.00  0.00    +0.042 C 
ATOM      9  C   UNL     1       0.029  -0.466  -0.337  0.00  0.00    +0.112 C 
ATOM     10  C   UNL     1       0.726  -1.020  -1.564  0.00  0.00    +0.247 C 
ATOM     11  O   UNL     1       0.452  -0.800  -2.724  0.00  0.00    -0.273 OA
ATOM     12  N   UNL     1       1.714  -1.808  -1.097  0.00  0.00    -0.220 N 
ATOM     13  C   UNL     1       1.738  -1.829   0.241  0.00  0.00    +0.310 C 
ATOM     14  O   UNL     1       2.540  -2.469   0.892  0.00  0.00    -0.252 OA
ATOM     15  N   UNL     1       0.776  -1.062   0.784  0.00  0.00    -0.285 N 
ATOM     16  H   UNL     1       0.606  -0.928   1.730  0.00  0.00    +0.151 HD
BRANCH  12  17
ATOM     17  C   UNL     1       2.647  -2.551  -1.948  0.00  0.00    +0.153 C 
BRANCH  17  18
ATOM     18  C   UNL     1       3.852  -1.695  -2.240  0.00  0.00    -0.029 A 
ATOM     19  C   UNL     1       3.858  -0.864  -3.345  0.00  0.00    +0.008 A 
ATOM     20  C   UNL     1       4.962  -0.078  -3.613  0.00  0.00    +0.038 A 
ATOM     21  C   UNL     1       6.063  -0.123  -2.775  0.00  0.00    +0.123 A 
ATOM     22  C   UNL     1       6.056  -0.955  -1.668  0.00  0.00    +0.038 A 
ATOM     23  C   UNL     1       4.949  -1.736  -1.399  0.00  0.00    +0.008 A 
ATOM     24  F   UNL     1       7.144   0.645  -3.036  0.00  0.00    -0.205 F 
ENDBRANCH  17  18
ENDBRANCH  12  17
ENDBRANCH   1   9
BRANCH   4  25
ATOM     25  C   UNL     1      -5.674  -0.458  -0.316  0.00  0.00    -0.063 C 
BRANCH  25  26
ATOM     26  C   UNL     1      -6.351   0.197  -1.521  0.00  0.00    +0.066 C 
ATOM     27  C   UNL     1      -6.365   1.705  -1.372  0.00  0.00    +0.115 C 
ATOM     28  N   UNL     1      -7.611   2.052  -1.348  0.00  0.00    -0.161 NA
ATOM     29  N   UNL     1      -8.469   0.964  -1.462  0.00  0.00    -0.153 NA
ATOM     30  C   UNL     1      -7.822  -0.168  -1.571  0.00  0.00    +0.077 C 
BRANCH  30  31
ATOM     31  C   UNL     1      -8.398  -1.515  -1.711  0.00  0.00    -0.001 A 
ATOM     32  C   UNL     1      -7.561  -2.630  -1.811  0.00  0.00    +0.010 A 
ATOM     33  C   UNL     1      -8.109  -3.889  -1.942  0.00  0.00    +0.001 A 
ATOM     34  C   UNL     1      -9.483  -4.050  -1.977  0.00  0.00    +0.000 A 
ATOM     35  C   UNL     1     -10.318  -2.950  -1.880  0.00  0.00    +0.001 A 
ATOM     36  C   UNL     1      -9.786  -1.686  -1.741  0.00  0.00    +0.010 A 
ENDBRANCH  30  31
ENDBRANCH  25  26
ENDBRANCH   4  25
TORSDOF 6
