REMARK  Name = ZINC14151958
REMARK  10 active torsions:
REMARK  status: ('A' for Active; 'I' for Inactive)
REMARK    1  A    between atoms: C_1  and  C_2
REMARK    2  A    between atoms: C_2  and  C_3
REMARK    3  A    between atoms: C_8  and  N_9
REMARK    4  A    between atoms: C_10  and  C_12
REMARK    5  A    between atoms: C_12  and  O_13
REMARK    6  A    between atoms: O_13  and  C_14
REMARK    7  A    between atoms: C_14  and  C_16
REMARK    8  A    between atoms: C_17  and  N_27
REMARK    9  A    between atoms: C_19  and  C_26
REMARK   10  A    between atoms: C_21  and  C_25
REMARK                            x       y       z     vdW  Elec       q    Type
REMARK                         _______ _______ _______ _____ _____    ______ ____
ROOT
ATOM      1  C   UNL     1      -0.932   4.295   0.424  0.00  0.00    +0.348 C 
ATOM      2  O   UNL     1      -2.147   4.323   0.496  0.00  0.00    -0.244 OA
ENDROOT
BRANCH   1   3
ATOM      3  C   UNL     1      -0.269   3.079   0.137  0.00  0.00    +0.119 A 
ATOM      4  C   UNL     1      -0.822   1.838  -0.096  0.00  0.00    +0.056 A 
ATOM      5  C   UNL     1       0.073   0.725  -0.370  0.00  0.00    +0.032 A 
ATOM      6  C   UNL     1      -0.253  -0.629  -0.632  0.00  0.00    -0.037 A 
ATOM      7  C   UNL     1       0.761  -1.525  -0.874  0.00  0.00    +0.027 A 
ATOM      8  C   UNL     1       2.084  -1.107  -0.861  0.00  0.00    +0.040 A 
ATOM      9  N   UNL     1       2.384   0.153  -0.616  0.00  0.00    -0.245 NA
ATOM     10  C   UNL     1       1.449   1.048  -0.379  0.00  0.00    +0.111 A 
ATOM     11  S   UNL     1       1.482   2.787  -0.021  0.00  0.00    -0.060 S 
ATOM     12  C   UNL     1       3.186  -2.101  -1.127  0.00  0.00    +0.065 C 
ATOM     13  C   UNL     1      -1.691  -1.080  -0.646  0.00  0.00    +0.044 C 
BRANCH   4  14
ATOM     14  N   UNL     1      -2.196   1.654  -0.064  0.00  0.00    -0.356 N 
ATOM     15  H   UNL     1      -2.753   2.250   0.461  0.00  0.00    +0.142 HD
ATOM     16  H   UNL     1      -2.600   0.930  -0.567  0.00  0.00    +0.142 HD
ENDBRANCH   4  14
ENDBRANCH   1   3
BRANCH   1  17
ATOM     17  O   UNL     1      -0.219   5.424   0.618  0.00  0.00    -0.451 OA
BRANCH  17  18
ATOM     18  C   UNL     1      -0.954   6.616   0.905  0.00  0.00    +0.328 C 
BRANCH  18  20
ATOM     19  N   UNL     1      -0.468   8.996   1.370  0.00  0.00    -0.282 N 
ATOM     20  C   UNL     1       0.003   7.765   1.089  0.00  0.00    +0.255 C 
ATOM     21  O   UNL     1       1.198   7.582   0.986  0.00  0.00    -0.272 OA
ATOM     22  H   UNL     1      -1.418   9.131   1.513  0.00  0.00    +0.155 HD
BRANCH  19  28
ATOM     23  C   UNL     1      -0.033  11.363   1.166  0.00  0.00    -0.026 A 
ATOM     24  C   UNL     1       0.840  12.431   1.250  0.00  0.00    +0.005 A 
ATOM     25  C   UNL     1       2.155  12.223   1.621  0.00  0.00    +0.000 A 
ATOM     26  C   UNL     1       2.602  10.946   1.910  0.00  0.00    +0.002 A 
ATOM     27  C   UNL     1       1.734   9.875   1.832  0.00  0.00    +0.023 A 
ATOM     28  C   UNL     1       0.413  10.080   1.454  0.00  0.00    +0.037 A 
BRANCH  23  30
ATOM     29  C   UNL     1      -2.334  11.729   2.014  0.00  0.00    +0.009 C 
ATOM     30  C   UNL     1      -1.466  11.590   0.761  0.00  0.00    +0.033 C 
ENDBRANCH  23  30
ENDBRANCH  19  28
ENDBRANCH  18  20
ENDBRANCH  17  18
ENDBRANCH   1  17
TORSDOF 7
