REMARK  Name = ZINC50866752
REMARK  9 active torsions:
REMARK  status: ('A' for Active; 'I' for Inactive)
REMARK    1  A    between atoms: C_1  and  C_2
REMARK    2  A    between atoms: C_4  and  C_20
REMARK    3  A    between atoms: C_5  and  C_9
REMARK    4  A    between atoms: C_6  and  C_8
REMARK    5  A    between atoms: C_11  and  C_16
REMARK    6  A    between atoms: C_13  and  N_15
REMARK    7  A    between atoms: C_16  and  C_17
REMARK    8  A    between atoms: C_16  and  C_18
REMARK    9  A    between atoms: C_16  and  C_19
REMARK                            x       y       z     vdW  Elec       q    Type
REMARK                         _______ _______ _______ _____ _____    ______ ____
ROOT
ATOM      1  C   UNL     1      -0.337  -4.116   0.802  0.00  0.00    +0.162 A 
ATOM      2  N   UNL     1      -0.479  -4.396   2.091  0.00  0.00    -0.232 NA
ATOM      3  C   UNL     1      -0.646  -5.644   2.501  0.00  0.00    +0.052 A 
ATOM      4  C   UNL     1      -0.673  -6.665   1.570  0.00  0.00    +0.067 A 
ATOM      5  C   UNL     1      -0.520  -6.340   0.220  0.00  0.00    +0.120 A 
ATOM      6  N   UNL     1      -0.362  -5.066  -0.122  0.00  0.00    -0.213 NA
ENDROOT
BRANCH   1  11
ATOM      7  C   UNL     1       0.382   1.363  -0.818  0.00  0.00    +0.044 C 
ATOM      8  C   UNL     1       0.194  -0.071  -0.394  0.00  0.00    -0.050 A 
ATOM      9  C   UNL     1       1.044  -0.630   0.543  0.00  0.00    +0.007 A 
ATOM     10  C   UNL     1       0.877  -1.942   0.935  0.00  0.00    -0.039 A 
ATOM     11  C   UNL     1      -0.152  -2.705   0.385  0.00  0.00    +0.025 A 
ATOM     12  C   UNL     1      -1.006  -2.137  -0.558  0.00  0.00    -0.039 A 
ATOM     13  C   UNL     1      -0.833  -0.822  -0.939  0.00  0.00    +0.007 A 
ATOM     14  C   UNL     1      -2.121  -2.955  -1.157  0.00  0.00    +0.044 C 
ATOM     15  C   UNL     1       1.804  -2.550   1.955  0.00  0.00    +0.044 C 
ENDBRANCH   1  11
BRANCH   3  16
ATOM     16  C   UNL     1      -0.806  -5.948   3.969  0.00  0.00    +0.005 C 
ATOM     17  C   UNL     1       0.489  -6.559   4.507  0.00  0.00    +0.017 C 
ATOM     18  C   UNL     1      -1.112  -4.654   4.727  0.00  0.00    +0.017 C 
ATOM     19  C   UNL     1      -1.957  -6.937   4.162  0.00  0.00    +0.017 C 
ENDBRANCH   3  16
BRANCH   5  20
ATOM     20  N   UNL     1      -0.540  -7.330  -0.749  0.00  0.00    -0.343 N 
ATOM     21  H   UNL     1      -0.660  -8.258  -0.491  0.00  0.00    +0.144 HD
ATOM     22  H   UNL     1      -0.434  -7.096  -1.684  0.00  0.00    +0.144 HD
ENDBRANCH   5  20
TORSDOF 3
