REMARK  Name = ZINC40035948
REMARK  13 active torsions:
REMARK  status: ('A' for Active; 'I' for Inactive)
REMARK    1  A    between atoms: C_1  and  C_2
REMARK    2  A    between atoms: C_2  and  C_3
REMARK    3  A    between atoms: C_3  and  C_4
REMARK    4  A    between atoms: C_4  and  C_40
REMARK    5  A    between atoms: N_16  and  C_31
REMARK    6  A    between atoms: N_19  and  N_20
REMARK    7  A    between atoms: C_21  and  C_22
REMARK    8  A    between atoms: C_25  and  C_28
REMARK    9  A    between atoms: C_28  and  C_29
REMARK   10  A    between atoms: C_28  and  C_30
REMARK   11  A    between atoms: C_34  and  O_37
REMARK   12  A    between atoms: O_37  and  C_38
REMARK   13  A    between atoms: C_38  and  C_39
REMARK                            x       y       z     vdW  Elec       q    Type
REMARK                         _______ _______ _______ _____ _____    ______ ____
ROOT
ATOM      1  C   UNL     1      -1.084  -1.292  -0.558  0.00  0.00    +0.004 C 
ATOM      2  C   UNL     1      -2.510  -1.398  -0.023  0.00  0.00    +0.047 C 
ATOM      3  C   UNL     1      -3.485  -1.600  -1.152  0.00  0.00    -0.037 A 
ATOM      4  C   UNL     1      -4.741  -1.032  -1.101  0.00  0.00    +0.004 A 
ATOM      5  C   UNL     1      -5.633  -1.226  -2.141  0.00  0.00    +0.000 A 
ATOM      6  C   UNL     1      -5.273  -1.988  -3.238  0.00  0.00    +0.001 A 
ATOM      7  C   UNL     1      -4.018  -2.560  -3.303  0.00  0.00    +0.010 A 
ATOM      8  C   UNL     1      -3.118  -2.366  -2.259  0.00  0.00    +0.004 A 
ATOM      9  C   UNL     1      -1.762  -2.959  -2.304  0.00  0.00    +0.084 A 
ATOM     10  C   UNL     1      -0.776  -2.441  -1.476  0.00  0.00    +0.050 A 
ATOM     11  C   UNL     1       0.503  -3.008  -1.514  0.00  0.00    +0.264 A 
ATOM     12  O   UNL     1       1.395  -2.582  -0.798  0.00  0.00    -0.267 OA
ATOM     13  N   UNL     1       0.730  -4.037  -2.358  0.00  0.00    -0.248 N 
ATOM     14  C   UNL     1      -0.273  -4.505  -3.155  0.00  0.00    +0.223 A 
ATOM     15  N   UNL     1      -1.479  -3.976  -3.125  0.00  0.00    -0.214 NA
ATOM     16  N   UNL     1      -0.019  -5.548  -4.009  0.00  0.00    -0.206 N 
ATOM     17  C   UNL     1      -0.104  -1.309   0.617  0.00  0.00    +0.017 C 
ATOM     18  H   UNL     1       0.841  -5.994  -3.988  0.00  0.00    +0.177 HD
ENDROOT
BRANCH  13  19
ATOM     19  C   UNL     1       2.000  -4.627  -2.415  0.00  0.00    +0.053 A 
ATOM     20  C   UNL     1       2.312  -5.687  -1.574  0.00  0.00    +0.030 A 
ATOM     21  C   UNL     1       3.564  -6.268  -1.631  0.00  0.00    +0.047 A 
ATOM     22  C   UNL     1       4.509  -5.793  -2.528  0.00  0.00    +0.121 A 
ATOM     23  C   UNL     1       4.198  -4.734  -3.369  0.00  0.00    +0.047 A 
ATOM     24  C   UNL     1       2.945  -4.156  -3.317  0.00  0.00    +0.030 A 
BRANCH  22  25
ATOM     25  O   UNL     1       5.741  -6.365  -2.583  0.00  0.00    -0.492 OA
BRANCH  25  26
ATOM     26  C   UNL     1       6.665  -5.825  -3.531  0.00  0.00    +0.225 C 
ATOM     27  C   UNL     1       7.987  -6.591  -3.448  0.00  0.00    +0.048 C 
ENDBRANCH  25  26
ENDBRANCH  22  25
ENDBRANCH  13  19
BRANCH  16  28
ATOM     28  N   UNL     1      -1.004  -5.968  -4.912  0.00  0.00    -0.188 NA
ATOM     29  C   UNL     1      -0.765  -6.955  -5.720  0.00  0.00    +0.138 C 
BRANCH  29  30
ATOM     30  C   UNL     1      -1.802  -7.398  -6.671  0.00  0.00    -0.005 A 
ATOM     31  C   UNL     1      -3.041  -6.754  -6.709  0.00  0.00    +0.010 A 
ATOM     32  C   UNL     1      -4.005  -7.174  -7.600  0.00  0.00    +0.004 A 
ATOM     33  C   UNL     1      -3.749  -8.230  -8.456  0.00  0.00    -0.045 A 
ATOM     34  C   UNL     1      -2.524  -8.873  -8.424  0.00  0.00    +0.004 A 
ATOM     35  C   UNL     1      -1.547  -8.460  -7.542  0.00  0.00    +0.010 A 
BRANCH  33  36
ATOM     36  C   UNL     1      -4.808  -8.684  -9.427  0.00  0.00    +0.013 C 
ATOM     37  C   UNL     1      -4.281  -8.549 -10.857  0.00  0.00    +0.012 C 
ATOM     38  C   UNL     1      -5.163 -10.146  -9.150  0.00  0.00    +0.012 C 
ENDBRANCH  33  36
ENDBRANCH  29  30
ENDBRANCH  16  28
BRANCH   1  39
ATOM     39  C   UNL     1      -0.930   0.022  -1.325  0.00  0.00    +0.011 C 
BRANCH  39  41
ATOM     40  C   UNL     1       0.660   1.462  -2.607  0.00  0.00    +0.004 C 
ATOM     41  C   UNL     1       0.506   0.147  -1.839  0.00  0.00    -0.003 C 
ENDBRANCH  39  41
ENDBRANCH   1  39
TORSDOF 8
