REMARK  Name = ZINC12589059
REMARK  11 active torsions:
REMARK  status: ('A' for Active; 'I' for Inactive)
REMARK    1  A    between atoms: C_1  and  C_2
REMARK    2  A    between atoms: C_3  and  C_17
REMARK    3  A    between atoms: C_5  and  C_7
REMARK    4  A    between atoms: C_11  and  O_15
REMARK    5  A    between atoms: C_12  and  O_13
REMARK    6  A    between atoms: O_13  and  C_14
REMARK    7  A    between atoms: O_15  and  C_16
REMARK    8  A    between atoms: C_17  and  N_64
REMARK    9  A    between atoms: C_30  and  C_32
REMARK   10  A    between atoms: C_32  and  C_33
REMARK   11  A    between atoms: C_32  and  C_34
REMARK                            x       y       z     vdW  Elec       q    Type
REMARK                         _______ _______ _______ _____ _____    ______ ____
ROOT
ATOM      1  C   UNL     1      -0.363  -3.176   0.810  0.00  0.00    -0.073 C 
ATOM      2  C   UNL     1      -1.278  -1.944   0.776  0.00  0.00    +0.019 C 
ATOM      3  C   UNL     1      -0.412  -0.729   0.563  0.00  0.00    -0.022 A 
ATOM      4  C   UNL     1      -0.745   0.675   0.764  0.00  0.00    +0.003 A 
ATOM      5  C   UNL     1      -1.889   1.360   1.181  0.00  0.00    +0.010 A 
ATOM      6  C   UNL     1      -1.871   2.723   1.269  0.00  0.00    +0.001 A 
ATOM      7  C   UNL     1      -0.728   3.437   0.939  0.00  0.00    +0.002 A 
ATOM      8  C   UNL     1       0.410   2.784   0.520  0.00  0.00    +0.026 A 
ATOM      9  C   UNL     1       0.417   1.396   0.426  0.00  0.00    +0.047 A 
ATOM     10  N   UNL     1       1.374   0.478   0.049  0.00  0.00    -0.359 N 
ATOM     11  H   UNL     1       2.275   0.697  -0.235  0.00  0.00    +0.166 HD
ATOM     12  C   UNL     1       0.865  -0.785   0.135  0.00  0.00    +0.007 A 
ATOM     13  C   UNL     1       1.569  -2.084  -0.185  0.00  0.00    -0.017 C 
ATOM     14  N   UNL     1       0.535  -3.132  -0.366  0.00  0.00    +0.389 N 
ATOM     15  H   UNL     1      -0.021  -2.909  -1.200  0.00  0.00    -0.080 HD
ENDROOT
BRANCH  13  16
ATOM     16  C   UNL     1       2.359  -1.936  -1.486  0.00  0.00    -0.025 C 
ATOM     17  C   UNL     1       1.412  -1.522  -2.614  0.00  0.00    +0.006 C 
ATOM     18  C   UNL     1       3.439  -0.866  -1.308  0.00  0.00    +0.006 C 
ENDBRANCH  13  16
BRANCH  14  19
ATOM     19  C   UNL     1       1.180  -4.447  -0.557  0.00  0.00    -0.018 C 
BRANCH  19  22
ATOM     20  C   UNL     1      -0.269  -6.462   1.343  0.00  0.00    +0.088 C 
ATOM     21  C   UNL     1      -0.495  -6.315  -0.140  0.00  0.00    +0.124 A 
ATOM     22  C   UNL     1       0.127  -5.448  -0.959  0.00  0.00    +0.066 A 
ATOM     23  N   UNL     1      -0.351  -5.638  -2.198  0.00  0.00    -0.216 NA
ATOM     24  C   UNL     1      -1.253  -6.591  -2.159  0.00  0.00    +0.231 A 
ATOM     25  O   UNL     1      -1.361  -7.024  -0.890  0.00  0.00    -0.440 OA
BRANCH  24  26
ATOM     26  C   UNL     1      -2.019  -7.103  -3.313  0.00  0.00    +0.082 A 
ATOM     27  C   UNL     1      -1.816  -6.562  -4.585  0.00  0.00    +0.017 A 
ATOM     28  C   UNL     1      -2.530  -7.044  -5.661  0.00  0.00    +0.005 A 
ATOM     29  C   UNL     1      -3.456  -8.058  -5.487  0.00  0.00    +0.049 A 
ATOM     30  C   UNL     1      -3.671  -8.601  -4.231  0.00  0.00    +0.162 A 
ATOM     31  C   UNL     1      -2.955  -8.127  -3.137  0.00  0.00    +0.174 A 
BRANCH  31  32
ATOM     32  O   UNL     1      -3.163  -8.657  -1.903  0.00  0.00    -0.491 OA
ATOM     33  C   UNL     1      -4.170  -8.043  -1.096  0.00  0.00    +0.277 C 
ENDBRANCH  31  32
BRANCH  30  34
ATOM     34  O   UNL     1      -4.582  -9.597  -4.067  0.00  0.00    -0.491 OA
ATOM     35  C   UNL     1      -5.282 -10.035  -5.234  0.00  0.00    +0.277 C 
ENDBRANCH  30  34
ENDBRANCH  24  26
ENDBRANCH  19  22
ENDBRANCH  14  19
TORSDOF 6
