REMARK  Name = ZINC00861188
REMARK  8 active torsions:
REMARK  status: ('A' for Active; 'I' for Inactive)
REMARK    1  A    between atoms: C_1  and  C_2
REMARK    2  A    between atoms: C_3  and  C_26
REMARK    3  A    between atoms: C_4  and  C_16
REMARK    4  A    between atoms: C_10  and  C_14
REMARK    5  A    between atoms: C_10  and  C_15
REMARK    6  A    between atoms: C_26  and  O_28
REMARK    7  A    between atoms: O_28  and  C_29
REMARK    8  A    between atoms: C_29  and  C_30
REMARK                            x       y       z     vdW  Elec       q    Type
REMARK                         _______ _______ _______ _____ _____    ______ ____
ROOT
ATOM      1  C   UNL     1      -0.374   0.719   7.362  0.00  0.00    +0.061 C 
ATOM      2  C   UNL     1      -0.847   1.418   6.112  0.00  0.00    +0.016 C 
ATOM      3  C   UNL     1      -1.484   2.598   6.207  0.00  0.00    +0.065 C 
ATOM      4  C   UNL     1      -1.976   3.317   4.986  0.00  0.00    +0.093 C 
ATOM      5  C   UNL     1      -1.302   2.795   3.742  0.00  0.00    +0.024 C 
ATOM      6  C   UNL     1      -0.669   1.603   3.749  0.00  0.00    +0.016 C 
ATOM      7  N   UNL     1      -0.624   0.847   4.890  0.00  0.00    -0.321 N 
ATOM      8  C   UNL     1       0.008   1.074   2.509  0.00  0.00    +0.058 C 
ATOM      9  C   UNL     1      -0.729   1.579   1.267  0.00  0.00    -0.023 C 
ATOM     10  C   UNL     1      -0.730   3.111   1.292  0.00  0.00    +0.086 C 
ATOM     11  C   UNL     1      -1.357   3.580   2.576  0.00  0.00    +0.162 C 
ATOM     12  O   UNL     1      -1.921   4.656   2.608  0.00  0.00    -0.292 OA
ATOM     13  C   UNL     1      -0.013   1.086   0.008  0.00  0.00    +0.011 C 
ATOM     14  C   UNL     1      -2.168   1.060   1.276  0.00  0.00    +0.011 C 
ATOM     15  H   UNL     1      -0.408  -0.229   4.817  0.00  0.00    +0.152 HD
ENDROOT
BRANCH   4  16
ATOM     16  C   UNL     1      -3.465   3.120   4.862  0.00  0.00    -0.018 A 
ATOM     17  C   UNL     1      -3.984   1.845   4.731  0.00  0.00    +0.055 A 
ATOM     18  C   UNL     1      -5.352   1.661   4.622  0.00  0.00    +0.167 A 
ATOM     19  C   UNL     1      -6.203   2.764   4.634  0.00  0.00    +0.167 A 
ATOM     20  C   UNL     1      -5.677   4.039   4.760  0.00  0.00    +0.065 A 
ATOM     21  C   UNL     1      -4.309   4.215   4.874  0.00  0.00    +0.026 A 
ATOM     22 BR   UNL     1      -3.593   5.957   5.046  0.00  0.00    -0.050 Br
ATOM     23  O   UNL     1      -7.489   2.324   4.507  0.00  0.00    -0.453 OA
ATOM     24  C   UNL     1      -7.449   0.921   4.829  0.00  0.00    +0.466 C 
ATOM     25  O   UNL     1      -6.106   0.530   4.489  0.00  0.00    -0.453 OA
ENDBRANCH   4  16
BRANCH   3  26
ATOM     26  C   UNL     1      -1.694   3.172   7.482  0.00  0.00    +0.338 C 
ATOM     27  O   UNL     1      -1.300   2.598   8.481  0.00  0.00    -0.245 OA
BRANCH  26  28
ATOM     28  O   UNL     1      -2.333   4.356   7.593  0.00  0.00    -0.459 OA
BRANCH  28  29
ATOM     29  C   UNL     1      -2.511   4.877   8.911  0.00  0.00    +0.264 C 
BRANCH  29  30
ATOM     30  C   UNL     1      -3.248   6.215   8.835  0.00  0.00    +0.156 C 
ATOM     31  C   UNL     1      -3.500   6.772  10.259  0.00  0.00    +0.037 C 
ATOM     32  C   UNL     1      -3.620   8.292   9.965  0.00  0.00    +0.031 C 
ATOM     33  C   UNL     1      -2.623   8.480   8.801  0.00  0.00    +0.160 C 
ATOM     34  O   UNL     1      -2.428   7.200   8.187  0.00  0.00    -0.373 OA
ENDBRANCH  29  30
ENDBRANCH  28  29
ENDBRANCH  26  28
ENDBRANCH   3  26
TORSDOF 5
