REMARK  Name = ZINC45145181
REMARK  6 active torsions:
REMARK  status: ('A' for Active; 'I' for Inactive)
REMARK    1  A    between atoms: C_1  and  C_2
REMARK    2  A    between atoms: C_2  and  C_4
REMARK    3  A    between atoms: C_2  and  N_8
REMARK    4  A    between atoms: N_5  and  O_6
REMARK    5  A    between atoms: N_8  and  C_9
REMARK    6  A    between atoms: C_10  and  C_12
REMARK                            x       y       z     vdW  Elec       q    Type
REMARK                         _______ _______ _______ _____ _____    ______ ____
ROOT
ATOM      1  N   UNL     1       0.778  -0.380  -1.233  0.00  0.00    -0.294 N 
ATOM      2  C   UNL     1       0.064   0.372  -0.199  0.00  0.00    +0.132 C 
ATOM      3  C   UNL     1       0.088  -1.062  -2.169  0.00  0.00    +0.222 C 
ATOM      4  O   UNL     1      -1.121  -0.979  -2.210  0.00  0.00    -0.275 OA
ENDROOT
BRANCH   3   5
ATOM      5  C   UNL     1       0.819  -1.926  -3.164  0.00  0.00    +0.048 C 
ATOM      6  C   UNL     1       1.666  -2.958  -2.417  0.00  0.00    +0.019 C 
ATOM      7  C   UNL     1       2.408  -3.836  -3.428  0.00  0.00    -0.009 C 
ATOM      8  C   UNL     1       1.394  -4.556  -4.319  0.00  0.00    +0.007 C 
ATOM      9  C   UNL     1       0.547  -3.523  -5.065  0.00  0.00    -0.009 C 
ATOM     10  C   UNL     1      -0.195  -2.646  -4.055  0.00  0.00    +0.019 C 
ATOM     11  C   UNL     1       1.455  -2.648  -5.931  0.00  0.00    +0.007 C 
ATOM     12  C   UNL     1       2.469  -1.928  -5.040  0.00  0.00    -0.009 C 
ATOM     13  C   UNL     1       3.316  -2.960  -4.293  0.00  0.00    +0.007 C 
ATOM     14  C   UNL     1       1.727  -1.050  -4.029  0.00  0.00    +0.019 C 
ENDBRANCH   3   5
BRANCH   1  16
ATOM     15  C   UNL     1       2.765  -0.943   0.079  0.00  0.00    +0.036 C 
ATOM     16  C   UNL     1       2.243  -0.392  -1.250  0.00  0.00    +0.139 C 
BRANCH  16  17
ATOM     17  C   UNL     1       2.755   1.012  -1.447  0.00  0.00    +0.152 C 
ATOM     18  N   UNL     1       1.924   1.979  -1.657  0.00  0.00    -0.075 NA
ATOM     19  N   UNL     1       4.108   1.265  -1.403  0.00  0.00    -0.342 N 
ATOM     20  H   UNL     1       4.736   0.530  -1.321  0.00  0.00    +0.144 HD
ATOM     21  H   UNL     1       4.433   2.177  -1.455  0.00  0.00    +0.144 HD
BRANCH  18  22
ATOM     22  O   UNL     1       2.404   3.298  -1.842  0.00  0.00    -0.408 OA
ATOM     23  H   UNL     1       1.708   3.952  -1.992  0.00  0.00    +0.328 HD
ENDBRANCH  18  22
ENDBRANCH  16  17
ENDBRANCH   1  16
TORSDOF 4
