REMARK  Name = ZINC43959608
REMARK  9 active torsions:
REMARK  status: ('A' for Active; 'I' for Inactive)
REMARK    1  A    between atoms: C_1  and  S_2
REMARK    2  A    between atoms: S_2  and  C_3
REMARK    3  A    between atoms: C_8  and  C_9
REMARK    4  A    between atoms: C_9  and  N_10
REMARK    5  A    between atoms: C_13  and  C_16
REMARK    6  A    between atoms: C_16  and  N_17
REMARK    7  A    between atoms: N_17  and  S_18
REMARK    8  A    between atoms: S_18  and  C_21
REMARK    9  A    between atoms: C_25  and  N_27
REMARK                            x       y       z     vdW  Elec       q    Type
REMARK                         _______ _______ _______ _____ _____    ______ ____
ROOT
ATOM      1  N   UNL     1      -0.880  -3.044  -1.152  0.00  0.00    +0.382 N 
ATOM      2  C   UNL     1      -1.095  -3.528  -2.521  0.00  0.00    -0.078 C 
ATOM      3  C   UNL     1      -2.596  -3.666  -2.787  0.00  0.00    -0.014 C 
ATOM      4  C   UNL     1      -3.196  -4.662  -1.791  0.00  0.00    +0.001 C 
ATOM      5  C   UNL     1      -2.901  -4.185  -0.366  0.00  0.00    -0.014 C 
ATOM      6  C   UNL     1      -1.389  -4.029  -0.190  0.00  0.00    -0.078 C 
ATOM      7  H   UNL     1      -1.367  -2.169  -1.026  0.00  0.00    -0.081 HD
ENDROOT
BRANCH   1   8
ATOM      8  C   UNL     1       0.557  -2.839  -0.928  0.00  0.00    -0.042 C 
BRANCH   8  14
ATOM      9  C   UNL     1       0.848  -0.411  -1.489  0.00  0.00    +0.009 A 
ATOM     10  C   UNL     1       1.315   0.599  -2.322  0.00  0.00    +0.015 A 
ATOM     11  C   UNL     1       1.978   0.276  -3.490  0.00  0.00    +0.001 A 
ATOM     12  C   UNL     1       2.178  -1.049  -3.830  0.00  0.00    +0.000 A 
ATOM     13  C   UNL     1       1.714  -2.056  -3.004  0.00  0.00    +0.003 A 
ATOM     14  C   UNL     1       1.056  -1.741  -1.831  0.00  0.00    -0.051 A 
BRANCH   9  16
ATOM     15  C   UNL     1      -0.022   1.810   0.012  0.00  0.00    +0.090 C 
ATOM     16  S   UNL     1       0.002  -0.004   0.002  0.00  0.00    -0.128 S 
ENDBRANCH   9  16
ENDBRANCH   8  14
ENDBRANCH   1   8
BRANCH   4  17
ATOM     17  C   UNL     1      -4.710  -4.745  -1.999  0.00  0.00    +0.109 C 
BRANCH  17  18
ATOM     18  N   UNL     1      -5.266  -5.784  -1.129  0.00  0.00    -0.190 NA
ATOM     19  H   UNL     1      -4.678  -6.433  -0.710  0.00  0.00    +0.148 HD
BRANCH  18  20
ATOM     20  S   UNL     1      -6.899  -5.852  -0.859  0.00  0.00    +0.058 S 
ATOM     21  O   UNL     1      -7.124  -6.968  -0.009  0.00  0.00    -0.153 OA
ATOM     22  O   UNL     1      -7.308  -4.536  -0.514  0.00  0.00    -0.153 OA
BRANCH  20  23
ATOM     23  C   UNL     1      -7.665  -6.231  -2.400  0.00  0.00    +0.107 A 
ATOM     24  C   UNL     1      -8.050  -5.210  -3.250  0.00  0.00    +0.028 A 
ATOM     25  C   UNL     1      -8.651  -5.507  -4.459  0.00  0.00    +0.004 A 
ATOM     26  C   UNL     1      -8.868  -6.825  -4.818  0.00  0.00    +0.033 A 
ATOM     27  C   UNL     1      -8.483  -7.845  -3.968  0.00  0.00    +0.128 A 
ATOM     28  C   UNL     1      -7.877  -7.548  -2.761  0.00  0.00    +0.061 A 
BRANCH  27  29
ATOM     29  N   UNL     1      -8.715  -9.255  -4.352  0.00  0.00    +0.056 N 
ATOM     30  O   UNL     1      -9.242  -9.515  -5.409  0.00  0.00    -0.126 OA
ATOM     31  O   UNL     1      -8.379 -10.147  -3.609  0.00  0.00    -0.126 OA
ENDBRANCH  27  29
ENDBRANCH  20  23
ENDBRANCH  18  20
ENDBRANCH  17  18
ENDBRANCH   4  17
TORSDOF 8
