REMARK  Name = ZINC35594609
REMARK  8 active torsions:
REMARK  status: ('A' for Active; 'I' for Inactive)
REMARK    1  A    between atoms: C_1  and  C_2
REMARK    2  A    between atoms: C_2  and  C_3
REMARK    3  A    between atoms: C_2  and  N_4
REMARK    4  A    between atoms: C_5  and  C_7
REMARK    5  A    between atoms: C_7  and  N_8
REMARK    6  A    between atoms: C_11  and  C_15
REMARK    7  A    between atoms: N_13  and  C_14
REMARK    8  A    between atoms: C_21  and  C_27
REMARK                            x       y       z     vdW  Elec       q    Type
REMARK                         _______ _______ _______ _____ _____    ______ ____
ROOT
ATOM      1  N   UNL     1      -3.721  -2.986  -0.975  0.00  0.00    -0.246 N 
ATOM      2  C   UNL     1      -3.773  -3.454  -2.298  0.00  0.00    +0.131 A 
ATOM      3  C   UNL     1      -4.785  -4.200  -2.792  0.00  0.00    +0.037 A 
ATOM      4  C   UNL     1      -4.493  -4.487  -4.135  0.00  0.00    +0.099 A 
ATOM      5  N   UNL     1      -3.338  -3.921  -4.429  0.00  0.00    -0.169 NA
ATOM      6  N   UNL     1      -2.867  -3.261  -3.283  0.00  0.00    -0.252 N 
ATOM      7  C   UNL     1      -1.620  -2.501  -3.175  0.00  0.00    +0.174 C 
ATOM      8  C   UNL     1      -6.003  -4.624  -2.011  0.00  0.00    +0.112 C 
ATOM      9  S   UNL     1      -5.514  -5.939  -0.837  0.00  0.00    -0.138 S 
ATOM     10  C   UNL     1      -3.904  -5.326  -0.237  0.00  0.00    +0.166 C 
ATOM     11  C   UNL     1      -3.955  -3.851   0.017  0.00  0.00    +0.231 C 
ATOM     12  O   UNL     1      -4.213  -3.439   1.128  0.00  0.00    -0.274 OA
ENDROOT
BRANCH   8  13
ATOM     13  C   UNL     1      -7.052  -5.149  -2.957  0.00  0.00    -0.026 A 
ATOM     14  C   UNL     1      -7.470  -6.464  -2.862  0.00  0.00    +0.009 A 
ATOM     15  C   UNL     1      -8.432  -6.950  -3.727  0.00  0.00    +0.050 A 
ATOM     16  C   UNL     1      -8.981  -6.120  -4.691  0.00  0.00    +0.166 A 
ATOM     17  C   UNL     1      -8.561  -4.796  -4.786  0.00  0.00    +0.167 A 
ATOM     18  C   UNL     1      -7.600  -4.314  -3.912  0.00  0.00    +0.054 A 
ATOM     19  O   UNL     1      -9.243  -4.193  -5.803  0.00  0.00    -0.453 OA
ATOM     20  C   UNL     1      -9.786  -5.268  -6.592  0.00  0.00    +0.466 C 
ATOM     21  O   UNL     1      -9.928  -6.347  -5.649  0.00  0.00    -0.453 OA
ENDBRANCH   8  13
BRANCH   4  22
ATOM     22  C   UNL     1      -5.334  -5.287  -5.060  0.00  0.00    +0.002 A 
ATOM     23  C   UNL     1      -5.763  -4.738  -6.267  0.00  0.00    +0.010 A 
ATOM     24  C   UNL     1      -6.545  -5.486  -7.123  0.00  0.00    +0.001 A 
ATOM     25  C   UNL     1      -6.902  -6.779  -6.786  0.00  0.00    +0.000 A 
ATOM     26  C   UNL     1      -6.479  -7.329  -5.590  0.00  0.00    +0.001 A 
ATOM     27  C   UNL     1      -5.692  -6.592  -4.728  0.00  0.00    +0.010 A 
ENDBRANCH   4  22
BRANCH   1  28
ATOM     28  C   UNL     1      -3.411  -1.583  -0.689  0.00  0.00    +0.210 C 
BRANCH  28  30
ATOM     29  N   UNL     1      -4.653   0.501  -0.209  0.00  0.00    -0.312 N 
ATOM     30  C   UNL     1      -4.693  -0.817  -0.486  0.00  0.00    +0.231 C 
ATOM     31  O   UNL     1      -5.760  -1.387  -0.573  0.00  0.00    -0.274 OA
ATOM     32  H   UNL     1      -3.800   0.957  -0.140  0.00  0.00    +0.149 HD
BRANCH  29  34
ATOM     33  C   UNL     1      -5.628   2.473   0.861  0.00  0.00    +0.027 C 
ATOM     34  C   UNL     1      -5.899   1.246  -0.012  0.00  0.00    +0.067 C 
ATOM     35  C   UNL     1      -6.444   1.697  -1.369  0.00  0.00    +0.027 C 
ENDBRANCH  29  34
ENDBRANCH  28  30
ENDBRANCH   1  28
TORSDOF 5
