REMARK  Name = ZINC39673942
REMARK  10 active torsions:
REMARK  status: ('A' for Active; 'I' for Inactive)
REMARK    1  A    between atoms: C_1  and  C_2
REMARK    2  A    between atoms: C_4  and  C_12
REMARK    3  A    between atoms: C_12  and  C_13
REMARK    4  A    between atoms: C_13  and  N_14
REMARK    5  A    between atoms: C_15  and  C_17
REMARK    6  A    between atoms: C_28  and  C_30
REMARK    7  A    between atoms: C_32  and  O_38
REMARK    8  A    between atoms: C_34  and  O_36
REMARK    9  A    between atoms: O_36  and  C_37
REMARK   10  A    between atoms: O_38  and  C_39
REMARK                            x       y       z     vdW  Elec       q    Type
REMARK                         _______ _______ _______ _____ _____    ______ ____
ROOT
ATOM      1  C   UNL     1      -5.591   3.966   3.093  0.00  0.00    +0.100 C 
ATOM      2  C   UNL     1      -7.052   3.565   2.786  0.00  0.00    +0.121 C 
ATOM      3  N   UNL     1      -7.857   4.274   3.808  0.00  0.00    -0.296 N 
ATOM      4  C   UNL     1      -7.209   5.601   3.933  0.00  0.00    +0.115 C 
ATOM      5  C   UNL     1      -5.699   5.303   3.845  0.00  0.00    -0.004 C 
ATOM      6  C   UNL     1      -4.989   6.406   3.066  0.00  0.00    -0.010 C 
ATOM      7  C   UNL     1      -5.059   7.713   3.861  0.00  0.00    -0.082 C 
ATOM      8  N   UNL     1      -4.424   7.525   5.171  0.00  0.00    +0.379 N 
ATOM      9  C   UNL     1      -5.169   6.529   5.951  0.00  0.00    -0.082 C 
ATOM     10  C   UNL     1      -5.104   5.172   5.244  0.00  0.00    -0.010 C 
ATOM     11  C   UNL     1      -8.935   3.815   4.474  0.00  0.00    +0.247 C 
ATOM     12  O   UNL     1      -9.274   2.654   4.357  0.00  0.00    -0.270 OA
ATOM     13  H   UNL     1      -3.475   7.207   5.041  0.00  0.00    -0.086 HD
ATOM     14  H   UNL     1      -4.417   8.403   5.669  0.00  0.00    -0.086 HD
ENDROOT
BRANCH  11  15
ATOM     15  C   UNL     1      -9.707   4.725   5.348  0.00  0.00    +0.044 A 
ATOM     16  C   UNL     1      -9.619   6.106   5.172  0.00  0.00    +0.059 A 
ATOM     17  C   UNL     1     -10.343   6.955   5.992  0.00  0.00    +0.124 A 
ATOM     18  C   UNL     1     -11.156   6.433   6.989  0.00  0.00    +0.091 A 
ATOM     19  C   UNL     1     -11.246   5.060   7.168  0.00  0.00    +0.124 A 
ATOM     20  C   UNL     1     -10.529   4.204   6.348  0.00  0.00    +0.059 A 
BRANCH  19  21
ATOM     21  O   UNL     1     -12.043   4.554   8.145  0.00  0.00    -0.495 OA
ATOM     22  C   UNL     1     -12.758   5.494   8.950  0.00  0.00    +0.277 C 
ENDBRANCH  19  21
BRANCH  17  23
ATOM     23  O   UNL     1     -10.258   8.300   5.822  0.00  0.00    -0.495 OA
ATOM     24  C   UNL     1     -11.032   9.116   6.703  0.00  0.00    +0.277 C 
ENDBRANCH  17  23
ENDBRANCH  11  15
BRANCH   1  26
ATOM     25  N   UNL     1      -3.492   3.897   1.787  0.00  0.00    -0.315 N 
ATOM     26  C   UNL     1      -4.817   4.145   1.813  0.00  0.00    +0.218 C 
ATOM     27  O   UNL     1      -5.385   4.512   0.806  0.00  0.00    -0.275 OA
ATOM     28  H   UNL     1      -3.038   3.603   2.592  0.00  0.00    +0.149 HD
BRANCH  25  29
ATOM     29  C   UNL     1      -2.739   4.071   0.542  0.00  0.00    +0.109 C 
BRANCH  29  30
ATOM     30  C   UNL     1      -1.268   3.726   0.784  0.00  0.00    +0.056 C 
BRANCH  30  34
ATOM     31  C   UNL     1       0.132   6.331  -0.157  0.00  0.00    +0.063 C 
ATOM     32  C   UNL     1       0.116   5.027  -0.911  0.00  0.00    +0.017 A 
ATOM     33  H   UNL     1       1.212   5.477  -2.624  0.00  0.00    +0.166 HD
ATOM     34  C   UNL     1      -0.493   3.904  -0.496  0.00  0.00    -0.018 A 
ATOM     35  C   UNL     1      -0.260   2.886  -1.523  0.00  0.00    +0.003 A 
ATOM     36  C   UNL     1      -0.631   1.548  -1.664  0.00  0.00    +0.010 A 
ATOM     37  C   UNL     1      -0.245   0.850  -2.774  0.00  0.00    +0.001 A 
ATOM     38  C   UNL     1       0.513   1.462  -3.763  0.00  0.00    +0.002 A 
ATOM     39  C   UNL     1       0.890   2.782  -3.644  0.00  0.00    +0.026 A 
ATOM     40  C   UNL     1       0.508   3.511  -2.523  0.00  0.00    +0.047 A 
ATOM     41  N   UNL     1       0.714   4.812  -2.123  0.00  0.00    -0.358 N 
ENDBRANCH  30  34
ENDBRANCH  29  30
ENDBRANCH  25  29
ENDBRANCH   1  26
TORSDOF 7
