REMARK  Name = ZINC67101458
REMARK  7 active torsions:
REMARK  status: ('A' for Active; 'I' for Inactive)
REMARK    1  A    between atoms: C_1  and  C_2
REMARK    2  A    between atoms: C_6  and  C_8
REMARK    3  A    between atoms: N_10  and  N_11
REMARK    4  A    between atoms: N_14  and  C_15
REMARK    5  A    between atoms: C_15  and  C_16
REMARK    6  A    between atoms: C_17  and  C_27
REMARK    7  A    between atoms: C_19  and  C_21
REMARK                            x       y       z     vdW  Elec       q    Type
REMARK                         _______ _______ _______ _____ _____    ______ ____
ROOT
ATOM      1  N   UNL     1       0.086  -4.905   3.652  0.00  0.00    -0.218 N 
ATOM      2  C   UNL     1       0.103  -6.252   3.639  0.00  0.00    +0.316 C 
ATOM      3  O   UNL     1       0.117  -6.870   4.686  0.00  0.00    -0.251 OA
ATOM      4  N   UNL     1       0.106  -6.915   2.466  0.00  0.00    -0.294 N 
ATOM      5  H   UNL     1       0.083  -4.428   4.496  0.00  0.00    +0.174 HD
ATOM      6  H   UNL     1       0.096  -6.423   1.630  0.00  0.00    +0.151 HD
ENDROOT
BRANCH   1   9
ATOM      7  C   UNL     1       0.053  -2.845   2.458  0.00  0.00    +0.260 C 
ATOM      8  O   UNL     1       0.050  -2.248   3.516  0.00  0.00    -0.269 OA
ATOM      9  N   UNL     1       0.070  -4.193   2.445  0.00  0.00    -0.229 N 
ATOM     10  H   UNL     1       0.073  -4.670   1.601  0.00  0.00    +0.173 HD
BRANCH   7  16
ATOM     11  C   UNL     1      -0.018   1.503   0.010  0.00  0.00    +0.044 C 
ATOM     12  C   UNL     1       0.002  -0.004   0.002  0.00  0.00    -0.050 A 
ATOM     13  C   UNL     1       0.006  -0.688  -1.201  0.00  0.00    +0.003 A 
ATOM     14  C   UNL     1       0.025  -2.071  -1.218  0.00  0.00    +0.001 A 
ATOM     15  C   UNL     1       0.040  -2.778  -0.033  0.00  0.00    +0.013 A 
ATOM     16  C   UNL     1       0.036  -2.095   1.184  0.00  0.00    +0.038 A 
ATOM     17  C   UNL     1       0.023  -0.699   1.194  0.00  0.00    +0.016 A 
ENDBRANCH   7  16
ENDBRANCH   1   9
BRANCH   4  18
ATOM     18  C   UNL     1       0.126  -8.380   2.452  0.00  0.00    +0.150 C 
BRANCH  18  19
ATOM     19  C   UNL     1       0.125  -8.869   1.027  0.00  0.00    +0.030 A 
ATOM     20  C   UNL     1       1.171  -9.142   0.202  0.00  0.00    +0.051 A 
ATOM     21  N   UNL     1       0.948  -9.564  -1.020  0.00  0.00    -0.244 NA
ATOM     22  C   UNL     1      -0.286  -9.732  -1.475  0.00  0.00    +0.109 A 
ATOM     23  S   UNL     1      -1.251  -9.259  -0.047  0.00  0.00    -0.070 S 
ATOM     24  C   UNL     1       2.585  -8.960   0.691  0.00  0.00    +0.066 C 
BRANCH  22  25
ATOM     25  C   UNL     1      -0.741 -10.193  -2.805  0.00  0.00    +0.007 A 
ATOM     26  C   UNL     1      -2.105 -10.295  -3.082  0.00  0.00    +0.010 A 
ATOM     27  C   UNL     1      -2.523 -10.726  -4.324  0.00  0.00    +0.001 A 
ATOM     28  C   UNL     1      -1.593 -11.056  -5.294  0.00  0.00    +0.000 A 
ATOM     29  C   UNL     1      -0.240 -10.958  -5.025  0.00  0.00    +0.001 A 
ATOM     30  C   UNL     1       0.192 -10.523  -3.789  0.00  0.00    +0.010 A 
ENDBRANCH  22  25
ENDBRANCH  18  19
ENDBRANCH   4  18
TORSDOF 5
