REMARK  Name = ZINC31763984
REMARK  7 active torsions:
REMARK  status: ('A' for Active; 'I' for Inactive)
REMARK    1  A    between atoms: C_1  and  C_2
REMARK    2  A    between atoms: C_5  and  C_17
REMARK    3  A    between atoms: N_8  and  C_10
REMARK    4  A    between atoms: C_22  and  C_25
REMARK    5  A    between atoms: C_25  and  C_26
REMARK    6  A    between atoms: C_26  and  O_28
REMARK    7  A    between atoms: O_28  and  C_29
REMARK                            x       y       z     vdW  Elec       q    Type
REMARK                         _______ _______ _______ _____ _____    ______ ____
ROOT
ATOM      1  C   UNL     1       4.584  -1.696   0.917  0.00  0.00    +0.068 C 
ATOM      2  C   UNL     1       3.911  -0.451   0.399  0.00  0.00    +0.069 A 
ATOM      3  C   UNL     1       4.530   0.547  -0.423  0.00  0.00    +0.031 A 
ATOM      4  C   UNL     1       5.773   0.812  -1.018  0.00  0.00    +0.032 A 
ATOM      5  C   UNL     1       5.938   1.943  -1.761  0.00  0.00    +0.077 A 
ATOM      6  S   UNL     1       4.331   2.713  -1.664  0.00  0.00    -0.064 S 
ATOM      7  C   UNL     1       3.525   1.498  -0.653  0.00  0.00    +0.113 A 
ATOM      8  N   UNL     1       2.404   1.104  -0.015  0.00  0.00    -0.225 N 
ATOM      9  N   UNL     1       2.678  -0.111   0.625  0.00  0.00    -0.170 NA
ENDROOT
BRANCH   5  10
ATOM     10  C   UNL     1       7.137   2.410  -2.463  0.00  0.00    +0.256 C 
ATOM     11  O   UNL     1       8.161   1.754  -2.423  0.00  0.00    -0.269 OA
ATOM     12  N   UNL     1       7.105   3.568  -3.153  0.00  0.00    -0.260 N 
ATOM     13  C   UNL     1       8.241   4.011  -3.818  0.00  0.00    +0.165 A 
ATOM     14  N   UNL     1       8.405   5.101  -4.543  0.00  0.00    -0.229 NA
ATOM     15  C   UNL     1       9.563   5.378  -5.108  0.00  0.00    +0.061 A 
ATOM     16  C   UNL     1      10.588   4.507  -4.940  0.00  0.00    +0.072 A 
ATOM     17  S   UNL     1       9.807   3.268  -3.917  0.00  0.00    -0.060 S 
ATOM     18  H   UNL     1       6.180   4.162  -3.189  0.00  0.00    +0.157 HD
BRANCH  15  19
ATOM     19  C   UNL     1       9.742   6.630  -5.928  0.00  0.00    +0.176 C 
BRANCH  19  20
ATOM     20  C   UNL     1       8.693   6.676  -7.009  0.00  0.00    +0.313 C 
ATOM     21  O   UNL     1       7.884   5.784  -7.104  0.00  0.00    -0.250 OA
BRANCH  20  22
ATOM     22  O   UNL     1       8.658   7.709  -7.866  0.00  0.00    -0.468 OA
ATOM     23  C   UNL     1       7.621   7.687  -8.882  0.00  0.00    +0.280 C 
ENDBRANCH  20  22
ENDBRANCH  19  20
ENDBRANCH  15  19
ENDBRANCH   5  10
BRANCH   8  24
ATOM     24  C   UNL     1       1.180   1.787   0.000  0.00  0.00    +0.067 A 
ATOM     25  C   UNL     1      -0.013   1.076   0.008  0.00  0.00    +0.030 A 
ATOM     26  C   UNL     1      -1.218   1.750   0.017  0.00  0.00    +0.040 A 
ATOM     27  C   UNL     1      -1.237   3.135   0.030  0.00  0.00    +0.124 A 
ATOM     28  C   UNL     1      -0.049   3.846   0.022  0.00  0.00    +0.040 A 
ATOM     29  C   UNL     1       1.159   3.175   0.008  0.00  0.00    +0.030 A 
ATOM     30  F   UNL     1      -2.417   3.793   0.044  0.00  0.00    -0.205 F 
ENDBRANCH   8  24
TORSDOF 5
