REMARK  Name = ZINC20167900
REMARK  12 active torsions:
REMARK  status: ('A' for Active; 'I' for Inactive)
REMARK    1  A    between atoms: C_1  and  C_2
REMARK    2  A    between atoms: C_2  and  O_3
REMARK    3  A    between atoms: O_3  and  C_4
REMARK    4  A    between atoms: C_4  and  C_6
REMARK    5  A    between atoms: C_7  and  N_36
REMARK    6  A    between atoms: C_9  and  C_10
REMARK    7  A    between atoms: C_13  and  C_16
REMARK    8  A    between atoms: C_18  and  C_32
REMARK    9  A    between atoms: C_20  and  C_25
REMARK   10  A    between atoms: C_28  and  C_31
REMARK   11  A    between atoms: C_32  and  O_34
REMARK   12  A    between atoms: O_34  and  C_35
REMARK                            x       y       z     vdW  Elec       q    Type
REMARK                         _______ _______ _______ _____ _____    ______ ____
ROOT
ATOM      1  C   UNL     1       0.929   3.050   1.454  0.00  0.00    +0.155 A 
ATOM      2  C   UNL     1      -0.380   3.391   1.197  0.00  0.00    +0.065 A 
ATOM      3  C   UNL     1      -0.919   2.378   0.271  0.00  0.00    +0.024 A 
ATOM      4  C   UNL     1      -2.178   2.347  -0.295  0.00  0.00    +0.019 C 
ATOM      5  C   UNL     1       0.167   1.411   0.080  0.00  0.00    +0.079 A 
ATOM      6  C   UNL     1       0.105   0.216  -0.613  0.00  0.00    +0.118 C 
ATOM      7  S   UNL     1       1.543  -0.816  -0.597  0.00  0.00    -0.099 S 
ATOM      8  C   UNL     1       2.898   0.374  -0.383  0.00  0.00    +0.170 C 
ATOM      9  C   UNL     1       2.526   1.379   0.674  0.00  0.00    +0.250 C 
ATOM     10  O   UNL     1       3.359   1.729   1.483  0.00  0.00    -0.271 OA
ATOM     11  N   UNL     1       1.283   1.899   0.740  0.00  0.00    -0.270 N 
ENDROOT
BRANCH   4  12
ATOM     12  C   UNL     1      -3.082   3.490  -0.134  0.00  0.00    -0.024 A 
ATOM     13  C   UNL     1      -4.434   3.281   0.172  0.00  0.00    +0.008 A 
ATOM     14  C   UNL     1      -5.276   4.362   0.326  0.00  0.00    +0.004 A 
ATOM     15  C   UNL     1      -4.792   5.649   0.169  0.00  0.00    -0.050 A 
ATOM     16  C   UNL     1      -3.459   5.865  -0.138  0.00  0.00    +0.004 A 
ATOM     17  C   UNL     1      -2.602   4.797  -0.291  0.00  0.00    +0.008 A 
ATOM     18  C   UNL     1      -5.722   6.824   0.334  0.00  0.00    +0.044 C 
ENDBRANCH   4  12
BRANCH   8  19
ATOM     19  C   UNL     1       3.151   1.087  -1.686  0.00  0.00    -0.025 A 
ATOM     20  C   UNL     1       2.143   1.825  -2.277  0.00  0.00    +0.005 A 
ATOM     21  C   UNL     1       2.376   2.483  -3.470  0.00  0.00    +0.003 A 
ATOM     22  C   UNL     1       3.615   2.395  -4.077  0.00  0.00    -0.050 A 
ATOM     23  C   UNL     1       4.622   1.653  -3.489  0.00  0.00    +0.003 A 
ATOM     24  C   UNL     1       4.390   0.999  -2.293  0.00  0.00    +0.005 A 
ATOM     25  C   UNL     1       3.868   3.108  -5.380  0.00  0.00    +0.044 C 
ENDBRANCH   8  19
BRANCH   2  26
ATOM     26  N   UNL     1      -1.060   4.480   1.709  0.00  0.00    -0.356 N 
ATOM     27  H   UNL     1      -2.110   4.653   1.431  0.00  0.00    +0.142 HD
ATOM     28  H   UNL     1      -0.552   5.173   2.396  0.00  0.00    +0.142 HD
ENDBRANCH   2  26
BRANCH   1  29
ATOM     29  C   UNL     1       1.792   3.760   2.318  0.00  0.00    +0.358 C 
ATOM     30  O   UNL     1       2.955   3.939   2.004  0.00  0.00    -0.243 OA
BRANCH  29  31
ATOM     31  O   UNL     1       1.328   4.241   3.491  0.00  0.00    -0.460 OA
BRANCH  31  33
ATOM     32  C   UNL     1       1.553   5.414   5.592  0.00  0.00    +0.048 C 
ATOM     33  C   UNL     1       2.256   4.949   4.315  0.00  0.00    +0.229 C 
ENDBRANCH  31  33
ENDBRANCH  29  31
ENDBRANCH   1  29
BRANCH   6  34
ATOM     34  C   UNL     1      -1.064  -0.168  -1.310  0.00  0.00    +0.347 C 
ATOM     35  O   UNL     1      -1.883  -0.891  -0.773  0.00  0.00    -0.244 OA
BRANCH  34  36
ATOM     36  O   UNL     1      -1.273   0.268  -2.571  0.00  0.00    -0.464 OA
ATOM     37  C   UNL     1      -2.475  -0.159  -3.215  0.00  0.00    +0.280 C 
ENDBRANCH  34  36
ENDBRANCH   6  34
TORSDOF 8
