REMARK  Name = ZINC39685224
REMARK  8 active torsions:
REMARK  status: ('A' for Active; 'I' for Inactive)
REMARK    1  A    between atoms: C_1  and  C_2
REMARK    2  A    between atoms: C_7  and  C_8
REMARK    3  A    between atoms: C_8  and  C_9
REMARK    4  A    between atoms: C_13  and  C_22
REMARK    5  A    between atoms: N_24  and  C_25
REMARK    6  A    between atoms: C_25  and  C_26
REMARK    7  A    between atoms: C_26  and  O_27
REMARK    8  A    between atoms: O_27  and  C_28
REMARK                            x       y       z     vdW  Elec       q    Type
REMARK                         _______ _______ _______ _____ _____    ______ ____
ROOT
ATOM      1  C   UNL     1      -1.107   0.283   2.988  0.00  0.00    +0.220 C 
ATOM      2  O   UNL     1      -1.963  -0.120   2.229  0.00  0.00    -0.275 OA
ATOM      3  N   UNL     1      -1.455   0.984   4.085  0.00  0.00    -0.300 N 
ATOM      4  C   UNL     1      -0.560   1.559   5.117  0.00  0.00    +0.121 C 
ATOM      5  C   UNL     1      -1.189   2.928   5.460  0.00  0.00    +0.100 C 
ATOM      6  C   UNL     1      -2.672   2.785   5.077  0.00  0.00    -0.004 C 
ATOM      7  C   UNL     1      -2.819   1.358   4.530  0.00  0.00    +0.115 C 
ATOM      8  C   UNL     1      -3.556   2.975   6.306  0.00  0.00    -0.010 C 
ATOM      9  C   UNL     1      -5.027   2.886   5.889  0.00  0.00    -0.082 C 
ATOM     10  N   UNL     1      -5.317   3.920   4.889  0.00  0.00    +0.379 N 
ATOM     11  C   UNL     1      -4.530   3.676   3.674  0.00  0.00    -0.082 C 
ATOM     12  C   UNL     1      -3.038   3.798   3.997  0.00  0.00    -0.010 C 
ATOM     13  H   UNL     1      -6.300   3.900   4.661  0.00  0.00    -0.086 HD
ATOM     14  H   UNL     1      -5.081   4.826   5.264  0.00  0.00    -0.086 HD
ENDROOT
BRANCH   5  15
ATOM     15  C   UNL     1      -0.539   4.022   4.652  0.00  0.00    +0.218 C 
ATOM     16  O   UNL     1      -0.094   3.779   3.551  0.00  0.00    -0.275 OA
ATOM     17  N   UNL     1      -0.453   5.269   5.154  0.00  0.00    -0.312 N 
ATOM     18  H   UNL     1      -0.809   5.464   6.035  0.00  0.00    +0.149 HD
BRANCH  17  19
ATOM     19  C   UNL     1       0.179   6.333   4.369  0.00  0.00    +0.145 C 
BRANCH  19  20
ATOM     20  C   UNL     1       0.146   7.641   5.162  0.00  0.00    +0.248 C 
BRANCH  20  21
ATOM     21  O   UNL     1       0.952   7.507   6.335  0.00  0.00    -0.488 OA
BRANCH  21  22
ATOM     22  C   UNL     1       1.032   8.587   7.156  0.00  0.00    +0.156 A 
ATOM     23  C   UNL     1       0.344   9.750   6.843  0.00  0.00    +0.048 A 
ATOM     24  C   UNL     1       0.426  10.847   7.678  0.00  0.00    +0.004 A 
ATOM     25  C   UNL     1       1.193  10.788   8.827  0.00  0.00    +0.003 A 
ATOM     26  C   UNL     1       1.881   9.631   9.143  0.00  0.00    +0.042 A 
ATOM     27  C   UNL     1       1.797   8.527   8.313  0.00  0.00    +0.165 A 
ATOM     28  F   UNL     1       2.464   7.394   8.625  0.00  0.00    -0.202 F 
ENDBRANCH  21  22
ENDBRANCH  20  21
ENDBRANCH  19  20
ENDBRANCH  17  19
ENDBRANCH   5  15
BRANCH   1  29
ATOM     29  C   UNL     1       0.345   0.001   2.703  0.00  0.00    +0.131 C 
BRANCH  29  36
ATOM     30  C   UNL     1       0.397   1.363   0.155  0.00  0.00    +0.044 C 
ATOM     31  C   UNL     1       0.487  -0.140   0.208  0.00  0.00    -0.047 A 
ATOM     32  C   UNL     1       0.600  -0.867  -0.963  0.00  0.00    +0.003 A 
ATOM     33  C   UNL     1       0.683  -2.246  -0.914  0.00  0.00    +0.000 A 
ATOM     34  C   UNL     1       0.653  -2.898   0.304  0.00  0.00    +0.000 A 
ATOM     35  C   UNL     1       0.541  -2.171   1.475  0.00  0.00    +0.004 A 
ATOM     36  C   UNL     1       0.462  -0.792   1.427  0.00  0.00    -0.036 A 
ENDBRANCH  29  36
ENDBRANCH   1  29
TORSDOF 7
