REMARK  Name = ZINC26956934
REMARK  7 active torsions:
REMARK  status: ('A' for Active; 'I' for Inactive)
REMARK    1  A    between atoms: C_1  and  C_2
REMARK    2  A    between atoms: C_2  and  C_3
REMARK    3  A    between atoms: C_2  and  N_4
REMARK    4  A    between atoms: C_9  and  C_18
REMARK    5  A    between atoms: C_11  and  C_13
REMARK    6  A    between atoms: N_20  and  C_21
REMARK    7  A    between atoms: N_20  and  C_22
REMARK                            x       y       z     vdW  Elec       q    Type
REMARK                         _______ _______ _______ _____ _____    ______ ____
ROOT
ATOM      1  N   UNL     1       5.750   3.537  -0.712  0.00  0.00    -0.244 N 
ATOM      2  C   UNL     1       4.944   2.428  -0.694  0.00  0.00    +0.160 A 
ATOM      3  C   UNL     1       3.634   2.893  -0.455  0.00  0.00    +0.051 A 
ATOM      4  C   UNL     1       3.707   4.297  -0.340  0.00  0.00    +0.145 A 
ATOM      5  N   UNL     1       4.947   4.663  -0.498  0.00  0.00    -0.177 NA
ATOM      6  C   UNL     1       2.575   1.959  -0.376  0.00  0.00    +0.051 A 
ATOM      7  C   UNL     1       2.876   0.614  -0.550  0.00  0.00    +0.045 A 
ATOM      8  C   UNL     1       4.204   0.235  -0.789  0.00  0.00    +0.109 A 
ATOM      9  N   UNL     1       5.176   1.134  -0.852  0.00  0.00    -0.224 NA
ENDROOT
BRANCH   8  10
ATOM     10  C   UNL     1       4.526  -1.193  -0.974  0.00  0.00    +0.153 A 
ATOM     11  C   UNL     1       5.762  -1.708  -1.217  0.00  0.00    +0.051 A 
ATOM     12  C   UNL     1       5.607  -3.103  -1.319  0.00  0.00    +0.042 A 
ATOM     13  C   UNL     1       4.296  -3.369  -1.145  0.00  0.00    +0.196 A 
ATOM     14  O   UNL     1       3.647  -2.213  -0.936  0.00  0.00    -0.461 OA
ENDBRANCH   8  10
BRANCH   6  15
ATOM     15  C   UNL     1       1.187   2.401  -0.122  0.00  0.00    +0.247 C 
ATOM     16  O   UNL     1       0.959   3.220   0.748  0.00  0.00    -0.270 OA
ATOM     17  N   UNL     1       0.174   1.897  -0.854  0.00  0.00    -0.298 N 
ATOM     18  C   UNL     1       0.433   0.837  -1.832  0.00  0.00    +0.132 C 
BRANCH  17  19
ATOM     19  C   UNL     1      -1.186   2.413  -0.677  0.00  0.00    +0.076 C 
ATOM     20  C   UNL     1      -2.111   1.274  -0.242  0.00  0.00    +0.022 C 
ATOM     21  C   UNL     1      -3.531   1.813  -0.058  0.00  0.00    +0.002 C 
ATOM     22  C   UNL     1      -4.030   2.400  -1.380  0.00  0.00    +0.000 C 
ATOM     23  C   UNL     1      -3.105   3.538  -1.814  0.00  0.00    +0.002 C 
ATOM     24  C   UNL     1      -1.685   2.999  -1.999  0.00  0.00    +0.022 C 
ENDBRANCH  17  19
ENDBRANCH   6  15
BRANCH   1  26
ATOM     25  C   UNL     1       7.522   4.379  -2.172  0.00  0.00    +0.032 C 
ATOM     26  C   UNL     1       7.198   3.543  -0.932  0.00  0.00    +0.103 C 
ATOM     27  C   UNL     1       7.897   4.148   0.287  0.00  0.00    +0.032 C 
ENDBRANCH   1  26
TORSDOF 4
