REMARK  Name = ZINC14475915
REMARK  9 active torsions:
REMARK  status: ('A' for Active; 'I' for Inactive)
REMARK    1  A    between atoms: C_2  and  C_3
REMARK    2  A    between atoms: C_3  and  N_4
REMARK    3  A    between atoms: N_4  and  C_5
REMARK    4  A    between atoms: N_4  and  S_8
REMARK    5  A    between atoms: C_5  and  C_6
REMARK    6  A    between atoms: S_8  and  C_11
REMARK    7  A    between atoms: C_24  and  C_27
REMARK    8  A    between atoms: C_29  and  N_34
REMARK    9  A    between atoms: C_32  and  O_33
REMARK                            x       y       z     vdW  Elec       q    Type
REMARK                         _______ _______ _______ _____ _____    ______ ____
ROOT
ATOM      1  C   UNL     1       3.035   5.030  -1.092  0.00  0.00    +0.106 A 
ATOM      2  C   UNL     1       2.153   5.924  -0.513  0.00  0.00    +0.030 A 
ATOM      3  C   UNL     1       1.075   5.463   0.213  0.00  0.00    +0.025 A 
ATOM      4  C   UNL     1       0.866   4.098   0.368  0.00  0.00    +0.031 A 
ATOM      5  C   UNL     1       1.769   3.199  -0.210  0.00  0.00    -0.018 A 
ATOM      6  C   UNL     1       2.840   3.670  -0.939  0.00  0.00    +0.034 A 
ATOM      7  C   UNL     1       1.523   1.755  -0.003  0.00  0.00    +0.049 C 
ATOM      8  C   UNL     1       2.008   0.730  -0.963  0.00  0.00    -0.023 C 
ATOM      9  C   UNL     1       1.159  -0.291  -0.957  0.00  0.00    -0.030 C 
ATOM     10  C   UNL     1       0.002  -0.004   0.002  0.00  0.00    +0.033 C 
ATOM     11  C   UNL     1      -0.019   1.530   0.011  0.00  0.00    +0.029 C 
ATOM     12  C   UNL     1      -0.516   2.209   1.274  0.00  0.00    +0.108 C 
ATOM     13  N   UNL     1      -0.255   3.652   1.080  0.00  0.00    -0.336 N 
ATOM     14  H   UNL     1      -0.948   4.398   1.498  0.00  0.00    +0.147 HD
ENDROOT
BRANCH  12  15
ATOM     15  C   UNL     1      -1.993   1.966   1.449  0.00  0.00    +0.017 A 
ATOM     16  C   UNL     1      -2.905   2.901   0.999  0.00  0.00    +0.041 A 
ATOM     17  C   UNL     1      -4.261   2.676   1.155  0.00  0.00    +0.127 A 
ATOM     18  C   UNL     1      -4.706   1.521   1.771  0.00  0.00    +0.036 A 
ATOM     19  C   UNL     1      -3.797   0.587   2.228  0.00  0.00    +0.048 A 
ATOM     20  C   UNL     1      -2.437   0.807   2.068  0.00  0.00    +0.122 A 
BRANCH  17  21
ATOM     21  N   UNL     1      -5.236   3.676   0.666  0.00  0.00    +0.056 N 
ATOM     22  O   UNL     1      -6.430   3.482   0.808  0.00  0.00    -0.126 OA
ATOM     23  O   UNL     1      -4.845   4.694   0.123  0.00  0.00    -0.126 OA
ENDBRANCH  17  21
BRANCH  20  24
ATOM     24  O   UNL     1      -1.541  -0.111   2.517  0.00  0.00    -0.506 OA
ATOM     25  H   UNL     1      -1.894  -1.030   3.007  0.00  0.00    +0.292 HD
ENDBRANCH  20  24
ENDBRANCH  12  15
BRANCH   1  26
ATOM     26  S   UNL     1       4.407   5.624  -2.025  0.00  0.00    +0.061 S 
ATOM     27  O   UNL     1       4.772   4.581  -2.918  0.00  0.00    -0.153 OA
ATOM     28  O   UNL     1       4.058   6.926  -2.476  0.00  0.00    -0.153 OA
BRANCH  26  29
ATOM     29  N   UNL     1       5.671   5.810  -0.972  0.00  0.00    -0.169 NA
BRANCH  29  30
ATOM     30  C   UNL     1       6.594   4.699  -0.732  0.00  0.00    +0.136 C 
BRANCH  30  32
ATOM     31  C   UNL     1       8.999   4.853  -1.122  0.00  0.00    +0.005 C 
ATOM     32  C   UNL     1       7.794   4.838  -1.633  0.00  0.00    -0.018 C 
ENDBRANCH  30  32
ENDBRANCH  29  30
BRANCH  29  33
ATOM     33  C   UNL     1       5.867   7.087  -0.281  0.00  0.00    +0.136 C 
BRANCH  33  34
ATOM     34  C   UNL     1       5.214   7.029   1.076  0.00  0.00    -0.018 C 
ATOM     35  C   UNL     1       5.914   7.294   2.151  0.00  0.00    +0.005 C 
ENDBRANCH  33  34
ENDBRANCH  29  33
ENDBRANCH  26  29
ENDBRANCH   1  26
TORSDOF 9
