REMARK  Name = ZINC09650590
REMARK  7 active torsions:
REMARK  status: ('A' for Active; 'I' for Inactive)
REMARK    1  A    between atoms: C_1  and  S_2
REMARK    2  A    between atoms: S_2  and  C_5
REMARK    3  A    between atoms: C_8  and  C_11
REMARK    4  A    between atoms: C_14  and  N_17
REMARK    5  A    between atoms: N_17  and  S_18
REMARK    6  A    between atoms: S_18  and  C_21
REMARK    7  A    between atoms: C_24  and  C_27
REMARK                            x       y       z     vdW  Elec       q    Type
REMARK                         _______ _______ _______ _____ _____    ______ ____
ROOT
ATOM      1  C   UNL     1      -2.770   2.773   5.099  0.00  0.00    +0.002 A 
ATOM      2  C   UNL     1      -2.515   3.932   5.831  0.00  0.00    +0.012 A 
ATOM      3  C   UNL     1      -3.170   4.150   7.024  0.00  0.00    +0.025 A 
ATOM      4  C   UNL     1      -4.076   3.210   7.503  0.00  0.00    +0.048 A 
ATOM      5  C   UNL     1      -4.327   2.051   6.778  0.00  0.00    +0.025 A 
ATOM      6  C   UNL     1      -3.678   1.831   5.581  0.00  0.00    +0.012 A 
ENDROOT
BRANCH   1  10
ATOM      7  C   UNL     1      -0.849   2.030   1.467  0.00  0.00    +0.198 A 
ATOM      8  C   UNL     1      -0.530   3.212   2.122  0.00  0.00    +0.051 A 
ATOM      9  C   UNL     1      -1.160   3.481   3.326  0.00  0.00    +0.033 A 
ATOM     10  C   UNL     1      -2.071   2.539   3.812  0.00  0.00    +0.093 A 
ATOM     11  N   UNL     1      -2.308   1.434   3.115  0.00  0.00    -0.147 NA
ATOM     12  N   UNL     1      -1.723   1.196   1.998  0.00  0.00    -0.130 NA
BRANCH   7  14
ATOM     13  C   UNL     1      -1.176   2.352  -1.330  0.00  0.00    +0.202 C 
ATOM     14  S   UNL     1      -0.082   1.641  -0.070  0.00  0.00    +0.013 S 
ATOM     15  O   UNL     1      -0.112   0.222  -0.141  0.00  0.00    -0.168 OA
ATOM     16  O   UNL     1       1.155   2.339  -0.046  0.00  0.00    -0.168 OA
ENDBRANCH   7  14
ENDBRANCH   1  10
BRANCH   4  17
ATOM     17  N   UNL     1      -4.733   3.430   8.713  0.00  0.00    -0.216 N 
ATOM     18  H   UNL     1      -5.690   3.282   8.780  0.00  0.00    +0.174 HD
BRANCH  17  19
ATOM     19  S   UNL     1      -3.881   3.944  10.037  0.00  0.00    +0.072 S 
ATOM     20  O   UNL     1      -3.148   5.091   9.628  0.00  0.00    -0.150 OA
ATOM     21  O   UNL     1      -4.797   3.973  11.123  0.00  0.00    -0.150 OA
BRANCH  19  22
ATOM     22  C   UNL     1      -2.696   2.696  10.411  0.00  0.00    +0.109 A 
ATOM     23  C   UNL     1      -3.054   1.615  11.195  0.00  0.00    +0.029 A 
ATOM     24  C   UNL     1      -2.124   0.633  11.485  0.00  0.00    +0.014 A 
ATOM     25  C   UNL     1      -0.835   0.737  10.998  0.00  0.00    +0.055 A 
ATOM     26  C   UNL     1      -0.476   1.820  10.217  0.00  0.00    +0.014 A 
ATOM     27  C   UNL     1      -1.406   2.800   9.924  0.00  0.00    +0.029 A 
BRANCH  25  28
ATOM     28  C   UNL     1       0.179  -0.331  11.317  0.00  0.00    +0.417 C 
ATOM     29  F   UNL     1       0.849   0.001  12.500  0.00  0.00    -0.166 F 
ATOM     30  F   UNL     1      -0.472  -1.559  11.479  0.00  0.00    -0.166 F 
ATOM     31  F   UNL     1       1.102  -0.427  10.270  0.00  0.00    -0.166 F 
ENDBRANCH  25  28
ENDBRANCH  19  22
ENDBRANCH  17  19
ENDBRANCH   4  17
TORSDOF 6
