REMARK  Name = ZINC14475854
REMARK  9 active torsions:
REMARK  status: ('A' for Active; 'I' for Inactive)
REMARK    1  A    between atoms: C_1  and  C_2
REMARK    2  A    between atoms: C_2  and  N_3
REMARK    3  A    between atoms: N_3  and  C_4
REMARK    4  A    between atoms: N_3  and  S_6
REMARK    5  A    between atoms: C_4  and  C_5
REMARK    6  A    between atoms: S_6  and  C_9
REMARK    7  A    between atoms: C_22  and  C_25
REMARK    8  A    between atoms: C_27  and  N_32
REMARK    9  A    between atoms: C_30  and  O_31
REMARK                            x       y       z     vdW  Elec       q    Type
REMARK                         _______ _______ _______ _____ _____    ______ ____
ROOT
ATOM      1  C   UNL     1       3.218   0.606   1.484  0.00  0.00    +0.106 A 
ATOM      2  C   UNL     1       3.568   1.488   0.478  0.00  0.00    +0.030 A 
ATOM      3  C   UNL     1       4.264   2.641   0.778  0.00  0.00    +0.025 A 
ATOM      4  C   UNL     1       4.621   2.924   2.091  0.00  0.00    +0.031 A 
ATOM      5  C   UNL     1       4.273   2.021   3.102  0.00  0.00    -0.018 A 
ATOM      6  C   UNL     1       3.565   0.879   2.794  0.00  0.00    +0.034 A 
ATOM      7  C   UNL     1       4.706   2.340   4.480  0.00  0.00    +0.049 C 
ATOM      8  C   UNL     1       3.963   1.850   5.669  0.00  0.00    -0.023 C 
ATOM      9  C   UNL     1       4.089   2.741   6.645  0.00  0.00    -0.030 C 
ATOM     10  C   UNL     1       4.915   3.934   6.160  0.00  0.00    +0.033 C 
ATOM     11  C   UNL     1       4.639   3.886   4.655  0.00  0.00    +0.029 C 
ATOM     12  C   UNL     1       5.726   4.444   3.753  0.00  0.00    +0.108 C 
ATOM     13  N   UNL     1       5.309   4.110   2.374  0.00  0.00    -0.336 N 
ATOM     14  H   UNL     1       5.516   4.724   1.652  0.00  0.00    +0.147 HD
ENDROOT
BRANCH  12  15
ATOM     15  C   UNL     1       5.828   5.938   3.922  0.00  0.00    +0.017 A 
ATOM     16  C   UNL     1       5.146   6.779   3.064  0.00  0.00    +0.041 A 
ATOM     17  C   UNL     1       5.239   8.149   3.218  0.00  0.00    +0.127 A 
ATOM     18  C   UNL     1       6.014   8.682   4.232  0.00  0.00    +0.036 A 
ATOM     19  C   UNL     1       6.697   7.846   5.093  0.00  0.00    +0.048 A 
ATOM     20  C   UNL     1       6.601   6.469   4.944  0.00  0.00    +0.122 A 
BRANCH  17  21
ATOM     21  N   UNL     1       4.509   9.048   2.297  0.00  0.00    +0.056 N 
ATOM     22  O   UNL     1       3.831   8.583   1.409  0.00  0.00    -0.126 OA
ATOM     23  O   UNL     1       4.589  10.247   2.431  0.00  0.00    -0.126 OA
ENDBRANCH  17  21
BRANCH  20  24
ATOM     24  O   UNL     1       7.268   5.644   5.793  0.00  0.00    -0.506 OA
ATOM     25  H   UNL     1       8.162   5.419   5.501  0.00  0.00    +0.292 HD
ENDBRANCH  20  24
ENDBRANCH  12  15
BRANCH   1  26
ATOM     26  S   UNL     1       2.322  -0.861   1.097  0.00  0.00    +0.061 S 
ATOM     27  O   UNL     1       2.586  -1.786   2.143  0.00  0.00    -0.153 OA
ATOM     28  O   UNL     1       2.594  -1.155  -0.266  0.00  0.00    -0.153 OA
BRANCH  26  29
ATOM     29  N   UNL     1       0.711  -0.489   1.189  0.00  0.00    -0.177 NA
BRANCH  29  31
ATOM     30  C   UNL     1      -0.019   1.526   0.010  0.00  0.00    +0.022 C 
ATOM     31  C   UNL     1       0.002  -0.004   0.002  0.00  0.00    +0.106 C 
ENDBRANCH  29  31
BRANCH  29  32
ATOM     32  C   UNL     1      -0.006  -0.646   2.457  0.00  0.00    +0.106 C 
ATOM     33  C   UNL     1      -0.694  -2.013   2.489  0.00  0.00    +0.022 C 
ENDBRANCH  29  32
ENDBRANCH  26  29
ENDBRANCH   1  26
TORSDOF 7
