REMARK  Name = ZINC39396241
REMARK  7 active torsions:
REMARK  status: ('A' for Active; 'I' for Inactive)
REMARK    1  A    between atoms: C_1  and  C_2
REMARK    2  A    between atoms: C_5  and  S_8
REMARK    3  A    between atoms: S_8  and  C_9
REMARK    4  A    between atoms: C_9  and  C_10
REMARK    5  A    between atoms: C_14  and  S_16
REMARK    6  A    between atoms: S_16  and  C_17
REMARK    7  A    between atoms: C_19  and  C_29
REMARK                            x       y       z     vdW  Elec       q    Type
REMARK                         _______ _______ _______ _____ _____    ______ ____
ROOT
ATOM      1  S   UNL     1      -2.505  -9.360   1.415  0.00  0.00    -0.070 S 
ENDROOT
BRANCH   1   2
ATOM      2  C   UNL     1      -3.710  -8.071   0.994  0.00  0.00    +0.171 C 
ATOM      3  C   UNL     1      -4.969  -8.755   0.496  0.00  0.00    -0.009 C 
ATOM      4  C   UNL     1      -6.154  -8.481   1.184  0.00  0.00    +0.001 A 
ATOM      5  C   UNL     1      -7.371  -9.075   0.788  0.00  0.00    +0.010 A 
ATOM      6  C   UNL     1      -8.510  -8.790   1.475  0.00  0.00    +0.001 A 
ATOM      7  C   UNL     1      -8.502  -7.923   2.565  0.00  0.00    +0.002 A 
ATOM      8  C   UNL     1      -7.358  -7.320   2.994  0.00  0.00    +0.024 A 
ATOM      9  C   UNL     1      -6.143  -7.567   2.331  0.00  0.00    +0.041 A 
ATOM     10  N   UNL     1      -5.021  -6.974   2.754  0.00  0.00    -0.284 N 
ATOM     11  C   UNL     1      -3.845  -7.154   2.188  0.00  0.00    +0.235 C 
ATOM     12  O   UNL     1      -2.865  -6.581   2.628  0.00  0.00    -0.274 OA
ATOM     13  H   UNL     1      -5.077  -6.379   3.518  0.00  0.00    +0.155 HD
BRANCH   3  14
ATOM     14  C   UNL     1      -4.944  -9.633  -0.617  0.00  0.00    -0.020 A 
ATOM     15  C   UNL     1      -5.260 -10.992  -0.453  0.00  0.00    +0.008 A 
ATOM     16  C   UNL     1      -5.233 -11.836  -1.541  0.00  0.00    +0.001 A 
ATOM     17  C   UNL     1      -4.896 -11.349  -2.793  0.00  0.00    +0.000 A 
ATOM     18  C   UNL     1      -4.584 -10.011  -2.966  0.00  0.00    +0.001 A 
ATOM     19  C   UNL     1      -4.610  -9.148  -1.892  0.00  0.00    +0.008 A 
ENDBRANCH   3  14
ENDBRANCH   1   2
BRANCH   1  24
ATOM     20  C   UNL     1       0.087  -6.443   1.839  0.00  0.00    +0.059 A 
ATOM     21  C   UNL     1       1.247  -7.071   2.193  0.00  0.00    +0.094 A 
ATOM     22  C   UNL     1       1.253  -8.471   2.313  0.00  0.00    +0.252 A 
ATOM     23  N   UNL     1       0.110  -9.148   2.075  0.00  0.00    -0.302 N 
ATOM     24  C   UNL     1      -1.018  -8.469   1.725  0.00  0.00    +0.170 A 
ATOM     25  N   UNL     1      -1.016  -7.154   1.620  0.00  0.00    -0.227 NA
ATOM     26  O   UNL     1       2.272  -9.064   2.627  0.00  0.00    -0.268 OA
ATOM     27  H   UNL     1       0.091 -10.115   2.151  0.00  0.00    +0.171 HD
BRANCH  20  28
ATOM     28  C   UNL     1       0.055  -4.943   1.704  0.00  0.00    +0.130 C 
BRANCH  28  29
ATOM     29  S   UNL     1       0.026  -4.495  -0.054  0.00  0.00    -0.119 S 
BRANCH  29  34
ATOM     30  C   UNL     1      -0.099   1.540  -0.021  0.00  0.00    +0.044 C 
ATOM     31  C   UNL     1      -0.068   0.033  -0.029  0.00  0.00    -0.050 A 
ATOM     32  C   UNL     1      -0.066  -0.650  -1.231  0.00  0.00    +0.004 A 
ATOM     33  C   UNL     1      -0.037  -2.030  -1.243  0.00  0.00    +0.015 A 
ATOM     34  C   UNL     1      -0.010  -2.733  -0.044  0.00  0.00    +0.008 A 
ATOM     35  C   UNL     1      -0.011  -2.043   1.162  0.00  0.00    +0.015 A 
ATOM     36  C   UNL     1      -0.034  -0.662   1.166  0.00  0.00    +0.004 A 
ENDBRANCH  29  34
ENDBRANCH  28  29
ENDBRANCH  20  28
ENDBRANCH   1  24
TORSDOF 6
