REMARK  Name = ZINC63009612
REMARK  4 active torsions:
REMARK  status: ('A' for Active; 'I' for Inactive)
REMARK    1  A    between atoms: C_3  and  N_11
REMARK    2  A    between atoms: C_6  and  C_7
REMARK    3  A    between atoms: N_14  and  C_15
REMARK    4  A    between atoms: C_21  and  O_23
REMARK                            x       y       z     vdW  Elec       q    Type
REMARK                         _______ _______ _______ _____ _____    ______ ____
ROOT
ATOM      1  N   UNL     1       3.577   2.137  -0.021  0.00  0.00    -0.267 N 
ATOM      2  C   UNL     1       3.557   3.481  -0.115  0.00  0.00    +0.304 C 
ATOM      3  O   UNL     1       2.496   4.076  -0.102  0.00  0.00    -0.252 OA
ATOM      4  N   UNL     1       4.712   4.167  -0.224  0.00  0.00    -0.294 N 
ATOM      5  H   UNL     1       4.424   1.668   0.035  0.00  0.00    +0.156 HD
ATOM      6  H   UNL     1       5.558   3.693  -0.234  0.00  0.00    +0.151 HD
ENDROOT
BRANCH   1   9
ATOM      7  C   UNL     1       0.076   1.256   0.639  0.00  0.00    +0.017 A 
ATOM      8  C   UNL     1       1.259   1.960   0.619  0.00  0.00    +0.027 A 
ATOM      9  C   UNL     1       2.381   1.421  -0.003  0.00  0.00    +0.070 A 
ATOM     10  C   UNL     1       2.311   0.168  -0.609  0.00  0.00    +0.145 A 
ATOM     11  C   UNL     1       1.131  -0.542  -0.593  0.00  0.00    +0.055 A 
ATOM     12  C   UNL     1       0.001  -0.002   0.033  0.00  0.00    +0.066 A 
ATOM     13  F   UNL     1       3.403  -0.352  -1.212  0.00  0.00    -0.204 F 
BRANCH  12  14
ATOM     14  C   UNL     1      -1.263  -0.757   0.052  0.00  0.00    +0.387 C 
ATOM     15  O   UNL     1      -2.249  -0.283   0.599  0.00  0.00    -0.241 OA
ATOM     16  O   UNL     1      -1.326  -1.857  -0.478  0.00  0.00    -0.241 OA
ENDBRANCH  12  14
ENDBRANCH   1   9
BRANCH   4  17
ATOM     17  C   UNL     1       4.689   5.628  -0.326  0.00  0.00    +0.103 C 
ATOM     18  C   UNL     1       4.481   6.034  -1.787  0.00  0.00    +0.025 C 
ATOM     19  C   UNL     1       4.458   7.560  -1.894  0.00  0.00    +0.002 C 
ATOM     20  C   UNL     1       5.788   8.127  -1.391  0.00  0.00    +0.003 C 
ATOM     21  C   UNL     1       5.995   7.721   0.069  0.00  0.00    +0.033 C 
ATOM     22  C   UNL     1       6.019   6.195   0.176  0.00  0.00    +0.135 C 
BRANCH  22  23
ATOM     23  O   UNL     1       6.213   5.816   1.540  0.00  0.00    -0.390 OA
ATOM     24  H   UNL     1       7.038   6.142   1.925  0.00  0.00    +0.210 HD
ENDBRANCH  22  23
ENDBRANCH   4  17
TORSDOF 4
