REMARK  Name = ZINC23683898
REMARK  14 active torsions:
REMARK  status: ('A' for Active; 'I' for Inactive)
REMARK    1  A    between atoms: C_1  and  C_2
REMARK    2  A    between atoms: C_6  and  O_8
REMARK    3  A    between atoms: O_8  and  C_9
REMARK    4  A    between atoms: C_9  and  C_11
REMARK    5  A    between atoms: C_9  and  C_12
REMARK    6  A    between atoms: N_14  and  C_15
REMARK    7  A    between atoms: N_14  and  C_20
REMARK    8  A    between atoms: C_15  and  C_16
REMARK    9  A    between atoms: C_16  and  C_17
REMARK   10  A    between atoms: C_17  and  C_18
REMARK   11  A    between atoms: C_17  and  C_19
REMARK   12  A    between atoms: C_21  and  N_36
REMARK   13  A    between atoms: N_22  and  C_29
REMARK   14  A    between atoms: C_29  and  C_30
REMARK                            x       y       z     vdW  Elec       q    Type
REMARK                         _______ _______ _______ _____ _____    ______ ____
ROOT
ATOM      1  C   UNL     1      -5.814   2.080  -0.982  0.00  0.00    +0.140 A 
ATOM      2  C   UNL     1      -6.628   1.364  -1.836  0.00  0.00    +0.128 A 
ATOM      3  N   UNL     1      -7.684   1.999  -2.446  0.00  0.00    -0.276 N 
ATOM      4  C   UNL     1      -7.915   3.306  -2.222  0.00  0.00    +0.331 A 
ATOM      5  O   UNL     1      -8.851   3.850  -2.775  0.00  0.00    -0.246 OA
ATOM      6  N   UNL     1      -7.129   4.020  -1.397  0.00  0.00    -0.273 N 
ATOM      7  H   UNL     1      -7.336   5.088  -1.228  0.00  0.00    +0.173 HD
ATOM      8  C   UNL     1      -6.085   3.445  -0.770  0.00  0.00    +0.277 A 
ATOM      9  O   UNL     1      -5.379   4.102  -0.024  0.00  0.00    -0.266 OA
ENDROOT
BRANCH   1  12
ATOM     10  C   UNL     1      -3.462   1.805  -0.656  0.00  0.00    +0.260 C 
ATOM     11  O   UNL     1      -2.525   1.212  -0.163  0.00  0.00    -0.271 OA
ATOM     12  N   UNL     1      -4.725   1.456  -0.337  0.00  0.00    -0.261 N 
BRANCH  10  13
ATOM     13  C   UNL     1      -3.213   2.931  -1.627  0.00  0.00    +0.256 C 
ATOM     14  C   UNL     1      -3.568   2.472  -3.042  0.00  0.00    +0.062 C 
BRANCH  13  15
ATOM     15  O   UNL     1      -1.835   3.306  -1.578  0.00  0.00    -0.480 OA
BRANCH  15  21
ATOM     16  C   UNL     1       1.473   6.882  -1.872  0.00  0.00    +0.044 C 
ATOM     17  C   UNL     1       0.063   6.376  -2.034  0.00  0.00    -0.047 A 
ATOM     18  C   UNL     1      -0.929   7.228  -2.484  0.00  0.00    +0.003 A 
ATOM     19  C   UNL     1      -2.224   6.766  -2.632  0.00  0.00    +0.004 A 
ATOM     20  C   UNL     1      -2.530   5.453  -2.331  0.00  0.00    +0.046 A 
ATOM     21  C   UNL     1      -1.536   4.597  -1.880  0.00  0.00    +0.122 A 
ATOM     22  C   UNL     1      -0.237   5.062  -1.732  0.00  0.00    +0.049 A 
ENDBRANCH  15  21
ENDBRANCH  13  15
ENDBRANCH  10  13
BRANCH  12  23
ATOM     23  C   UNL     1      -4.967   0.429   0.680  0.00  0.00    +0.114 C 
BRANCH  23  24
ATOM     24  C   UNL     1      -5.172   1.097   2.041  0.00  0.00    +0.022 C 
BRANCH  24  25
ATOM     25  C   UNL     1      -5.324   0.022   3.119  0.00  0.00    -0.016 C 
ATOM     26  C   UNL     1      -4.016  -0.762   3.245  0.00  0.00    +0.007 C 
ATOM     27  C   UNL     1      -5.653   0.685   4.457  0.00  0.00    +0.007 C 
ENDBRANCH  24  25
ENDBRANCH  23  24
ENDBRANCH  12  23
ENDBRANCH   1  12
BRANCH   2  28
ATOM     28  N   UNL     1      -6.389   0.031  -2.069  0.00  0.00    -0.343 N 
ATOM     29  H   UNL     1      -7.042  -0.533  -2.751  0.00  0.00    +0.144 HD
ATOM     30  H   UNL     1      -5.545  -0.471  -1.574  0.00  0.00    +0.144 HD
ENDBRANCH   2  28
BRANCH   3  31
ATOM     31  C   UNL     1      -8.560   1.250  -3.351  0.00  0.00    +0.163 C 
BRANCH  31  32
ATOM     32  C   UNL     1      -8.018   1.331  -4.755  0.00  0.00    -0.028 A 
ATOM     33  C   UNL     1      -8.421   2.353  -5.594  0.00  0.00    +0.005 A 
ATOM     34  C   UNL     1      -7.920   2.429  -6.880  0.00  0.00    +0.000 A 
ATOM     35  C   UNL     1      -7.025   1.478  -7.331  0.00  0.00    +0.000 A 
ATOM     36  C   UNL     1      -6.626   0.452  -6.494  0.00  0.00    +0.000 A 
ATOM     37  C   UNL     1      -7.123   0.379  -5.206  0.00  0.00    +0.005 A 
ENDBRANCH  31  32
ENDBRANCH   3  31
TORSDOF 10
