REMARK  Name = ZINC02632992
REMARK  6 active torsions:
REMARK  status: ('A' for Active; 'I' for Inactive)
REMARK    1  A    between atoms: C_2  and  C_3
REMARK    2  A    between atoms: C_3  and  N_4
REMARK    3  A    between atoms: C_8  and  C_29
REMARK    4  A    between atoms: C_13  and  S_14
REMARK    5  A    between atoms: S_14  and  C_15
REMARK    6  A    between atoms: C_15  and  C_16
REMARK                            x       y       z     vdW  Elec       q    Type
REMARK                         _______ _______ _______ _____ _____    ______ ____
ROOT
ATOM      1  N   UNL     1      -1.318  -1.700  -1.126  0.00  0.00    -0.283 N 
ATOM      2  C   UNL     1      -1.822  -1.286  -2.303  0.00  0.00    +0.264 A 
ATOM      3  O   UNL     1      -2.254  -0.153  -2.425  0.00  0.00    -0.267 OA
ATOM      4  C   UNL     1      -1.844  -2.192  -3.408  0.00  0.00    +0.080 A 
ATOM      5  C   UNL     1      -2.333  -1.976  -4.766  0.00  0.00    +0.004 A 
ATOM      6  C   UNL     1      -2.251  -2.992  -5.657  0.00  0.00    +0.056 A 
ATOM      7  S   UNL     1      -1.505  -4.309  -4.716  0.00  0.00    -0.076 S 
ATOM      8  C   UNL     1      -1.321  -3.473  -3.161  0.00  0.00    +0.117 A 
ATOM      9  N   UNL     1      -0.838  -3.820  -1.974  0.00  0.00    -0.216 NA
ATOM     10  C   UNL     1      -0.824  -2.963  -0.973  0.00  0.00    +0.173 A 
ENDROOT
BRANCH   5  11
ATOM     11  C   UNL     1      -2.911  -0.670  -5.162  0.00  0.00    -0.017 A 
ATOM     12  C   UNL     1      -3.893  -0.071  -4.375  0.00  0.00    +0.008 A 
ATOM     13  C   UNL     1      -4.427   1.145  -4.749  0.00  0.00    +0.001 A 
ATOM     14  C   UNL     1      -3.988   1.771  -5.902  0.00  0.00    +0.000 A 
ATOM     15  C   UNL     1      -3.014   1.182  -6.687  0.00  0.00    +0.001 A 
ATOM     16  C   UNL     1      -2.469  -0.032  -6.321  0.00  0.00    +0.008 A 
ENDBRANCH   5  11
BRANCH   1  17
ATOM     17  C   UNL     1      -1.293  -0.775   0.010  0.00  0.00    +0.154 C 
BRANCH  17  19
ATOM     18  C   UNL     1      -0.016   1.306   0.009  0.00  0.00    +0.005 C 
ATOM     19  C   UNL     1       0.002  -0.004   0.002  0.00  0.00    -0.013 C 
ENDBRANCH  17  19
ENDBRANCH   1  17
BRANCH  10  20
ATOM     20  S   UNL     1      -0.167  -3.457   0.586  0.00  0.00    -0.078 S 
BRANCH  20  21
ATOM     21  C   UNL     1       0.356  -5.173   0.317  0.00  0.00    +0.173 C 
BRANCH  21  22
ATOM     22  C   UNL     1       0.945  -5.724   1.591  0.00  0.00    +0.231 C 
ATOM     23  O   UNL     1       1.006  -5.027   2.581  0.00  0.00    -0.274 OA
ATOM     24  N   UNL     1       1.404  -6.990   1.628  0.00  0.00    -0.260 N 
ATOM     25  C   UNL     1       1.347  -7.854   0.439  0.00  0.00    +0.209 C 
ATOM     26  C   UNL     1       0.911  -9.235   0.855  0.00  0.00    +0.235 C 
ATOM     27  O   UNL     1       0.304  -9.933   0.070  0.00  0.00    -0.274 OA
ATOM     28  N   UNL     1       1.187  -9.704   2.086  0.00  0.00    -0.283 N 
ATOM     29  C   UNL     1       1.842  -8.902   3.027  0.00  0.00    +0.055 A 
ATOM     30  C   UNL     1       1.956  -7.526   2.802  0.00  0.00    +0.058 A 
ATOM     31  C   UNL     1       2.599  -6.718   3.722  0.00  0.00    +0.025 A 
ATOM     32  C   UNL     1       3.138  -7.277   4.868  0.00  0.00    +0.002 A 
ATOM     33  C   UNL     1       3.034  -8.637   5.093  0.00  0.00    +0.002 A 
ATOM     34  C   UNL     1       2.381  -9.455   4.177  0.00  0.00    +0.025 A 
ATOM     35  H   UNL     1       0.929 -10.608   2.324  0.00  0.00    +0.155 HD
ENDBRANCH  21  22
ENDBRANCH  20  21
ENDBRANCH  10  20
TORSDOF 6
