REMARK  Name = ZINC32972458
REMARK  9 active torsions:
REMARK  status: ('A' for Active; 'I' for Inactive)
REMARK    1  A    between atoms: C_1  and  C_2
REMARK    2  A    between atoms: C_7  and  N_8
REMARK    3  A    between atoms: N_10  and  C_11
REMARK    4  A    between atoms: C_11  and  C_12
REMARK    5  A    between atoms: C_13  and  C_19
REMARK    6  A    between atoms: N_15  and  C_18
REMARK    7  A    between atoms: C_16  and  C_17
REMARK    8  A    between atoms: N_20  and  C_21
REMARK    9  A    between atoms: C_21  and  C_23
REMARK                            x       y       z     vdW  Elec       q    Type
REMARK                         _______ _______ _______ _____ _____    ______ ____
ROOT
ATOM      1  N   UNL     1      -1.077  -0.258   2.925  0.00  0.00    -0.328 N 
ATOM      2  C   UNL     1      -0.281  -0.774   3.907  0.00  0.00    +0.194 C 
ATOM      3  N   UNL     1       0.244   0.046   4.862  0.00  0.00    -0.353 N 
ATOM      4  N   UNL     1      -0.019  -2.072   3.932  0.00  0.00    -0.143 NA
ATOM      5  H   UNL     1       0.889  -0.300   5.498  0.00  0.00    +0.163 HD
ATOM      6  H   UNL     1      -1.975  -0.601   2.797  0.00  0.00    +0.169 HD
ENDROOT
BRANCH   1  13
ATOM      7  C   UNL     1      -2.967   1.484   1.706  0.00  0.00    +0.046 C 
ATOM      8  C   UNL     1      -1.484   1.639   1.487  0.00  0.00    -0.026 A 
ATOM      9  C   UNL     1      -1.007   2.653   0.679  0.00  0.00    +0.025 A 
ATOM     10  C   UNL     1       0.355   2.796   0.478  0.00  0.00    +0.041 A 
ATOM     11  C   UNL     1       1.242   1.924   1.084  0.00  0.00    +0.022 A 
ATOM     12  C   UNL     1       0.770   0.908   1.893  0.00  0.00    +0.027 A 
ATOM     13  C   UNL     1      -0.596   0.766   2.101  0.00  0.00    +0.045 A 
ATOM     14 CL   UNL     1       0.951   4.071  -0.539  0.00  0.00    -0.084 Cl
ENDBRANCH   1  13
BRANCH   4  15
ATOM     15  C   UNL     1      -0.476  -2.867   2.955  0.00  0.00    +0.270 C 
ATOM     16  O   UNL     1      -0.955  -2.380   1.947  0.00  0.00    -0.268 OA
BRANCH  15  17
ATOM     17  C   UNL     1      -0.400  -4.337   3.102  0.00  0.00    +0.043 A 
ATOM     18  C   UNL     1       0.042  -4.899   4.301  0.00  0.00    +0.017 A 
ATOM     19  C   UNL     1       0.113  -6.268   4.436  0.00  0.00    +0.050 A 
ATOM     20  C   UNL     1      -0.253  -7.094   3.382  0.00  0.00    +0.166 A 
ATOM     21  C   UNL     1      -0.695  -6.539   2.181  0.00  0.00    +0.167 A 
ATOM     22  C   UNL     1      -0.774  -5.166   2.043  0.00  0.00    +0.062 A 
ATOM     23  O   UNL     1      -0.990  -7.552   1.315  0.00  0.00    -0.453 OA
ATOM     24  C   UNL     1      -0.337  -8.718   1.852  0.00  0.00    +0.466 C 
ATOM     25  O   UNL     1      -0.272  -8.453   3.266  0.00  0.00    -0.453 OA
ENDBRANCH  15  17
ENDBRANCH   4  15
BRANCH   3  26
ATOM     26  C   UNL     1      -0.167   1.451   4.927  0.00  0.00    +0.154 C 
BRANCH  26  27
ATOM     27  C   UNL     1       0.229   2.029   6.261  0.00  0.00    +0.015 A 
ATOM     28  C   UNL     1      -0.550   2.028   7.422  0.00  0.00    +0.065 A 
ATOM     29  N   UNL     1       0.130   2.618   8.371  0.00  0.00    -0.176 NA
ATOM     30  N   UNL     1       1.366   3.014   7.843  0.00  0.00    -0.271 N 
ATOM     31  C   UNL     1       1.404   2.637   6.548  0.00  0.00    +0.041 A 
ATOM     32  C   UNL     1       2.548   2.856   5.591  0.00  0.00    +0.065 C 
ATOM     33  C   UNL     1       2.431   3.710   8.569  0.00  0.00    +0.172 C 
ATOM     34  C   UNL     1      -1.934   1.447   7.558  0.00  0.00    +0.068 C 
ENDBRANCH  26  27
ENDBRANCH   3  26
TORSDOF 5
