REMARK  Name = ZINC13640260
REMARK  7 active torsions:
REMARK  status: ('A' for Active; 'I' for Inactive)
REMARK    1  A    between atoms: C_1  and  C_2
REMARK    2  A    between atoms: C_2  and  C_4
REMARK    3  A    between atoms: C_4  and  O_5
REMARK    4  A    between atoms: O_5  and  C_6
REMARK    5  A    between atoms: C_19  and  C_22
REMARK    6  A    between atoms: C_25  and  O_29
REMARK    7  A    between atoms: C_27  and  O_28
REMARK                            x       y       z     vdW  Elec       q    Type
REMARK                         _______ _______ _______ _____ _____    ______ ____
ROOT
ATOM      1  C   UNL     1       1.721  -0.584   0.114  0.00  0.00    +0.121 A 
ATOM      2  C   UNL     1       0.423  -1.073   0.132  0.00  0.00    +0.047 A 
ATOM      3  C   UNL     1      -0.638  -0.191   0.116  0.00  0.00    +0.027 A 
ATOM      4  C   UNL     1      -0.407   1.178   0.082  0.00  0.00    +0.032 A 
ATOM      5  C   UNL     1       0.888   1.673   0.062  0.00  0.00    -0.016 A 
ATOM      6  C   UNL     1       1.951   0.780   0.079  0.00  0.00    +0.051 A 
ATOM      7  C   UNL     1       1.184   3.139   0.022  0.00  0.00    +0.049 C 
ATOM      8  C   UNL     1       1.660   3.642   1.365  0.00  0.00    -0.023 C 
ATOM      9  C   UNL     1       1.204   4.852   1.583  0.00  0.00    -0.030 C 
ATOM     10  C   UNL     1       0.365   5.323   0.412  0.00  0.00    +0.033 C 
ATOM     11  C   UNL     1      -0.059   3.997  -0.285  0.00  0.00    +0.029 C 
ATOM     12  C   UNL     1      -1.276   3.439   0.459  0.00  0.00    +0.108 C 
ATOM     13  N   UNL     1      -1.497   2.059   0.073  0.00  0.00    -0.336 N 
ATOM     14  H   UNL     1      -2.379   1.756  -0.193  0.00  0.00    +0.147 HD
ENDROOT
BRANCH  12  15
ATOM     15  C   UNL     1      -1.024   3.483   1.944  0.00  0.00    +0.015 A 
ATOM     16  C   UNL     1      -0.424   2.409   2.574  0.00  0.00    +0.012 A 
ATOM     17  C   UNL     1      -0.191   2.446   3.936  0.00  0.00    +0.046 A 
ATOM     18  C   UNL     1      -0.559   3.562   4.674  0.00  0.00    +0.120 A 
ATOM     19  C   UNL     1      -1.160   4.641   4.044  0.00  0.00    +0.091 A 
ATOM     20  C   UNL     1      -1.388   4.604   2.677  0.00  0.00    +0.125 A 
BRANCH  20  21
ATOM     21  O   UNL     1      -1.972   5.662   2.055  0.00  0.00    -0.506 OA
ATOM     22  H   UNL     1      -2.938   5.614   2.022  0.00  0.00    +0.292 HD
ENDBRANCH  20  21
BRANCH  18  23
ATOM     23  O   UNL     1      -0.329   3.598   6.012  0.00  0.00    -0.507 OA
ATOM     24  H   UNL     1       0.532   3.967   6.254  0.00  0.00    +0.292 HD
ENDBRANCH  18  23
ENDBRANCH  12  15
BRANCH   1  25
ATOM     25  O   UNL     1       2.772  -1.448   0.129  0.00  0.00    -0.488 OA
BRANCH  25  26
ATOM     26  C   UNL     1       2.464  -2.843   0.165  0.00  0.00    +0.259 C 
BRANCH  26  28
ATOM     27  C   UNL     1       3.692  -5.145   0.215  0.00  0.00    +0.042 C 
ATOM     28  C   UNL     1       3.743  -3.640   0.178  0.00  0.00    -0.043 C 
ATOM     29  C   UNL     1       4.899  -3.023   0.157  0.00  0.00    +0.011 C 
ENDBRANCH  26  28
ENDBRANCH  25  26
ENDBRANCH   1  25
TORSDOF 6
