REMARK  Name = ZINC02070423
REMARK  8 active torsions:
REMARK  status: ('A' for Active; 'I' for Inactive)
REMARK    1  A    between atoms: C_3  and  C_6
REMARK    2  A    between atoms: N_8  and  C_9
REMARK    3  A    between atoms: C_12  and  C_18
REMARK    4  A    between atoms: C_13  and  N_15
REMARK    5  A    between atoms: C_18  and  C_19
REMARK    6  A    between atoms: C_22  and  N_28
REMARK    7  A    between atoms: C_24  and  N_25
REMARK    8  A    between atoms: C_29  and  C_31
REMARK                            x       y       z     vdW  Elec       q    Type
REMARK                         _______ _______ _______ _____ _____    ______ ____
ROOT
ATOM      1  C   UNL     1      -6.060  -1.489  -0.172  0.00  0.00    +0.074 C 
ENDROOT
BRANCH   1   5
ATOM      2  C   UNL     1      -2.360   0.648  -0.229  0.00  0.00    +0.036 A 
ATOM      3  C   UNL     1      -2.998   0.330  -1.421  0.00  0.00    +0.024 A 
ATOM      4  C   UNL     1      -4.191  -0.365  -1.399  0.00  0.00    +0.008 A 
ATOM      5  C   UNL     1      -4.755  -0.736  -0.192  0.00  0.00    -0.013 A 
ATOM      6  C   UNL     1      -4.125  -0.416   0.997  0.00  0.00    +0.131 A 
ATOM      7  C   UNL     1      -2.929   0.275   0.982  0.00  0.00    +0.056 A 
BRANCH   2  10
ATOM      8  C   UNL     1      -0.203   1.081   0.674  0.00  0.00    +0.255 C 
ATOM      9  O   UNL     1      -0.431   0.289   1.570  0.00  0.00    -0.269 OA
ATOM     10  N   UNL     1      -1.149   1.348  -0.247  0.00  0.00    -0.281 N 
ATOM     11  H   UNL     1      -0.991   2.025  -0.924  0.00  0.00    +0.155 HD
BRANCH   8  14
ATOM     12  C   UNL     1       3.315   2.350   1.122  0.00  0.00    +0.008 A 
ATOM     13  C   UNL     1       2.203   1.605   1.428  0.00  0.00    +0.021 A 
ATOM     14  C   UNL     1       1.104   1.741   0.595  0.00  0.00    +0.074 A 
ATOM     15  S   UNL     1       1.696   2.922  -0.604  0.00  0.00    -0.092 S 
ATOM     16  C   UNL     1       3.288   3.169   0.038  0.00  0.00    +0.046 A 
ENDBRANCH   8  14
ENDBRANCH   2  10
BRANCH   6  17
ATOM     17  N   UNL     1      -4.732  -0.815   2.286  0.00  0.00    +0.057 N 
ATOM     18  O   UNL     1      -4.232  -0.449   3.334  0.00  0.00    -0.126 OA
ATOM     19  O   UNL     1      -5.732  -1.510   2.299  0.00  0.00    -0.126 OA
ENDBRANCH   6  17
ENDBRANCH   1   5
BRANCH   1  20
ATOM     20  C   UNL     1      -6.603  -1.592  -1.574  0.00  0.00    -0.013 A 
ATOM     21  C   UNL     1      -6.450  -2.767  -2.288  0.00  0.00    +0.008 A 
ATOM     22  C   UNL     1      -6.945  -2.865  -3.573  0.00  0.00    +0.024 A 
ATOM     23  C   UNL     1      -7.598  -1.782  -4.149  0.00  0.00    +0.036 A 
ATOM     24  C   UNL     1      -7.750  -0.604  -3.429  0.00  0.00    +0.056 A 
ATOM     25  C   UNL     1      -7.257  -0.515  -2.141  0.00  0.00    +0.131 A 
BRANCH  23  26
ATOM     26  N   UNL     1      -8.101  -1.877  -5.450  0.00  0.00    -0.281 N 
ATOM     27  C   UNL     1      -8.094  -0.797  -6.256  0.00  0.00    +0.255 C 
ATOM     28  O   UNL     1      -7.568   0.236  -5.885  0.00  0.00    -0.269 OA
ATOM     29  H   UNL     1      -8.455  -2.721  -5.772  0.00  0.00    +0.155 HD
BRANCH  27  30
ATOM     30  C   UNL     1      -8.721  -0.866  -7.579  0.00  0.00    +0.074 A 
ATOM     31  C   UNL     1      -8.822   0.118  -8.550  0.00  0.00    +0.021 A 
ATOM     32  C   UNL     1      -9.468  -0.217  -9.714  0.00  0.00    +0.008 A 
ATOM     33  C   UNL     1      -9.968  -1.472  -9.858  0.00  0.00    +0.046 A 
ATOM     34  S   UNL     1      -9.545  -2.241  -8.363  0.00  0.00    -0.092 S 
ENDBRANCH  27  30
ENDBRANCH  23  26
BRANCH  25  35
ATOM     35  N   UNL     1      -7.423   0.738  -1.371  0.00  0.00    +0.057 N 
ATOM     36  O   UNL     1      -8.080   1.654  -1.833  0.00  0.00    -0.126 OA
ATOM     37  O   UNL     1      -6.904   0.853  -0.275  0.00  0.00    -0.126 OA
ENDBRANCH  25  35
ENDBRANCH   1  20
TORSDOF 8
