REMARK  Name = ZINC26915693
REMARK  9 active torsions:
REMARK  status: ('A' for Active; 'I' for Inactive)
REMARK    1  A    between atoms: C_1  and  C_2
REMARK    2  A    between atoms: C_2  and  C_25
REMARK    3  A    between atoms: N_5  and  N_9
REMARK    4  A    between atoms: C_10  and  C_12
REMARK    5  A    between atoms: C_12  and  N_13
REMARK    6  A    between atoms: N_13  and  C_14
REMARK    7  A    between atoms: N_13  and  C_15
REMARK    8  A    between atoms: C_25  and  C_26
REMARK    9  A    between atoms: C_26  and  C_27
REMARK                            x       y       z     vdW  Elec       q    Type
REMARK                         _______ _______ _______ _____ _____    ______ ____
ROOT
ATOM      1  C   UNL     1       0.206  -4.994   1.767  0.00  0.00    +0.041 C 
ATOM      2  C   UNL     1      -1.036  -4.301   1.200  0.00  0.00    +0.112 C 
ATOM      3  C   UNL     1      -1.100  -2.859   1.664  0.00  0.00    +0.263 C 
ATOM      4  O   UNL     1      -1.184  -2.461   2.806  0.00  0.00    -0.271 OA
ATOM      5  N   UNL     1      -1.046  -2.113   0.544  0.00  0.00    -0.137 N 
ATOM      6  C   UNL     1      -0.961  -2.875  -0.553  0.00  0.00    +0.326 C 
ATOM      7  O   UNL     1      -0.904  -2.430  -1.682  0.00  0.00    -0.251 OA
ATOM      8  N   UNL     1      -0.943  -4.189  -0.266  0.00  0.00    -0.284 N 
ATOM      9  H   UNL     1      -0.878  -5.097  -0.883  0.00  0.00    +0.151 HD
ENDROOT
BRANCH   5  10
ATOM     10  N   UNL     1      -1.079  -0.713   0.528  0.00  0.00    -0.225 N 
ATOM     11  C   UNL     1       0.049  -0.014   0.293  0.00  0.00    +0.213 C 
ATOM     12  O   UNL     1       1.094  -0.598   0.094  0.00  0.00    -0.276 OA
ATOM     13  H   UNL     1      -2.026  -0.183   0.708  0.00  0.00    +0.173 HD
BRANCH  11  14
ATOM     14  C   UNL     1       0.013   1.492   0.276  0.00  0.00    +0.021 C 
BRANCH  14  15
ATOM     15  N   UNL     1       1.360   2.011  -0.000  0.00  0.00    +0.388 N 
ATOM     16  C   UNL     1       1.792   1.657  -1.359  0.00  0.00    -0.095 C 
ATOM     17  H   UNL     1       2.056   1.540   0.710  0.00  0.00    -0.081 HD
BRANCH  15  18
ATOM     18  C   UNL     1       1.417   3.464   0.208  0.00  0.00    -0.037 C 
ATOM     19  C   UNL     1       2.880   3.954   0.164  0.00  0.00    -0.006 C 
ATOM     20  C   UNL     1       3.289   3.905   1.654  0.00  0.00    +0.034 C 
ATOM     21  C   UNL     1       1.997   4.069   2.426  0.00  0.00    -0.046 A 
ATOM     22  C   UNL     1       0.921   3.816   1.595  0.00  0.00    -0.058 A 
ATOM     23  C   UNL     1      -0.369   3.906   2.090  0.00  0.00    +0.002 A 
ATOM     24  C   UNL     1      -0.584   4.249   3.411  0.00  0.00    +0.000 A 
ATOM     25  C   UNL     1       0.492   4.503   4.241  0.00  0.00    +0.000 A 
ATOM     26  C   UNL     1       1.779   4.412   3.749  0.00  0.00    +0.004 A 
ENDBRANCH  15  18
ENDBRANCH  14  15
ENDBRANCH  11  14
ENDBRANCH   5  10
BRANCH   2  27
ATOM     27  C   UNL     1      -2.303  -5.055   1.607  0.00  0.00    +0.040 C 
BRANCH  27  28
ATOM     28  C   UNL     1      -2.211  -6.505   1.127  0.00  0.00    +0.038 C 
BRANCH  28  29
ATOM     29  C   UNL     1      -3.459  -7.247   1.528  0.00  0.00    -0.047 A 
ATOM     30  C   UNL     1      -3.514  -7.902   2.744  0.00  0.00    +0.003 A 
ATOM     31  C   UNL     1      -4.661  -8.579   3.114  0.00  0.00    +0.000 A 
ATOM     32  C   UNL     1      -5.750  -8.610   2.263  0.00  0.00    +0.000 A 
ATOM     33  C   UNL     1      -5.694  -7.959   1.044  0.00  0.00    +0.000 A 
ATOM     34  C   UNL     1      -4.548  -7.278   0.677  0.00  0.00    +0.003 A 
ENDBRANCH  28  29
ENDBRANCH  27  28
ENDBRANCH   2  27
TORSDOF 7
