REMARK  Name = ZINC10260089
REMARK  7 active torsions:
REMARK  status: ('A' for Active; 'I' for Inactive)
REMARK    1  A    between atoms: C_1  and  C_2
REMARK    2  A    between atoms: C_2  and  C_3
REMARK    3  A    between atoms: C_3  and  C_5
REMARK    4  A    between atoms: C_3  and  N_12
REMARK    5  A    between atoms: N_15  and  N_16
REMARK    6  A    between atoms: C_17  and  C_19
REMARK    7  A    between atoms: C_24  and  C_25
REMARK                            x       y       z     vdW  Elec       q    Type
REMARK                         _______ _______ _______ _____ _____    ______ ____
ROOT
ATOM      1  N   UNL     1       0.711  -0.454  -3.218  0.00  0.00    -0.291 N 
ATOM      2  C   UNL     1       0.872   0.754  -3.793  0.00  0.00    +0.316 C 
ATOM      3  O   UNL     1       1.793   1.472  -3.454  0.00  0.00    -0.251 OA
ATOM      4  N   UNL     1       0.012   1.167  -4.745  0.00  0.00    -0.218 N 
ATOM      5  H   UNL     1      -0.024  -1.026  -3.489  0.00  0.00    +0.151 HD
ATOM      6  H   UNL     1       0.128   2.036  -5.160  0.00  0.00    +0.174 HD
ENDROOT
BRANCH   4   7
ATOM      7  N   UNL     1      -1.049   0.340  -5.137  0.00  0.00    -0.229 N 
ATOM      8  C   UNL     1      -1.909   0.752  -6.089  0.00  0.00    +0.260 C 
ATOM      9  O   UNL     1      -1.764   1.842  -6.608  0.00  0.00    -0.269 OA
ATOM     10  H   UNL     1      -1.165  -0.529  -4.723  0.00  0.00    +0.173 HD
BRANCH   8  11
ATOM     11  C   UNL     1      -3.029  -0.120  -6.502  0.00  0.00    +0.041 A 
ATOM     12  C   UNL     1      -3.124  -1.421  -6.005  0.00  0.00    +0.013 A 
ATOM     13  C   UNL     1      -4.172  -2.230  -6.394  0.00  0.00    +0.001 A 
ATOM     14  C   UNL     1      -5.127  -1.754  -7.275  0.00  0.00    +0.000 A 
ATOM     15  C   UNL     1      -5.038  -0.466  -7.772  0.00  0.00    +0.004 A 
ATOM     16  C   UNL     1      -3.998   0.355  -7.386  0.00  0.00    -0.038 A 
ATOM     17  C   UNL     1      -3.907   1.760  -7.924  0.00  0.00    +0.044 C 
ENDBRANCH   8  11
ENDBRANCH   4   7
BRANCH   1  18
ATOM     18  C   UNL     1       1.646  -0.902  -2.183  0.00  0.00    +0.104 C 
BRANCH  18  19
ATOM     19  C   UNL     1       1.663  -2.409  -2.140  0.00  0.00    -0.027 A 
ATOM     20  C   UNL     1       0.485  -3.117  -2.286  0.00  0.00    +0.007 A 
ATOM     21  C   UNL     1       0.501  -4.499  -2.247  0.00  0.00    +0.020 A 
ATOM     22  C   UNL     1       1.695  -5.172  -2.061  0.00  0.00    +0.041 A 
ATOM     23  C   UNL     1       2.873  -4.462  -1.915  0.00  0.00    +0.020 A 
ATOM     24  C   UNL     1       2.858  -3.081  -1.960  0.00  0.00    +0.007 A 
ATOM     25 CL   UNL     1       1.714  -6.907  -2.011  0.00  0.00    -0.084 Cl
ENDBRANCH  18  19
BRANCH  18  27
ATOM     26  C   UNL     1       1.303   1.168  -0.827  0.00  0.00    +0.006 C 
ATOM     27  C   UNL     1       1.201  -0.358  -0.823  0.00  0.00    +0.024 C 
ENDBRANCH  18  27
ENDBRANCH   1  18
TORSDOF 5
