REMARK  Name = ZINC38191162
REMARK  15 active torsions:
REMARK  status: ('A' for Active; 'I' for Inactive)
REMARK    1  A    between atoms: C_1  and  C_2
REMARK    2  A    between atoms: C_6  and  C_36
REMARK    3  A    between atoms: C_10  and  O_35
REMARK    4  A    between atoms: C_12  and  C_32
REMARK    5  A    between atoms: C_14  and  O_17
REMARK    6  A    between atoms: O_17  and  C_18
REMARK    7  A    between atoms: C_18  and  C_20
REMARK    8  A    between atoms: C_22  and  O_30
REMARK    9  A    between atoms: C_23  and  O_28
REMARK   10  A    between atoms: C_24  and  O_26
REMARK   11  A    between atoms: O_26  and  C_27
REMARK   12  A    between atoms: O_28  and  C_29
REMARK   13  A    between atoms: O_30  and  C_31
REMARK   14  A    between atoms: C_32  and  C_33
REMARK   15  A    between atoms: C_32  and  C_34
REMARK                            x       y       z     vdW  Elec       q    Type
REMARK                         _______ _______ _______ _____ _____    ______ ____
ROOT
ATOM      1  C   UNL     1       1.067   1.502   1.593  0.00  0.00    +0.039 C 
ATOM      2  C   UNL     1       0.815   0.073   1.173  0.00  0.00    -0.073 C 
ATOM      3  C   UNL     1       0.801  -0.227  -0.101  0.00  0.00    -0.028 C 
ATOM      4  C   UNL     1       0.569  -1.635  -0.572  0.00  0.00    +0.030 C 
ATOM      5  C   UNL     1      -0.908  -2.007  -0.424  0.00  0.00    +0.041 C 
ATOM      6  C   UNL     1      -1.052  -3.034   0.702  0.00  0.00    +0.096 C 
ATOM      7  C   UNL     1       0.225  -3.740   1.161  0.00  0.00    +0.179 C 
ATOM      8  O   UNL     1      -0.793  -4.410   0.417  0.00  0.00    -0.362 OA
ATOM      9  C   UNL     1       0.373  -4.035   2.653  0.00  0.00    +0.153 C 
ATOM     10  C   UNL     1       1.414  -3.089   3.257  0.00  0.00    +0.064 C 
ATOM     11  C   UNL     1       1.733  -1.968   2.265  0.00  0.00    +0.187 C 
ATOM     12  C   UNL     1       0.572  -0.976   2.223  0.00  0.00    +0.075 C 
ATOM     13  C   UNL     1      -2.127  -2.727   1.748  0.00  0.00    +0.044 C 
ENDROOT
BRANCH  10  14
ATOM     14  C   UNL     1       0.861  -2.482   4.548  0.00  0.00    -0.008 C 
ATOM     15  C   UNL     1       0.547  -3.600   5.544  0.00  0.00    +0.008 C 
ATOM     16  C   UNL     1       1.900  -1.536   5.153  0.00  0.00    +0.008 C 
ENDBRANCH  10  14
BRANCH   9  17
ATOM     17  O   UNL     1      -0.884  -3.841   3.304  0.00  0.00    -0.389 OA
ATOM     18  H   UNL     1      -1.525  -4.546   3.141  0.00  0.00    +0.210 HD
ENDBRANCH   9  17
BRANCH  11  19
ATOM     19  O   UNL     1       2.922  -1.292   2.676  0.00  0.00    -0.457 OA
BRANCH  19  20
ATOM     20  C   UNL     1       3.685  -0.751   1.707  0.00  0.00    +0.340 C 
ATOM     21  O   UNL     1       3.349  -0.850   0.543  0.00  0.00    -0.245 OA
BRANCH  20  22
ATOM     22  C   UNL     1       4.927  -0.037   2.057  0.00  0.00    +0.066 A 
ATOM     23  C   UNL     1       5.317   0.073   3.395  0.00  0.00    +0.064 A 
ATOM     24  C   UNL     1       6.482   0.742   3.721  0.00  0.00    +0.166 A 
ATOM     25  C   UNL     1       7.266   1.306   2.718  0.00  0.00    +0.204 A 
ATOM     26  C   UNL     1       6.880   1.198   1.385  0.00  0.00    +0.166 A 
ATOM     27  C   UNL     1       5.719   0.525   1.052  0.00  0.00    +0.064 A 
BRANCH  26  28
ATOM     28  O   UNL     1       7.648   1.751   0.408  0.00  0.00    -0.491 OA
ATOM     29  C   UNL     1       7.191   1.602  -0.938  0.00  0.00    +0.277 C 
ENDBRANCH  26  28
BRANCH  25  30
ATOM     30  O   UNL     1       8.410   1.964   3.041  0.00  0.00    -0.488 OA
ATOM     31  C   UNL     1       9.611   1.190   3.095  0.00  0.00    +0.277 C 
ENDBRANCH  25  30
BRANCH  24  32
ATOM     32  O   UNL     1       6.862   0.850   5.022  0.00  0.00    -0.491 OA
ATOM     33  C   UNL     1       6.010   0.248   5.999  0.00  0.00    +0.277 C 
ENDBRANCH  24  32
ENDBRANCH  20  22
ENDBRANCH  19  20
ENDBRANCH  11  19
TORSDOF 8
