REMARK  Name = ZINC25010116
REMARK  7 active torsions:
REMARK  status: ('A' for Active; 'I' for Inactive)
REMARK    1  A    between atoms: C_1  and  C_2
REMARK    2  A    between atoms: C_2  and  C_4
REMARK    3  A    between atoms: C_2  and  N_13
REMARK    4  A    between atoms: C_14  and  C_16
REMARK    5  A    between atoms: C_18  and  S_24
REMARK    6  A    between atoms: S_24  and  N_27
REMARK    7  A    between atoms: N_27  and  C_28
REMARK                            x       y       z     vdW  Elec       q    Type
REMARK                         _______ _______ _______ _____ _____    ______ ____
ROOT
ATOM      1  C   UNL     1      -1.693   4.739  -1.923  0.00  0.00    +0.057 A 
ATOM      2  C   UNL     1      -0.567   5.459  -2.328  0.00  0.00    +0.044 A 
ATOM      3  C   UNL     1      -0.700   6.490  -3.234  0.00  0.00    +0.124 A 
ATOM      4  C   UNL     1      -1.948   6.812  -3.743  0.00  0.00    +0.069 A 
ATOM      5  C   UNL     1      -3.068   6.103  -3.346  0.00  0.00    +0.042 A 
ATOM      6  C   UNL     1      -2.948   5.065  -2.444  0.00  0.00    +0.055 A 
ATOM      7 CL   UNL     1      -4.353   4.171  -1.952  0.00  0.00    -0.083 Cl
ATOM      8 CL   UNL     1      -2.106   8.112  -4.883  0.00  0.00    -0.081 Cl
ENDROOT
BRANCH   1  10
ATOM      9  N   UNL     1      -0.344   3.317  -0.457  0.00  0.00    -0.305 N 
ATOM     10  C   UNL     1      -1.556   3.633  -0.953  0.00  0.00    +0.246 C 
ATOM     11  O   UNL     1      -2.538   3.008  -0.603  0.00  0.00    -0.270 OA
ATOM     12  H   UNL     1       0.545   3.883  -0.775  0.00  0.00    +0.150 HD
BRANCH   9  14
ATOM     13  C   UNL     1      -0.487   2.743   1.915  0.00  0.00    +0.033 C 
ATOM     14  C   UNL     1      -0.208   2.221   0.504  0.00  0.00    +0.101 C 
BRANCH  14  15
ATOM     15  C   UNL     1       1.192   1.667   0.441  0.00  0.00    -0.024 A 
ATOM     16  C   UNL     1       2.267   2.524   0.294  0.00  0.00    +0.009 A 
ATOM     17  C   UNL     1       3.552   2.020   0.230  0.00  0.00    +0.050 A 
ATOM     18  C   UNL     1       3.767   0.654   0.313  0.00  0.00    +0.166 A 
ATOM     19  C   UNL     1       2.684  -0.209   0.461  0.00  0.00    +0.167 A 
ATOM     20  C   UNL     1       1.398   0.302   0.525  0.00  0.00    +0.055 A 
ATOM     21  O   UNL     1       3.152  -1.490   0.517  0.00  0.00    -0.453 OA
ATOM     22  C   UNL     1       4.556  -1.374   0.813  0.00  0.00    +0.466 C 
ATOM     23  O   UNL     1       4.913  -0.086   0.277  0.00  0.00    -0.453 OA
ENDBRANCH  14  15
ENDBRANCH   9  14
ENDBRANCH   1  10
BRANCH   3  24
ATOM     24  S   UNL     1       0.720   7.399  -3.745  0.00  0.00    +0.060 S 
ATOM     25  O   UNL     1       1.823   6.870  -3.023  0.00  0.00    -0.153 OA
ATOM     26  O   UNL     1       0.687   7.439  -5.165  0.00  0.00    -0.153 OA
BRANCH  24  27
ATOM     27  N   UNL     1       0.516   8.958  -3.224  0.00  0.00    -0.187 NA
ATOM     28  H   UNL     1       0.255   9.739  -3.953  0.00  0.00    +0.148 HD
BRANCH  27  29
ATOM     29  C   UNL     1       0.469   9.250  -1.789  0.00  0.00    +0.077 C 
ATOM     30  C   UNL     1      -0.437  10.395  -1.331  0.00  0.00    +0.022 C 
ATOM     31  C   UNL     1       1.083  10.569  -1.316  0.00  0.00    +0.022 C 
ENDBRANCH  27  29
ENDBRANCH  24  27
ENDBRANCH   3  24
TORSDOF 6
