REMARK  Name = ZINC39637285
REMARK  6 active torsions:
REMARK  status: ('A' for Active; 'I' for Inactive)
REMARK    1  A    between atoms: C_1  and  C_2
REMARK    2  A    between atoms: C_7  and  N_12
REMARK    3  A    between atoms: C_9  and  C_11
REMARK    4  A    between atoms: C_13  and  C_15
REMARK    5  A    between atoms: C_26  and  C_28
REMARK    6  A    between atoms: C_28  and  C_34
REMARK                            x       y       z     vdW  Elec       q    Type
REMARK                         _______ _______ _______ _____ _____    ______ ____
ROOT
ATOM      1  C   UNL     1       2.776  -4.257   3.645  0.00  0.00    +0.100 C 
ATOM      2  C   UNL     1       4.047  -3.412   3.886  0.00  0.00    +0.121 C 
ATOM      3  N   UNL     1       5.061  -4.385   4.355  0.00  0.00    -0.300 N 
ATOM      4  C   UNL     1       4.826  -5.591   3.525  0.00  0.00    +0.115 C 
ATOM      5  C   UNL     1       3.291  -5.686   3.408  0.00  0.00    -0.004 C 
ATOM      6  C   UNL     1       2.739  -6.630   4.471  0.00  0.00    -0.010 C 
ATOM      7  C   UNL     1       3.219  -8.055   4.181  0.00  0.00    -0.082 C 
ATOM      8  N   UNL     1       2.762  -8.466   2.848  0.00  0.00    +0.379 N 
ATOM      9  C   UNL     1       3.372  -7.609   1.823  0.00  0.00    -0.082 C 
ATOM     10  C   UNL     1       2.898  -6.166   2.014  0.00  0.00    -0.010 C 
ATOM     11  C   UNL     1       5.987  -4.214   5.318  0.00  0.00    +0.222 C 
ATOM     12  O   UNL     1       6.807  -5.082   5.533  0.00  0.00    -0.275 OA
ATOM     13  H   UNL     1       3.027  -9.425   2.683  0.00  0.00    -0.086 HD
ATOM     14  H   UNL     1       1.757  -8.384   2.798  0.00  0.00    -0.086 HD
ENDROOT
BRANCH  11  15
ATOM     15  C   UNL     1       6.005  -2.943   6.129  0.00  0.00    +0.044 C 
ATOM     16  C   UNL     1       6.097  -1.740   5.189  0.00  0.00    +0.016 C 
ATOM     17  C   UNL     1       7.381  -1.835   4.362  0.00  0.00    +0.001 C 
ATOM     18  C   UNL     1       8.591  -1.845   5.298  0.00  0.00    +0.000 C 
ATOM     19  C   UNL     1       8.499  -3.048   6.238  0.00  0.00    +0.001 C 
ATOM     20  C   UNL     1       7.215  -2.953   7.065  0.00  0.00    +0.016 C 
ATOM     21  C   UNL     1       4.721  -2.848   6.956  0.00  0.00    +0.021 C 
ENDBRANCH  11  15
BRANCH   1  23
ATOM     22  N   UNL     1       0.730  -4.049   2.270  0.00  0.00    -0.312 N 
ATOM     23  C   UNL     1       2.036  -3.757   2.430  0.00  0.00    +0.218 C 
ATOM     24  O   UNL     1       2.616  -3.093   1.598  0.00  0.00    -0.275 OA
ATOM     25  H   UNL     1       0.267  -4.580   2.936  0.00  0.00    +0.149 HD
BRANCH  22  31
ATOM     26  C   UNL     1      -3.726  -2.856   0.492  0.00  0.00    +0.008 C 
ATOM     27  C   UNL     1      -2.233  -2.956   0.174  0.00  0.00    -0.009 C 
ATOM     28  C   UNL     1      -2.023  -3.930  -0.987  0.00  0.00    +0.003 C 
ATOM     29  C   UNL     1      -0.530  -4.030  -1.305  0.00  0.00    +0.002 C 
ATOM     30  C   UNL     1       0.221  -4.537  -0.072  0.00  0.00    +0.022 C 
ATOM     31  C   UNL     1       0.011  -3.564   1.089  0.00  0.00    +0.076 C 
ATOM     32  C   UNL     1      -1.482  -3.463   1.407  0.00  0.00    +0.009 C 
ATOM     33  C   UNL     1      -2.014  -4.843   1.797  0.00  0.00    +0.009 C 
ENDBRANCH  22  31
ENDBRANCH   1  23
TORSDOF 3
