REMARK  Name = ZINC36068994
REMARK  10 active torsions:
REMARK  status: ('A' for Active; 'I' for Inactive)
REMARK    1  A    between atoms: C_4  and  C_7
REMARK    2  A    between atoms: C_7  and  N_8
REMARK    3  A    between atoms: C_9  and  C_11
REMARK    4  A    between atoms: C_14  and  C_16
REMARK    5  A    between atoms: C_16  and  N_17
REMARK    6  A    between atoms: N_17  and  C_18
REMARK    7  A    between atoms: N_17  and  C_29
REMARK    8  A    between atoms: C_18  and  C_19
REMARK    9  A    between atoms: C_23  and  C_25
REMARK   10  A    between atoms: C_29  and  C_30
REMARK                            x       y       z     vdW  Elec       q    Type
REMARK                         _______ _______ _______ _____ _____    ______ ____
ROOT
ATOM      1  N   UNL     1       4.576  -2.490   7.056  0.00  0.00    +0.391 N 
ATOM      2  H   UNL     1       4.870  -3.455   7.018  0.00  0.00    -0.080 HD
ENDROOT
BRANCH   1   3
ATOM      3  C   UNL     1       5.584  -1.645   6.403  0.00  0.00    +0.020 C 
BRANCH   3   7
ATOM      4  C   UNL     1       8.899  -2.720   7.391  0.00  0.00    +0.163 A 
ATOM      5  C   UNL     1       8.649  -1.785   8.348  0.00  0.00    +0.230 A 
ATOM      6  O   UNL     1       7.426  -1.290   8.102  0.00  0.00    -0.449 OA
ATOM      7  C   UNL     1       6.934  -1.907   7.018  0.00  0.00    +0.179 A 
ATOM      8  N   UNL     1       7.808  -2.762   6.579  0.00  0.00    -0.210 NA
BRANCH   4  10
ATOM      9  N   UNL     1      10.275  -4.350   6.197  0.00  0.00    -0.306 N 
ATOM     10  C   UNL     1      10.123  -3.531   7.256  0.00  0.00    +0.266 C 
ATOM     11  O   UNL     1      10.995  -3.461   8.101  0.00  0.00    -0.268 OA
ATOM     12  H   UNL     1       9.548  -4.467   5.566  0.00  0.00    +0.149 HD
BRANCH   9  13
ATOM     13  C   UNL     1      11.540  -5.063   5.999  0.00  0.00    +0.140 C 
BRANCH  13  17
ATOM     14  C   UNL     1      11.291  -7.451   2.465  0.00  0.00    +0.000 A 
ATOM     15  C   UNL     1      11.746  -6.148   2.388  0.00  0.00    +0.000 A 
ATOM     16  C   UNL     1      11.826  -5.375   3.532  0.00  0.00    +0.005 A 
ATOM     17  C   UNL     1      11.451  -5.905   4.752  0.00  0.00    -0.030 A 
ATOM     18  C   UNL     1      10.996  -7.208   4.829  0.00  0.00    +0.005 A 
ATOM     19  C   UNL     1      10.917  -7.981   3.686  0.00  0.00    +0.000 A 
ENDBRANCH  13  17
ENDBRANCH   9  13
ENDBRANCH   4  10
ENDBRANCH   3   7
ENDBRANCH   1   3
BRANCH   1  20
ATOM     20  C   UNL     1       4.426  -2.079   8.459  0.00  0.00    -0.042 C 
BRANCH  20  21
ATOM     21  C   UNL     1       3.485  -3.023   9.161  0.00  0.00    -0.063 A 
ATOM     22  C   UNL     1       2.127  -2.762   9.176  0.00  0.00    +0.002 A 
ATOM     23  C   UNL     1       1.264  -3.627   9.820  0.00  0.00    +0.001 A 
ATOM     24  C   UNL     1       1.757  -4.755  10.450  0.00  0.00    +0.012 A 
ATOM     25  C   UNL     1       3.114  -5.016  10.435  0.00  0.00    +0.055 A 
ATOM     26  C   UNL     1       3.978  -4.153   9.786  0.00  0.00    +0.014 A 
BRANCH  25  27
ATOM     27  C   UNL     1       3.652  -6.245  11.121  0.00  0.00    +0.417 C 
ATOM     28  F   UNL     1       2.595  -6.958  11.698  0.00  0.00    -0.166 F 
ATOM     29  F   UNL     1       4.305  -7.055  10.185  0.00  0.00    -0.166 F 
ATOM     30  F   UNL     1       4.556  -5.864  12.119  0.00  0.00    -0.166 F 
ENDBRANCH  25  27
ENDBRANCH  20  21
ENDBRANCH   1  20
BRANCH   1  31
ATOM     31  C   UNL     1       3.289  -2.343   6.363  0.00  0.00    -0.035 C 
BRANCH  31  32
ATOM     32  C   UNL     1       3.410  -2.881   4.960  0.00  0.00    -0.027 A 
ATOM     33  C   UNL     1       3.157  -4.130   4.500  0.00  0.00    +0.009 A 
ATOM     34  C   UNL     1       3.339  -4.400   3.157  0.00  0.00    +0.008 A 
ATOM     35  C   UNL     1       3.764  -3.406   2.339  0.00  0.00    +0.045 A 
ATOM     36  S   UNL     1       3.916  -2.035   3.472  0.00  0.00    -0.103 S 
ENDBRANCH  31  32
ENDBRANCH   1  31
TORSDOF 10
