REMARK  Name = ZINC16939874
REMARK  10 active torsions:
REMARK  status: ('A' for Active; 'I' for Inactive)
REMARK    1  A    between atoms: C_1  and  C_2
REMARK    2  A    between atoms: C_5  and  C_32
REMARK    3  A    between atoms: C_6  and  N_8
REMARK    4  A    between atoms: C_9  and  C_11
REMARK    5  A    between atoms: C_11  and  C_13
REMARK    6  A    between atoms: C_11  and  O_14
REMARK    7  A    between atoms: O_14  and  C_15
REMARK    8  A    between atoms: C_15  and  C_17
REMARK    9  A    between atoms: C_19  and  S_24
REMARK   10  A    between atoms: S_24  and  N_27
REMARK                            x       y       z     vdW  Elec       q    Type
REMARK                         _______ _______ _______ _____ _____    ______ ____
ROOT
ATOM      1  C   UNL     1      -3.563   0.499   3.712  0.00  0.00    +0.341 C 
ATOM      2  O   UNL     1      -4.193   0.840   4.693  0.00  0.00    -0.245 OA
ENDROOT
BRANCH   1   3
ATOM      3  C   UNL     1      -2.581   1.422   3.109  0.00  0.00    +0.079 A 
ATOM      4  C   UNL     1      -1.855   1.034   1.981  0.00  0.00    +0.045 A 
ATOM      5  C   UNL     1      -0.940   1.901   1.422  0.00  0.00    +0.106 A 
ATOM      6  C   UNL     1      -0.736   3.152   1.979  0.00  0.00    +0.030 A 
ATOM      7  C   UNL     1      -1.455   3.546   3.092  0.00  0.00    +0.023 A 
ATOM      8  C   UNL     1      -2.375   2.688   3.663  0.00  0.00    +0.055 A 
ATOM      9 CL   UNL     1      -3.272   3.182   5.065  0.00  0.00    -0.083 Cl
BRANCH   5  10
ATOM     10  S   UNL     1      -0.022   1.413  -0.001  0.00  0.00    +0.061 S 
ATOM     11  O   UNL     1       0.003  -0.007  -0.001  0.00  0.00    -0.153 OA
ATOM     12  O   UNL     1       1.163   2.196  -0.008  0.00  0.00    -0.153 OA
BRANCH  10  13
ATOM     13  N   UNL     1      -0.899   1.871  -1.329  0.00  0.00    -0.177 NA
ATOM     14  C   UNL     1      -1.905   1.048  -2.017  0.00  0.00    +0.109 C 
ATOM     15  C   UNL     1      -2.438   1.874  -3.206  0.00  0.00    +0.018 C 
ATOM     16  C   UNL     1      -1.293   2.889  -3.463  0.00  0.00    +0.018 C 
ATOM     17  C   UNL     1      -0.796   3.168  -2.022  0.00  0.00    +0.109 C 
ENDBRANCH  10  13
ENDBRANCH   5  10
ENDBRANCH   1   3
BRANCH   1  18
ATOM     18  O   UNL     1      -3.760  -0.720   3.175  0.00  0.00    -0.449 OA
BRANCH  18  19
ATOM     19  C   UNL     1      -4.740  -1.575   3.821  0.00  0.00    +0.259 C 
ATOM     20  C   UNL     1      -6.116  -1.334   3.197  0.00  0.00    +0.062 C 
BRANCH  19  22
ATOM     21  N   UNL     1      -5.118  -3.997   4.151  0.00  0.00    -0.282 N 
ATOM     22  C   UNL     1      -4.350  -3.018   3.633  0.00  0.00    +0.258 C 
ATOM     23  O   UNL     1      -3.344  -3.299   3.016  0.00  0.00    -0.271 OA
ATOM     24  H   UNL     1      -5.877  -3.772   4.712  0.00  0.00    +0.155 HD
BRANCH  21  30
ATOM     25  C   UNL     1      -3.062  -7.367   1.221  0.00  0.00    +0.044 C 
ATOM     26  C   UNL     1      -3.826  -6.999   2.467  0.00  0.00    -0.049 A 
ATOM     27  C   UNL     1      -4.233  -7.987   3.345  0.00  0.00    +0.004 A 
ATOM     28  C   UNL     1      -4.933  -7.654   4.489  0.00  0.00    +0.005 A 
ATOM     29  C   UNL     1      -5.223  -6.331   4.763  0.00  0.00    -0.029 A 
ATOM     30  C   UNL     1      -4.821  -5.337   3.880  0.00  0.00    +0.037 A 
ATOM     31  C   UNL     1      -4.118  -5.676   2.731  0.00  0.00    +0.027 A 
ATOM     32  C   UNL     1      -5.980  -5.968   6.014  0.00  0.00    +0.045 C 
ENDBRANCH  21  30
ENDBRANCH  19  22
ENDBRANCH  18  19
ENDBRANCH   1  18
TORSDOF 7
