REMARK  Name = ZINC34724982
REMARK  9 active torsions:
REMARK  status: ('A' for Active; 'I' for Inactive)
REMARK    1  A    between atoms: C_1  and  C_2
REMARK    2  A    between atoms: C_2  and  C_3
REMARK    3  A    between atoms: C_3  and  C_4
REMARK    4  A    between atoms: C_4  and  C_5
REMARK    5  A    between atoms: C_5  and  N_6
REMARK    6  A    between atoms: C_13  and  C_16
REMARK    7  A    between atoms: C_14  and  C_15
REMARK    8  A    between atoms: N_19  and  C_22
REMARK    9  A    between atoms: C_22  and  C_23
REMARK                            x       y       z     vdW  Elec       q    Type
REMARK                         _______ _______ _______ _____ _____    ______ ____
ROOT
ATOM      1  N   UNL     1       1.475  -3.986  -2.532  0.00  0.00    -0.287 N 
ATOM      2  C   UNL     1       2.514  -4.654  -1.948  0.00  0.00    +0.097 A 
ATOM      3  C   UNL     1       2.570  -6.045  -1.933  0.00  0.00    +0.078 A 
ATOM      4  C   UNL     1       3.748  -6.643  -1.269  0.00  0.00    +0.003 A 
ATOM      5  C   UNL     1       4.648  -5.769  -0.744  0.00  0.00    +0.004 A 
ATOM      6  S   UNL     1       3.991  -4.162  -1.099  0.00  0.00    -0.074 S 
ATOM      7  C   UNL     1       5.763  -6.550  -0.117  0.00  0.00    +0.073 C 
ATOM      8  C   UNL     1       5.398  -7.999  -0.344  0.00  0.00    -0.064 C 
ATOM      9  C   UNL     1       4.252  -8.020  -0.999  0.00  0.00    -0.042 C 
ATOM     10  C   UNL     1       3.540  -9.279  -1.421  0.00  0.00    +0.044 C 
ATOM     11  C   UNL     1       6.195  -9.200   0.096  0.00  0.00    +0.039 C 
ATOM     12  C   UNL     1       1.441  -6.739  -2.586  0.00  0.00    +0.265 A 
ATOM     13  O   UNL     1       1.403  -7.955  -2.623  0.00  0.00    -0.267 OA
ATOM     14  N   UNL     1       0.456  -6.009  -3.139  0.00  0.00    -0.261 N 
ATOM     15  C   UNL     1       0.466  -4.666  -3.111  0.00  0.00    +0.333 A 
ATOM     16  O   UNL     1      -0.452  -4.052  -3.621  0.00  0.00    -0.246 OA
ENDROOT
BRANCH  14  17
ATOM     17  C   UNL     1      -0.663  -6.699  -3.786  0.00  0.00    +0.126 C 
ATOM     18  C   UNL     1      -1.767  -6.955  -2.758  0.00  0.00    +0.027 C 
ENDBRANCH  14  17
BRANCH   1  19
ATOM     19  C   UNL     1       1.455  -2.521  -2.524  0.00  0.00    +0.127 C 
BRANCH  19  20
ATOM     20  C   UNL     1       0.739  -2.027  -1.265  0.00  0.00    +0.022 C 
BRANCH  20  21
ATOM     21  C   UNL     1       0.718  -0.497  -1.257  0.00  0.00    +0.001 C 
BRANCH  21  23
ATOM     22  C   UNL     1      -0.019   1.526   0.010  0.00  0.00    +0.004 C 
ATOM     23  C   UNL     1       0.002  -0.004   0.002  0.00  0.00    -0.003 C 
ENDBRANCH  21  23
ENDBRANCH  20  21
ENDBRANCH  19  20
ENDBRANCH   1  19
TORSDOF 5
