REMARK  Name = ZINC36594064
REMARK  15 active torsions:
REMARK  status: ('A' for Active; 'I' for Inactive)
REMARK    1  A    between atoms: C_1  and  C_2
REMARK    2  A    between atoms: C_5  and  S_8
REMARK    3  A    between atoms: S_8  and  C_11
REMARK    4  A    between atoms: C_11  and  N_12
REMARK    5  A    between atoms: C_13  and  C_15
REMARK    6  A    between atoms: C_15  and  C_17
REMARK    7  A    between atoms: C_15  and  N_25
REMARK    8  A    between atoms: C_20  and  O_23
REMARK    9  A    between atoms: O_23  and  C_24
REMARK   10  A    between atoms: N_25  and  C_35
REMARK   11  A    between atoms: C_26  and  C_28
REMARK   12  A    between atoms: C_28  and  C_29
REMARK   13  A    between atoms: C_35  and  C_36
REMARK   14  A    between atoms: C_35  and  C_37
REMARK   15  A    between atoms: C_35  and  C_38
REMARK                            x       y       z     vdW  Elec       q    Type
REMARK                         _______ _______ _______ _____ _____    ______ ____
ROOT
ATOM      1  C   UNL     1       1.914  -3.997   4.097  0.00  0.00    +0.193 C 
ENDROOT
BRANCH   1   2
ATOM      2  C   UNL     1       2.909  -3.003   4.638  0.00  0.00    -0.018 A 
ATOM      3  C   UNL     1       4.260  -3.296   4.615  0.00  0.00    +0.009 A 
ATOM      4  C   UNL     1       5.174  -2.387   5.111  0.00  0.00    +0.046 A 
ATOM      5  C   UNL     1       4.736  -1.179   5.632  0.00  0.00    +0.120 A 
ATOM      6  C   UNL     1       3.380  -0.887   5.654  0.00  0.00    +0.046 A 
ATOM      7  C   UNL     1       2.470  -1.797   5.152  0.00  0.00    +0.009 A 
BRANCH   5   8
ATOM      8  O   UNL     1       5.633  -0.283   6.122  0.00  0.00    -0.495 OA
ATOM      9  C   UNL     1       5.110   0.941   6.643  0.00  0.00    +0.277 C 
ENDBRANCH   5   8
ENDBRANCH   1   2
BRANCH   1  11
ATOM     10  N   UNL     1       1.290  -2.431   2.287  0.00  0.00    -0.294 N 
ATOM     11  C   UNL     1       1.627  -3.684   2.651  0.00  0.00    +0.239 C 
ATOM     12  O   UNL     1       1.700  -4.560   1.815  0.00  0.00    -0.273 OA
ATOM     13  H   UNL     1       1.232  -1.731   2.956  0.00  0.00    +0.150 HD
BRANCH  10  14
ATOM     14  C   UNL     1       1.011  -2.127   0.881  0.00  0.00    +0.278 C 
BRANCH  14  15
ATOM     15  S   UNL     1      -0.775  -2.230   0.583  0.00  0.00    +0.013 S 
ATOM     16  O   UNL     1      -1.297  -3.425   1.148  0.00  0.00    -0.168 OA
ATOM     17  O   UNL     1      -1.069  -1.875  -0.761  0.00  0.00    -0.168 OA
BRANCH  15  22
ATOM     18  C   UNL     1      -3.163   2.209   3.900  0.00  0.00    +0.044 C 
ATOM     19  C   UNL     1      -2.566   1.100   3.072  0.00  0.00    -0.050 A 
ATOM     20  C   UNL     1      -2.181   1.343   1.767  0.00  0.00    +0.005 A 
ATOM     21  C   UNL     1      -1.634   0.327   1.007  0.00  0.00    +0.027 A 
ATOM     22  C   UNL     1      -1.472  -0.933   1.552  0.00  0.00    +0.090 A 
ATOM     23  C   UNL     1      -1.856  -1.176   2.858  0.00  0.00    +0.027 A 
ATOM     24  C   UNL     1      -2.399  -0.158   3.619  0.00  0.00    +0.005 A 
ENDBRANCH  15  22
ENDBRANCH  14  15
ENDBRANCH  10  14
ENDBRANCH   1  11
BRANCH   1  25
ATOM     25  N   UNL     1       2.468  -5.349   4.203  0.00  0.00    -0.281 N 
ATOM     26  C   UNL     1       3.482  -5.728   3.399  0.00  0.00    +0.221 C 
ATOM     27  O   UNL     1       3.861  -4.991   2.514  0.00  0.00    -0.275 OA
BRANCH  25  28
ATOM     28  C   UNL     1       1.920  -6.291   5.183  0.00  0.00    +0.030 C 
ATOM     29  C   UNL     1       0.791  -5.614   5.963  0.00  0.00    +0.031 C 
ATOM     30  C   UNL     1       1.372  -7.521   4.457  0.00  0.00    +0.031 C 
ATOM     31  C   UNL     1       3.024  -6.720   6.151  0.00  0.00    +0.031 C 
ENDBRANCH  25  28
BRANCH  26  32
ATOM     32  C   UNL     1       4.144  -7.066   3.601  0.00  0.00    +0.131 C 
BRANCH  32  33
ATOM     33  C   UNL     1       5.109  -7.324   2.473  0.00  0.00    -0.039 A 
ATOM     34  C   UNL     1       4.678  -7.964   1.326  0.00  0.00    +0.004 A 
ATOM     35  C   UNL     1       5.564  -8.200   0.291  0.00  0.00    +0.000 A 
ATOM     36  C   UNL     1       6.881  -7.796   0.404  0.00  0.00    +0.000 A 
ATOM     37  C   UNL     1       7.312  -7.156   1.550  0.00  0.00    +0.000 A 
ATOM     38  C   UNL     1       6.426  -6.916   2.583  0.00  0.00    +0.004 A 
ENDBRANCH  32  33
ENDBRANCH  26  32
ENDBRANCH   1  25
TORSDOF 10
