REMARK  Name = ZINC65519628
REMARK  10 active torsions:
REMARK  status: ('A' for Active; 'I' for Inactive)
REMARK    1  A    between atoms: C_1  and  C_2
REMARK    2  A    between atoms: C_2  and  O_3
REMARK    3  A    between atoms: O_3  and  C_4
REMARK    4  A    between atoms: C_9  and  N_10
REMARK    5  A    between atoms: N_13  and  C_14
REMARK    6  A    between atoms: C_14  and  C_15
REMARK    7  A    between atoms: N_18  and  C_20
REMARK    8  A    between atoms: C_20  and  C_21
REMARK    9  A    between atoms: C_20  and  C_22
REMARK   10  A    between atoms: C_24  and  C_26
REMARK                            x       y       z     vdW  Elec       q    Type
REMARK                         _______ _______ _______ _____ _____    ______ ____
ROOT
ATOM      1  N   UNL     1       1.955  -1.469  -3.421  0.00  0.00    -0.266 N 
ATOM      2  C   UNL     1       2.661  -1.969  -4.455  0.00  0.00    +0.304 C 
ATOM      3  O   UNL     1       2.754  -3.172  -4.603  0.00  0.00    -0.253 OA
ATOM      4  N   UNL     1       3.265  -1.134  -5.324  0.00  0.00    -0.299 N 
ATOM      5  H   UNL     1       1.813  -0.513  -3.348  0.00  0.00    +0.156 HD
ATOM      6  H   UNL     1       3.191  -0.174  -5.206  0.00  0.00    +0.150 HD
ENDROOT
BRANCH   1  12
ATOM      7  C   UNL     1       0.318  -1.943  -1.704  0.00  0.00    +0.142 A 
ATOM      8  C   UNL     1      -0.200  -2.802  -0.748  0.00  0.00    +0.055 A 
ATOM      9  C   UNL     1       0.385  -4.032  -0.537  0.00  0.00    +0.001 A 
ATOM     10  C   UNL     1       1.491  -4.434  -1.277  0.00  0.00    +0.126 A 
ATOM     11  C   UNL     1       2.013  -3.568  -2.234  0.00  0.00    +0.073 A 
ATOM     12  C   UNL     1       1.427  -2.333  -2.451  0.00  0.00    +0.080 A 
ATOM     13  O   UNL     1       1.892  -5.687  -0.923  0.00  0.00    -0.488 OA
ATOM     14  C   UNL     1       1.353  -6.008   0.371  0.00  0.00    +0.175 C 
ATOM     15  C   UNL     1       0.061  -5.160   0.424  0.00  0.00    +0.083 C 
ATOM     16  C   UNL     1       2.321  -5.591   1.480  0.00  0.00    +0.052 C 
BRANCH   7  17
ATOM     17  O   UNL     1      -0.257  -0.728  -1.916  0.00  0.00    -0.490 OA
BRANCH  17  19
ATOM     18  C   UNL     1      -1.897   0.995  -1.491  0.00  0.00    +0.048 C 
ATOM     19  C   UNL     1      -1.391  -0.398  -1.112  0.00  0.00    +0.226 C 
ENDBRANCH  17  19
ENDBRANCH   7  17
ENDBRANCH   1  12
BRANCH   4  20
ATOM     20  C   UNL     1       4.032  -1.677  -6.448  0.00  0.00    +0.107 C 
BRANCH  20  21
ATOM     21  C   UNL     1       4.609  -0.526  -7.275  0.00  0.00    -0.012 C 
ATOM     22  C   UNL     1       5.752   0.179  -6.508  0.00  0.00    -0.015 C 
ATOM     23  C   UNL     1       6.819   0.490  -7.574  0.00  0.00    -0.078 C 
ATOM     24  N   UNL     1       6.289   0.014  -8.870  0.00  0.00    +0.381 N 
ATOM     25  C   UNL     1       5.321  -1.064  -8.541  0.00  0.00    -0.074 C 
ATOM     26  H   UNL     1       5.820   0.766  -9.352  0.00  0.00    -0.081 HD
BRANCH  24  27
ATOM     27  C   UNL     1       7.379  -0.520  -9.698  0.00  0.00    -0.075 C 
ATOM     28  C   UNL     1       6.808  -1.040 -11.019  0.00  0.00    -0.014 C 
ATOM     29  C   UNL     1       8.393   0.590  -9.982  0.00  0.00    -0.014 C 
ENDBRANCH  24  27
ENDBRANCH  20  21
ENDBRANCH   4  20
TORSDOF 6
