REMARK  Name = ZINC64526049
REMARK  7 active torsions:
REMARK  status: ('A' for Active; 'I' for Inactive)
REMARK    1  A    between atoms: C_7  and  C_10
REMARK    2  A    between atoms: C_10  and  C_11
REMARK    3  A    between atoms: C_11  and  N_12
REMARK    4  A    between atoms: C_13  and  C_15
REMARK    5  A    between atoms: C_15  and  C_16
REMARK    6  A    between atoms: C_16  and  N_17
REMARK    7  A    between atoms: C_18  and  N_30
REMARK                            x       y       z     vdW  Elec       q    Type
REMARK                         _______ _______ _______ _____ _____    ______ ____
ROOT
ATOM      1  C   UNL     1      -1.697  -6.598  -2.760  0.00  0.00    +0.115 C 
ENDROOT
BRANCH   1   3
ATOM      2  N   UNL     1      -0.399  -4.789  -1.683  0.00  0.00    -0.315 N 
ATOM      3  C   UNL     1      -0.752  -5.426  -2.818  0.00  0.00    +0.215 C 
ATOM      4  O   UNL     1      -0.310  -5.055  -3.884  0.00  0.00    -0.276 OA
ATOM      5  H   UNL     1      -0.753  -5.085  -0.831  0.00  0.00    +0.149 HD
BRANCH   2   6
ATOM      6  C   UNL     1       0.519  -3.649  -1.739  0.00  0.00    +0.108 C 
BRANCH   6   7
ATOM      7  C   UNL     1       0.753  -3.113  -0.325  0.00  0.00    +0.052 C 
BRANCH   7  14
ATOM      8  C   UNL     1       0.062   1.419  -0.511  0.00  0.00    +0.001 A 
ATOM      9  C   UNL     1       1.246   2.167  -0.553  0.00  0.00    +0.002 A 
ATOM     10  C   UNL     1       2.470   1.597  -0.539  0.00  0.00    +0.026 A 
ATOM     11  C   UNL     1       2.603   0.182  -0.480  0.00  0.00    +0.043 A 
ATOM     12  N   UNL     1       3.658  -0.595  -0.457  0.00  0.00    -0.380 N 
ATOM     13  C   UNL     1       3.210  -1.990  -0.394  0.00  0.00    +0.144 C 
ATOM     14  C   UNL     1       1.698  -1.940  -0.383  0.00  0.00    -0.040 C 
ATOM     15  C   UNL     1       1.366  -0.630  -0.435  0.00  0.00    -0.001 A 
ATOM     16  C   UNL     1       0.076   0.068  -0.454  0.00  0.00    +0.010 A 
ATOM     17  H   UNL     1       4.581  -0.297  -0.478  0.00  0.00    +0.160 HD
ENDBRANCH   7  14
ENDBRANCH   6   7
ENDBRANCH   2   6
ENDBRANCH   1   3
BRANCH   1  18
ATOM     18  C   UNL     1      -1.931  -7.134  -4.174  0.00  0.00    +0.120 C 
BRANCH  18  19
ATOM     19  N   UNL     1      -2.805  -8.308  -4.113  0.00  0.00    -0.272 N 
ATOM     20  C   UNL     1      -4.240  -8.106  -4.223  0.00  0.00    +0.220 C 
ATOM     21  N   UNL     1      -4.950  -9.333  -4.540  0.00  0.00    -0.278 NA
ATOM     22  C   UNL     1      -4.533 -10.501  -3.794  0.00  0.00    +0.102 C 
ATOM     23  C   UNL     1      -4.948 -10.442  -2.361  0.00  0.00    -0.000 C 
ATOM     24  C   UNL     1      -4.163 -10.961  -1.435  0.00  0.00    +0.038 C 
ATOM     25  S   UNL     1      -2.742 -11.602  -2.303  0.00  0.00    -0.119 S 
ATOM     26  C   UNL     1      -3.024 -10.775  -3.919  0.00  0.00    +0.157 C 
ATOM     27  C   UNL     1      -2.242  -9.509  -3.965  0.00  0.00    +0.233 C 
ATOM     28  O   UNL     1      -1.037  -9.570  -3.846  0.00  0.00    -0.274 OA
ATOM     29  H   UNL     1      -5.949  -9.200  -4.476  0.00  0.00    +0.126 HD
BRANCH  20  30
ATOM     30  N   UNL     1      -4.502  -7.120  -5.280  0.00  0.00    -0.272 NA
ATOM     31  C   UNL     1      -4.171  -7.673  -6.618  0.00  0.00    +0.087 C 
ATOM     32  C   UNL     1      -4.972  -6.765  -7.585  0.00  0.00    +0.017 C 
ATOM     33  C   UNL     1      -6.285  -6.509  -6.810  0.00  0.00    +0.017 C 
ATOM     34  C   UNL     1      -5.938  -6.768  -5.333  0.00  0.00    +0.087 C 
ENDBRANCH  20  30
ENDBRANCH  18  19
ENDBRANCH   1  18
TORSDOF 7
