REMARK  Name = ZINC57866277
REMARK  3 active torsions:
REMARK  status: ('A' for Active; 'I' for Inactive)
REMARK    1  A    between atoms: C_4  and  N_26
REMARK    2  A    between atoms: C_5  and  N_7
REMARK    3  A    between atoms: C_14  and  C_17
REMARK                            x       y       z     vdW  Elec       q    Type
REMARK                         _______ _______ _______ _____ _____    ______ ____
ROOT
ATOM      1  N   UNL     1       1.248  -2.148   0.376  0.00  0.00    -0.268 N 
ATOM      2  C   UNL     1       0.108  -2.859   0.483  0.00  0.00    +0.307 C 
ATOM      3  O   UNL     1      -0.967  -2.313   0.321  0.00  0.00    -0.252 OA
ATOM      4  N   UNL     1       0.159  -4.175   0.769  0.00  0.00    -0.285 N 
ATOM      5  C   UNL     1       1.449  -4.870   0.867  0.00  0.00    +0.109 C 
ATOM      6  C   UNL     1       1.520  -5.589   2.218  0.00  0.00    +0.020 C 
ATOM      7  C   UNL     1       0.301  -6.502   2.370  0.00  0.00    +0.014 C 
ATOM      8  C   UNL     1      -0.976  -5.660   2.337  0.00  0.00    +0.075 C 
ATOM      9  C   UNL     1      -1.075  -4.940   0.994  0.00  0.00    +0.120 C 
ATOM     10  H   UNL     1       2.106  -2.589   0.474  0.00  0.00    +0.156 HD
ENDROOT
BRANCH   8  11
ATOM     11  C   UNL     1      -2.174  -6.556   2.520  0.00  0.00    +0.142 A 
ATOM     12  N   UNL     1      -2.520  -7.553   1.747  0.00  0.00    -0.133 NA
ATOM     13  N   UNL     1      -3.593  -8.108   2.188  0.00  0.00    -0.129 NA
ATOM     14  C   UNL     1      -3.995  -7.485   3.284  0.00  0.00    +0.161 A 
ATOM     15  N   UNL     1      -3.090  -6.479   3.523  0.00  0.00    -0.286 N 
ATOM     16  C   UNL     1      -3.239  -5.658   4.602  0.00  0.00    +0.094 A 
ATOM     17  C   UNL     1      -4.275  -5.823   5.451  0.00  0.00    +0.018 A 
ATOM     18  C   UNL     1      -5.215  -6.845   5.234  0.00  0.00    +0.005 A 
ATOM     19  C   UNL     1      -5.083  -7.667   4.158  0.00  0.00    +0.048 A 
ENDBRANCH   8  11
BRANCH   1  24
ATOM     20  C   UNL     1       0.190   1.099  -0.998  0.00  0.00    +0.002 A 
ATOM     21  C   UNL     1       1.086   1.953  -0.381  0.00  0.00    +0.002 A 
ATOM     22  C   UNL     1       2.037   1.454   0.488  0.00  0.00    +0.025 A 
ATOM     23  C   UNL     1       2.096   0.092   0.744  0.00  0.00    +0.051 A 
ATOM     24  C   UNL     1       1.193  -0.770   0.122  0.00  0.00    +0.056 A 
ATOM     25  C   UNL     1       0.242  -0.260  -0.748  0.00  0.00    +0.025 A 
BRANCH  23  26
ATOM     26  N   UNL     1       3.059  -0.416   1.623  0.00  0.00    -0.328 N 
ATOM     27  C   UNL     1       4.367  -0.746   1.103  0.00  0.00    +0.105 C 
ATOM     28  C   UNL     1       4.377  -2.215   0.614  0.00  0.00    +0.019 C 
ATOM     29  C   UNL     1       4.329  -3.135   1.761  0.00  0.00    +0.002 C 
ATOM     30  C   UNL     1       3.061  -3.026   2.602  0.00  0.00    +0.002 C 
ATOM     31  C   UNL     1       3.227  -1.920   3.616  0.00  0.00    +0.019 C 
ATOM     32  C   UNL     1       2.699  -0.588   3.044  0.00  0.00    +0.105 C 
ENDBRANCH  23  26
ENDBRANCH   1  24
TORSDOF 3
