REMARK  Name = ZINC10249025
REMARK  8 active torsions:
REMARK  status: ('A' for Active; 'I' for Inactive)
REMARK    1  A    between atoms: C_1  and  N_2
REMARK    2  A    between atoms: N_11  and  C_27
REMARK    3  A    between atoms: C_17  and  C_20
REMARK    4  A    between atoms: C_20  and  C_21
REMARK    5  A    between atoms: C_27  and  C_28
REMARK    6  A    between atoms: C_28  and  C_29
REMARK    7  A    between atoms: C_29  and  S_30
REMARK    8  A    between atoms: S_30  and  C_31
REMARK                            x       y       z     vdW  Elec       q    Type
REMARK                         _______ _______ _______ _____ _____    ______ ____
ROOT
ATOM      1  C   UNL     1       3.644   2.079   0.296  0.00  0.00    +0.155 C 
ATOM      2  N   UNL     1       2.358   1.378   0.267  0.00  0.00    -0.280 N 
ATOM      3  C   UNL     1       1.181   2.096   0.126  0.00  0.00    +0.170 A 
ATOM      4  C   UNL     1      -0.026   1.406   0.101  0.00  0.00    +0.153 A 
ATOM      5  C   UNL     1      -0.018   0.005   0.220  0.00  0.00    +0.280 A 
ATOM      6  O   UNL     1      -1.064  -0.620   0.200  0.00  0.00    -0.265 OA
ATOM      7  N   UNL     1       1.159  -0.640   0.355  0.00  0.00    -0.273 N 
ATOM      8  H   UNL     1       1.168  -1.636   0.440  0.00  0.00    +0.173 HD
ATOM      9  C   UNL     1       2.320   0.037   0.378  0.00  0.00    +0.331 A 
ATOM     10  O   UNL     1       3.362  -0.577   0.501  0.00  0.00    -0.246 OA
ATOM     11  N   UNL     1      -1.020   2.363  -0.053  0.00  0.00    -0.306 N 
ATOM     12  C   UNL     1      -0.397   3.570  -0.108  0.00  0.00    +0.201 A 
ATOM     13  N   UNL     1       0.905   3.395  -0.004  0.00  0.00    -0.196 NA
ATOM     14  N   UNL     1      -1.027   4.784  -0.255  0.00  0.00    -0.301 N 
ATOM     15  C   UNL     1      -0.631   5.434  -1.511  0.00  0.00    +0.108 C 
ATOM     16  C   UNL     1      -1.457   6.707  -1.710  0.00  0.00    +0.023 C 
ATOM     17  C   UNL     1      -1.222   7.652  -0.528  0.00  0.00    -0.004 C 
ATOM     18  C   UNL     1      -1.596   6.934   0.772  0.00  0.00    +0.023 C 
ATOM     19  C   UNL     1      -0.766   5.655   0.899  0.00  0.00    +0.108 C 
ENDROOT
BRANCH  17  20
ATOM     20  C   UNL     1      -2.090   8.902  -0.690  0.00  0.00    +0.038 C 
BRANCH  20  21
ATOM     21  C   UNL     1      -1.639   9.673  -1.904  0.00  0.00    -0.047 A 
ATOM     22  C   UNL     1      -0.670  10.651  -1.781  0.00  0.00    +0.003 A 
ATOM     23  C   UNL     1      -0.253  11.355  -2.895  0.00  0.00    +0.000 A 
ATOM     24  C   UNL     1      -0.812  11.088  -4.130  0.00  0.00    +0.000 A 
ATOM     25  C   UNL     1      -1.785  10.113  -4.253  0.00  0.00    +0.000 A 
ATOM     26  C   UNL     1      -2.199   9.406  -3.140  0.00  0.00    +0.003 A 
ENDBRANCH  20  21
ENDBRANCH  17  20
BRANCH  11  27
ATOM     27  C   UNL     1      -2.462   2.119  -0.140  0.00  0.00    +0.126 C 
BRANCH  27  28
ATOM     28  C   UNL     1      -3.062   2.108   1.268  0.00  0.00    +0.033 C 
BRANCH  28  29
ATOM     29  C   UNL     1      -4.568   1.853   1.178  0.00  0.00    +0.076 C 
BRANCH  29  30
ATOM     30  S   UNL     1      -5.280   1.839   2.846  0.00  0.00    -0.125 S 
BRANCH  30  31
ATOM     31  C   UNL     1      -6.995   1.539   2.576  0.00  0.00    +0.008 A 
ATOM     32  C   UNL     1      -7.479   1.384   1.283  0.00  0.00    +0.016 A 
ATOM     33  C   UNL     1      -8.823   1.144   1.074  0.00  0.00    +0.021 A 
ATOM     34  C   UNL     1      -9.689   1.068   2.151  0.00  0.00    +0.041 A 
ATOM     35  C   UNL     1      -9.211   1.227   3.440  0.00  0.00    +0.021 A 
ATOM     36  C   UNL     1      -7.867   1.462   3.655  0.00  0.00    +0.016 A 
ATOM     37 CL   UNL     1     -11.379   0.771   1.885  0.00  0.00    -0.084 Cl
ENDBRANCH  30  31
ENDBRANCH  29  30
ENDBRANCH  28  29
ENDBRANCH  27  28
ENDBRANCH  11  27
TORSDOF 7
