REMARK  Name = ZINC56790990
REMARK  6 active torsions:
REMARK  status: ('A' for Active; 'I' for Inactive)
REMARK    1  A    between atoms: C_1  and  C_2
REMARK    2  A    between atoms: C_2  and  C_3
REMARK    3  A    between atoms: C_3  and  C_4
REMARK    4  A    between atoms: C_7  and  N_10
REMARK    5  A    between atoms: N_13  and  N_14
REMARK    6  A    between atoms: C_15  and  C_17
REMARK                            x       y       z     vdW  Elec       q    Type
REMARK                         _______ _______ _______ _____ _____    ______ ____
ROOT
ATOM      1  N   UNL     1       2.229  -6.022  -1.427  0.00  0.00    -0.295 N 
ATOM      2  C   UNL     1       3.125  -6.679  -2.189  0.00  0.00    +0.316 C 
ATOM      3  O   UNL     1       3.917  -6.057  -2.870  0.00  0.00    -0.251 OA
ATOM      4  N   UNL     1       3.143  -8.027  -2.196  0.00  0.00    -0.218 N 
ATOM      5  H   UNL     1       1.597  -6.518  -0.883  0.00  0.00    +0.151 HD
ATOM      6  H   UNL     1       3.788  -8.500  -2.745  0.00  0.00    +0.174 HD
ENDROOT
BRANCH   1  10
ATOM      7  C   UNL     1       0.739  -2.027  -1.265  0.00  0.00    -0.011 C 
ATOM      8  C   UNL     1       1.584  -2.532  -0.094  0.00  0.00    +0.005 C 
ATOM      9  C   UNL     1       1.605  -4.062  -0.103  0.00  0.00    +0.022 C 
ATOM     10  C   UNL     1       2.209  -4.557  -1.419  0.00  0.00    +0.074 C 
ATOM     11  C   UNL     1       1.364  -4.052  -2.590  0.00  0.00    +0.022 C 
ATOM     12  C   UNL     1       1.343  -2.522  -2.581  0.00  0.00    +0.005 C 
BRANCH   7  13
ATOM     13  C   UNL     1       0.718  -0.497  -1.257  0.00  0.00    +0.003 C 
BRANCH  13  15
ATOM     14  C   UNL     1      -0.019   1.526   0.010  0.00  0.00    +0.004 C 
ATOM     15  C   UNL     1       0.002  -0.004   0.002  0.00  0.00    -0.003 C 
ENDBRANCH  13  15
ENDBRANCH   7  13
ENDBRANCH   1  10
BRANCH   4  16
ATOM     16  N   UNL     1       2.231  -8.744  -1.412  0.00  0.00    -0.228 N 
ATOM     17  C   UNL     1       2.249 -10.092  -1.419  0.00  0.00    +0.279 C 
ATOM     18  O   UNL     1       3.057 -10.685  -2.106  0.00  0.00    -0.267 OA
ATOM     19  H   UNL     1       1.586  -8.271  -0.863  0.00  0.00    +0.173 HD
BRANCH  17  20
ATOM     20  C   UNL     1       1.284 -10.851  -0.588  0.00  0.00    +0.127 A 
ATOM     21  C   UNL     1       1.321 -12.253  -0.604  0.00  0.00    +0.034 A 
ATOM     22  C   UNL     1       0.437 -12.964   0.156  0.00  0.00    +0.012 A 
ATOM     23  C   UNL     1      -0.492 -12.252   0.939  0.00  0.00    +0.000 A 
ATOM     24  C   UNL     1      -1.429 -12.918   1.745  0.00  0.00    +0.010 A 
ATOM     25  C   UNL     1      -2.311 -12.197   2.489  0.00  0.00    +0.001 A 
ATOM     26  C   UNL     1      -2.299 -10.803   2.462  0.00  0.00    +0.002 A 
ATOM     27  C   UNL     1      -1.406 -10.123   1.693  0.00  0.00    +0.028 A 
ATOM     28  C   UNL     1      -0.476 -10.833   0.909  0.00  0.00    +0.072 A 
ATOM     29  N   UNL     1       0.413 -10.192   0.152  0.00  0.00    -0.242 NA
ENDBRANCH  17  20
ENDBRANCH   4  16
TORSDOF 5
