REMARK  Name = ZINC06410034
REMARK  10 active torsions:
REMARK  status: ('A' for Active; 'I' for Inactive)
REMARK    1  A    between atoms: C_1  and  C_2
REMARK    2  A    between atoms: C_7  and  C_14
REMARK    3  A    between atoms: C_14  and  C_16
REMARK    4  A    between atoms: C_14  and  N_65
REMARK    5  A    between atoms: N_20  and  C_21
REMARK    6  A    between atoms: C_21  and  C_22
REMARK    7  A    between atoms: C_22  and  O_23
REMARK    8  A    between atoms: O_23  and  C_24
REMARK    9  A    between atoms: N_27  and  C_30
REMARK   10  A    between atoms: C_33  and  N_36
REMARK                            x       y       z     vdW  Elec       q    Type
REMARK                         _______ _______ _______ _____ _____    ______ ____
ROOT
ATOM      1  C   UNL     1       4.959   1.184  -0.043  0.00  0.00    +0.039 C 
ENDROOT
BRANCH   1   8
ATOM      2  C   UNL     1      -2.558   3.851   0.049  0.00  0.00    +0.044 C 
ATOM      3  C   UNL     1      -1.233   3.134   0.032  0.00  0.00    -0.048 A 
ATOM      4  C   UNL     1      -1.203   1.746   0.017  0.00  0.00    +0.004 A 
ATOM      5  C   UNL     1      -0.013   1.076   0.008  0.00  0.00    +0.010 A 
ATOM      6  C   UNL     1       1.188   1.795   0.000  0.00  0.00    -0.001 A 
ATOM      7  C   UNL     1       2.481   1.109  -0.016  0.00  0.00    +0.017 A 
ATOM      8  C   UNL     1       3.611   1.858  -0.025  0.00  0.00    +0.011 A 
ATOM      9  C   UNL     1       3.530   3.267  -0.016  0.00  0.00    +0.251 A 
ATOM     10  O   UNL     1       4.558   3.921  -0.023  0.00  0.00    -0.268 OA
ATOM     11  N   UNL     1       2.347   3.906  -0.000  0.00  0.00    -0.322 N 
ATOM     12  H   UNL     1       2.327   4.875   0.006  0.00  0.00    +0.169 HD
ATOM     13  C   UNL     1       1.161   3.202   0.008  0.00  0.00    +0.049 A 
ATOM     14  C   UNL     1      -0.063   3.862   0.024  0.00  0.00    +0.029 A 
ENDBRANCH   1   8
BRANCH   1  20
ATOM     15  C   UNL     1       5.015   1.482  -2.445  0.00  0.00    -0.058 C 
ATOM     16  C   UNL     1       5.825   2.084  -3.596  0.00  0.00    +0.086 C 
ATOM     17  N   UNL     1       7.149   1.447  -3.646  0.00  0.00    -0.333 N 
ATOM     18  C   UNL     1       7.873   1.646  -2.383  0.00  0.00    +0.086 C 
ATOM     19  C   UNL     1       7.064   1.044  -1.232  0.00  0.00    -0.058 C 
ATOM     20  N   UNL     1       5.744   1.709  -1.180  0.00  0.00    +0.391 N 
ATOM     21  H   UNL     1       5.883   2.718  -1.051  0.00  0.00    -0.080 HD
BRANCH  17  22
ATOM     22  C   UNL     1       7.891   1.920  -4.730  0.00  0.00    +0.030 A 
ATOM     23  C   UNL     1       9.140   2.492  -4.521  0.00  0.00    +0.025 A 
ATOM     24  C   UNL     1       9.874   2.954  -5.596  0.00  0.00    +0.034 A 
ATOM     25  C   UNL     1       9.363   2.858  -6.877  0.00  0.00    +0.126 A 
ATOM     26  C   UNL     1       8.118   2.294  -7.088  0.00  0.00    +0.034 A 
ATOM     27  C   UNL     1       7.381   1.825  -6.018  0.00  0.00    +0.025 A 
BRANCH  25  28
ATOM     28  N   UNL     1      10.151   3.359  -8.026  0.00  0.00    +0.056 N 
ATOM     29  O   UNL     1       9.702   3.274  -9.155  0.00  0.00    -0.126 OA
ATOM     30  O   UNL     1      11.248   3.856  -7.842  0.00  0.00    -0.126 OA
ENDBRANCH  25  28
ENDBRANCH  17  22
ENDBRANCH   1  20
BRANCH   1  31
ATOM     31  C   UNL     1       5.690   1.489   1.239  0.00  0.00    +0.143 A 
ATOM     32  N   UNL     1       6.271   2.619   1.559  0.00  0.00    -0.115 NA
ATOM     33  N   UNL     1       6.783   2.486   2.734  0.00  0.00    -0.023 NA
ATOM     34  N   UNL     1       6.550   1.296   3.168  0.00  0.00    -0.044 NA
ATOM     35  N   UNL     1       5.879   0.651   2.275  0.00  0.00    -0.228 N 
BRANCH  35  36
ATOM     36  C   UNL     1       5.410  -0.734   2.372  0.00  0.00    +0.175 C 
BRANCH  36  37
ATOM     37  C   UNL     1       6.478  -1.674   1.810  0.00  0.00    +0.183 C 
BRANCH  37  38
ATOM     38  O   UNL     1       6.021  -3.025   1.904  0.00  0.00    -0.381 OA
ATOM     39  C   UNL     1       6.949  -3.989   1.403  0.00  0.00    +0.194 C 
ENDBRANCH  37  38
ENDBRANCH  36  37
ENDBRANCH  35  36
ENDBRANCH   1  31
TORSDOF 8
