REMARK  Name = ZINC39453715
REMARK  2 active torsions:
REMARK  status: ('A' for Active; 'I' for Inactive)
REMARK    1  A    between atoms: C_4  and  O_30
REMARK    2  A    between atoms: C_5  and  C_7
REMARK                            x       y       z     vdW  Elec       q    Type
REMARK                         _______ _______ _______ _____ _____    ______ ____
ROOT
ATOM      1  C   UNL     1       1.247  -2.163  -0.021  0.00  0.00    -0.005 A 
ATOM      2  C   UNL     1       0.749  -2.866  -1.106  0.00  0.00    +0.009 A 
ATOM      3  C   UNL     1       0.773  -4.256  -1.118  0.00  0.00    +0.003 A 
ATOM      4  C   UNL     1       1.282  -4.964  -0.072  0.00  0.00    +0.028 A 
ATOM      5  C   UNL     1       1.798  -4.295   1.053  0.00  0.00    +0.072 A 
ATOM      6  C   UNL     1       1.786  -2.875   1.077  0.00  0.00    +0.009 A 
ATOM      7  C   UNL     1       2.305  -2.199   2.190  0.00  0.00    +0.026 A 
ATOM      8  C   UNL     1       2.817  -2.962   3.231  0.00  0.00    +0.068 A 
ATOM      9  C   UNL     1       2.800  -4.379   3.140  0.00  0.00    +0.100 A 
ATOM     10  N   UNL     1       2.296  -4.985   2.082  0.00  0.00    -0.245 NA
ATOM     11  C   UNL     1       3.348  -5.150   4.268  0.00  0.00    +0.084 A 
ATOM     12  C   UNL     1       3.861  -4.489   5.367  0.00  0.00    +0.122 A 
ATOM     13  N   UNL     1       3.865  -3.100   5.429  0.00  0.00    -0.237 N 
ATOM     14  C   UNL     1       3.379  -2.335   4.436  0.00  0.00    +0.271 A 
ATOM     15  O   UNL     1       3.406  -1.122   4.534  0.00  0.00    -0.266 OA
ATOM     16 BR   UNL     1       4.562  -2.276   6.932  0.00  0.00    +0.058 Br
ATOM     17  C   UNL     1       4.394  -5.231   6.446  0.00  0.00    +0.186 C 
ATOM     18  O   UNL     1       4.800  -4.649   7.433  0.00  0.00    -0.290 OA
ATOM     19  C   UNL     1       4.465  -6.734   6.385  0.00  0.00    +0.138 C 
ATOM     20  C   UNL     1       3.323  -7.261   5.510  0.00  0.00    +0.259 C 
ATOM     21  N   UNL     1       3.346  -6.531   4.233  0.00  0.00    -0.311 N 
ATOM     22  F   UNL     1       2.099  -7.049   6.154  0.00  0.00    -0.224 F 
ATOM     23  H   UNL     1       3.360  -7.008   3.388  0.00  0.00    +0.149 HD
ENDROOT
BRANCH   1  28
ATOM     24  C   UNL     1      -0.017   1.375   0.010  0.00  0.00    +0.001 A 
ATOM     25  C   UNL     1       1.169   2.089   0.002  0.00  0.00    +0.004 A 
ATOM     26  C   UNL     1       2.382   1.427  -0.013  0.00  0.00    +0.046 A 
ATOM     27  C   UNL     1       2.417   0.042  -0.021  0.00  0.00    +0.125 A 
ATOM     28  C   UNL     1       1.220  -0.683  -0.013  0.00  0.00    +0.024 A 
ATOM     29  C   UNL     1       0.002  -0.004   0.002  0.00  0.00    +0.012 A 
BRANCH  27  30
ATOM     30  O   UNL     1       3.609  -0.610  -0.036  0.00  0.00    -0.506 OA
ATOM     31  H   UNL     1       3.963  -0.803   0.843  0.00  0.00    +0.292 HD
ENDBRANCH  27  30
ENDBRANCH   1  28
TORSDOF 2
