REMARK  Name = ZINC04212127
REMARK  11 active torsions:
REMARK  status: ('A' for Active; 'I' for Inactive)
REMARK    1  A    between atoms: C_1  and  C_2
REMARK    2  A    between atoms: C_9  and  O_27
REMARK    3  A    between atoms: C_14  and  O_21
REMARK    4  A    between atoms: C_15  and  O_19
REMARK    5  A    between atoms: C_16  and  O_17
REMARK    6  A    between atoms: O_17  and  C_18
REMARK    7  A    between atoms: O_19  and  C_20
REMARK    8  A    between atoms: O_21  and  C_22
REMARK    9  A    between atoms: C_24  and  C_25
REMARK   10  A    between atoms: C_24  and  O_26
REMARK   11  A    between atoms: O_27  and  C_28
REMARK                            x       y       z     vdW  Elec       q    Type
REMARK                         _______ _______ _______ _____ _____    ______ ____
ROOT
ATOM      1  C   UNL     1       0.040   1.550  -0.647  0.00  0.00    +0.011 C 
ATOM      2  C   UNL     1       0.032   0.024  -0.538  0.00  0.00    +0.022 C 
ATOM      3  C   UNL     1       0.837  -0.567  -1.694  0.00  0.00    +0.042 C 
ATOM      4  C   UNL     1       1.900   0.421  -2.128  0.00  0.00    -0.032 A 
ATOM      5  C   UNL     1       1.571   1.516  -2.893  0.00  0.00    +0.054 A 
ATOM      6  C   UNL     1       2.563   2.395  -3.308  0.00  0.00    +0.170 A 
ATOM      7  C   UNL     1       3.888   2.168  -2.947  0.00  0.00    +0.208 A 
ATOM      8  C   UNL     1       4.219   1.070  -2.167  0.00  0.00    +0.173 A 
ATOM      9  C   UNL     1       3.218   0.189  -1.741  0.00  0.00    +0.035 A 
ATOM     10  C   UNL     1       3.559  -0.945  -0.860  0.00  0.00    +0.035 A 
ATOM     11  C   UNL     1       2.988  -1.069   0.405  0.00  0.00    -0.030 A 
ATOM     12  C   UNL     1       3.265  -2.154   1.203  0.00  0.00    +0.054 A 
ATOM     13  C   UNL     1       4.152  -3.128   0.763  0.00  0.00    +0.165 A 
ATOM     14  C   UNL     1       4.757  -3.004  -0.483  0.00  0.00    +0.204 A 
ATOM     15  C   UNL     1       4.465  -1.920  -1.297  0.00  0.00    +0.173 A 
ATOM     16  C   UNL     1       2.093   0.049   0.901  0.00  0.00    +0.070 C 
ATOM     17  C   UNL     1       0.632  -0.387   0.804  0.00  0.00    +0.070 C 
ATOM     18  C   UNL     1      -0.164   0.269   1.934  0.00  0.00    +0.042 C 
ATOM     19  O   UNL     1       4.662   3.161  -3.481  0.00  0.00    -0.449 OA
ATOM     20  C   UNL     1       3.853   3.767  -4.507  0.00  0.00    +0.467 C 
ATOM     21  O   UNL     1       2.504   3.531  -4.062  0.00  0.00    -0.452 OA
ENDROOT
BRANCH  15  22
ATOM     22  O   UNL     1       5.056  -1.804  -2.516  0.00  0.00    -0.491 OA
ATOM     23  C   UNL     1       4.322  -2.291  -3.642  0.00  0.00    +0.277 C 
ENDBRANCH  15  22
BRANCH  14  24
ATOM     24  O   UNL     1       5.640  -3.950  -0.905  0.00  0.00    -0.488 OA
ATOM     25  C   UNL     1       5.093  -5.117  -1.523  0.00  0.00    +0.277 C 
ENDBRANCH  14  24
BRANCH  13  26
ATOM     26  O   UNL     1       4.428  -4.202   1.550  0.00  0.00    -0.491 OA
ATOM     27  C   UNL     1       3.771  -4.265   2.817  0.00  0.00    +0.277 C 
ENDBRANCH  13  26
BRANCH  17  28
ATOM     28  O   UNL     1       0.555  -1.807   0.938  0.00  0.00    -0.388 OA
ATOM     29  H   UNL     1       0.918  -2.144   1.768  0.00  0.00    +0.210 HD
ENDBRANCH  17  28
BRANCH   8  30
ATOM     30  O   UNL     1       5.514   0.849  -1.816  0.00  0.00    -0.491 OA
ATOM     31  C   UNL     1       5.966   1.441  -0.597  0.00  0.00    +0.277 C 
ENDBRANCH   8  30
TORSDOF 5
