REMARK  Name = ZINC48731216
REMARK  6 active torsions:
REMARK  status: ('A' for Active; 'I' for Inactive)
REMARK    1  A    between atoms: C_5  and  N_7
REMARK    2  A    between atoms: C_8  and  C_10
REMARK    3  A    between atoms: N_12  and  C_13
REMARK    4  A    between atoms: C_13  and  C_14
REMARK    5  A    between atoms: C_14  and  C_16
REMARK    6  A    between atoms: C_14  and  N_21
REMARK                            x       y       z     vdW  Elec       q    Type
REMARK                         _______ _______ _______ _____ _____    ______ ____
ROOT
ATOM      1  C   UNL     1       0.089  -4.221   0.295  0.00  0.00    +0.299 C 
ATOM      2  O   UNL     1       1.155  -4.795   0.208  0.00  0.00    -0.265 OA
ATOM      3  N   UNL     1      -1.053  -4.931   0.389  0.00  0.00    -0.309 N 
ATOM      4  H   UNL     1      -1.905  -4.473   0.459  0.00  0.00    +0.149 HD
ENDROOT
BRANCH   1   6
ATOM      5  N   UNL     1       1.184  -2.018   0.203  0.00  0.00    -0.277 N 
ATOM      6  C   UNL     1       0.042  -2.728   0.297  0.00  0.00    +0.303 C 
ATOM      7  O   UNL     1      -1.024  -2.155   0.384  0.00  0.00    -0.265 OA
ATOM      8  H   UNL     1       2.027  -2.474   0.055  0.00  0.00    +0.155 HD
BRANCH   5  13
ATOM      9  C   UNL     1       0.088   1.361   1.119  0.00  0.00    +0.002 A 
ATOM     10  C   UNL     1       1.085   2.119   0.539  0.00  0.00    +0.004 A 
ATOM     11  C   UNL     1       2.124   1.512  -0.156  0.00  0.00    -0.042 A 
ATOM     12  C   UNL     1       2.162   0.141  -0.266  0.00  0.00    -0.023 A 
ATOM     13  C   UNL     1       1.152  -0.626   0.317  0.00  0.00    +0.037 A 
ATOM     14  C   UNL     1       0.117  -0.015   1.008  0.00  0.00    +0.023 A 
ATOM     15  C   UNL     1       3.265  -0.585  -0.990  0.00  0.00    +0.037 C 
ATOM     16  C   UNL     1       4.023   0.369  -1.911  0.00  0.00    +0.005 C 
ATOM     17  C   UNL     1       4.432   1.603  -1.097  0.00  0.00    +0.005 C 
ATOM     18  C   UNL     1       3.172   2.403  -0.769  0.00  0.00    +0.035 C 
ENDBRANCH   5  13
ENDBRANCH   1   6
BRANCH   3  19
ATOM     19  C   UNL     1      -1.007  -6.396   0.387  0.00  0.00    +0.097 C 
BRANCH  19  20
ATOM     20  C   UNL     1      -2.433  -6.950   0.379  0.00  0.00    +0.016 C 
BRANCH  20  21
ATOM     21  N   UNL     1      -3.181  -6.396   1.515  0.00  0.00    +0.387 N 
ATOM     22  C   UNL     1      -2.455  -6.677   2.760  0.00  0.00    -0.078 C 
ATOM     23  C   UNL     1      -3.188  -6.033   3.938  0.00  0.00    -0.019 C 
ATOM     24  C   UNL     1      -4.604  -6.610   4.030  0.00  0.00    -0.004 C 
ATOM     25  C   UNL     1      -5.326  -6.377   2.700  0.00  0.00    -0.019 C 
ATOM     26  C   UNL     1      -4.514  -7.009   1.567  0.00  0.00    -0.078 C 
ATOM     27  H   UNL     1      -3.275  -5.398   1.401  0.00  0.00    -0.081 HD
ENDBRANCH  20  21
BRANCH  20  28
ATOM     28  C   UNL     1      -3.115  -6.563  -0.908  0.00  0.00    +0.093 A 
ATOM     29  C   UNL     1      -3.278  -7.356  -1.982  0.00  0.00    +0.043 A 
ATOM     30  C   UNL     1      -3.964  -6.593  -2.954  0.00  0.00    +0.041 A 
ATOM     31  C   UNL     1      -4.180  -5.379  -2.417  0.00  0.00    +0.195 A 
ATOM     32  O   UNL     1      -3.668  -5.368  -1.175  0.00  0.00    -0.469 OA
ENDBRANCH  20  28
ENDBRANCH  19  20
ENDBRANCH   3  19
TORSDOF 6
