REMARK  Name = ZINC66897437
REMARK  7 active torsions:
REMARK  status: ('A' for Active; 'I' for Inactive)
REMARK    1  A    between atoms: C_1  and  C_2
REMARK    2  A    between atoms: C_2  and  C_27
REMARK    3  A    between atoms: C_5  and  C_21
REMARK    4  A    between atoms: N_8  and  C_9
REMARK    5  A    between atoms: C_9  and  C_10
REMARK    6  A    between atoms: N_12  and  C_13
REMARK    7  A    between atoms: C_14  and  C_18
REMARK                            x       y       z     vdW  Elec       q    Type
REMARK                         _______ _______ _______ _____ _____    ______ ____
ROOT
ATOM      1  C   UNL     1       2.114  -0.051   1.187  0.00  0.00    +0.181 C 
ENDROOT
BRANCH   1   8
ATOM      2  C   UNL     1      -0.019   1.526   0.010  0.00  0.00    +0.030 C 
ATOM      3  C   UNL     1       0.002  -0.004   0.002  0.00  0.00    +0.040 C 
ATOM      4  C   UNL     1      -1.434  -0.535   0.018  0.00  0.00    +0.182 C 
ATOM      5  O   UNL     1      -2.072  -0.132   1.233  0.00  0.00    -0.369 OA
ATOM      6  C   UNL     1      -1.406  -0.590   2.413  0.00  0.00    +0.162 C 
ATOM      7  C   UNL     1       0.030  -0.060   2.421  0.00  0.00    +0.122 C 
ATOM      8  N   UNL     1       0.713  -0.492   1.193  0.00  0.00    -0.284 NA
ATOM      9  C   UNL     1       0.716  -0.498  -1.258  0.00  0.00    +0.030 C 
BRANCH   6  10
ATOM     10  C   UNL     1      -2.137  -0.086   3.631  0.00  0.00    -0.018 A 
ATOM     11  C   UNL     1      -2.739   1.158   3.610  0.00  0.00    +0.006 A 
ATOM     12  C   UNL     1      -3.409   1.621   4.727  0.00  0.00    +0.000 A 
ATOM     13  C   UNL     1      -3.477   0.839   5.865  0.00  0.00    +0.000 A 
ATOM     14  C   UNL     1      -2.875  -0.405   5.886  0.00  0.00    +0.000 A 
ATOM     15  C   UNL     1      -2.209  -0.870   4.767  0.00  0.00    +0.006 A 
ENDBRANCH   6  10
ENDBRANCH   1   8
BRANCH   1  16
ATOM     16  C   UNL     1       2.870  -0.763   2.279  0.00  0.00    +0.232 C 
ATOM     17  O   UNL     1       2.297  -1.560   2.992  0.00  0.00    -0.274 OA
ATOM     18  N   UNL     1       4.181  -0.515   2.463  0.00  0.00    -0.278 N 
ATOM     19  H   UNL     1       4.639   0.122   1.893  0.00  0.00    +0.155 HD
BRANCH  18  20
ATOM     20  C   UNL     1       4.877  -1.171   3.468  0.00  0.00    +0.084 A 
ATOM     21  C   UNL     1       6.216  -1.038   3.805  0.00  0.00    +0.065 A 
ATOM     22  C   UNL     1       6.689  -1.848   4.905  0.00  0.00    +0.022 A 
ATOM     23  C   UNL     1       5.771  -2.644   5.484  0.00  0.00    +0.048 A 
ATOM     24  S   UNL     1       4.289  -2.301   4.561  0.00  0.00    -0.081 S 
BRANCH  21  25
ATOM     25  C   UNL     1       7.106  -0.125   3.082  0.00  0.00    +0.244 C 
ATOM     26  O   UNL     1       6.675   0.542   2.159  0.00  0.00    -0.270 OA
ATOM     27  N   UNL     1       8.402  -0.024   3.438  0.00  0.00    -0.325 N 
ATOM     28  H   UNL     1       8.746  -0.555   4.173  0.00  0.00    +0.145 HD
ATOM     29  H   UNL     1       8.991   0.580   2.959  0.00  0.00    +0.145 HD
ENDBRANCH  21  25
ENDBRANCH  18  20
ENDBRANCH   1  16
TORSDOF 5
