REMARK  Name = ZINC09083613
REMARK  14 active torsions:
REMARK  status: ('A' for Active; 'I' for Inactive)
REMARK    1  A    between atoms: C_1  and  C_2
REMARK    2  A    between atoms: C_2  and  C_4
REMARK    3  A    between atoms: C_2  and  O_32
REMARK    4  A    between atoms: C_4  and  C_6
REMARK    5  A    between atoms: C_4  and  N_20
REMARK    6  A    between atoms: C_6  and  O_8
REMARK    7  A    between atoms: O_8  and  C_9
REMARK    8  A    between atoms: C_9  and  C_10
REMARK    9  A    between atoms: N_15  and  C_16
REMARK   10  A    between atoms: C_16  and  C_17
REMARK   11  A    between atoms: C_17  and  C_18
REMARK   12  A    between atoms: C_17  and  C_19
REMARK   13  A    between atoms: N_20  and  S_21
REMARK   14  A    between atoms: S_21  and  C_24
REMARK                            x       y       z     vdW  Elec       q    Type
REMARK                         _______ _______ _______ _____ _____    ______ ____
ROOT
ATOM      1  C   UNL     1       0.821  -0.449   1.147  0.00  0.00    +0.213 C 
ENDROOT
BRANCH   1   3
ATOM      2  C   UNL     1       0.093   1.592  -0.098  0.00  0.00    +0.040 C 
ATOM      3  C   UNL     1       0.033   0.064  -0.061  0.00  0.00    +0.141 C 
BRANCH   3   4
ATOM      4  O   UNL     1      -1.328  -0.357   0.045  0.00  0.00    -0.390 OA
ATOM      5  H   UNL     1      -1.442  -1.317   0.073  0.00  0.00    +0.210 HD
ENDBRANCH   3   4
ENDBRANCH   1   3
BRANCH   1   6
ATOM      6  C   UNL     1       0.878  -1.954   1.107  0.00  0.00    +0.329 C 
ATOM      7  O   UNL     1       1.946  -2.516   1.052  0.00  0.00    -0.249 OA
BRANCH   6   8
ATOM      8  O   UNL     1      -0.257  -2.670   1.133  0.00  0.00    -0.454 OA
BRANCH   8   9
ATOM      9  C   UNL     1      -0.127  -4.093   1.092  0.00  0.00    +0.328 C 
BRANCH   9  10
ATOM     10  C   UNL     1      -1.496  -4.723   1.129  0.00  0.00    +0.258 C 
ATOM     11  O   UNL     1      -2.484  -4.023   1.184  0.00  0.00    -0.272 OA
ATOM     12  N   UNL     1      -1.621  -6.064   1.101  0.00  0.00    -0.237 N 
ATOM     13  C   UNL     1      -2.845  -6.628   1.133  0.00  0.00    +0.306 C 
ATOM     14  O   UNL     1      -3.835  -5.926   1.189  0.00  0.00    -0.252 OA
ATOM     15  N   UNL     1      -2.970  -7.969   1.105  0.00  0.00    -0.299 N 
ATOM     16  H   UNL     1      -0.830  -6.624   1.056  0.00  0.00    +0.159 HD
ATOM     17  H   UNL     1      -2.179  -8.530   1.061  0.00  0.00    +0.150 HD
BRANCH  15  18
ATOM     18  C   UNL     1      -4.300  -8.582   1.141  0.00  0.00    +0.108 C 
BRANCH  18  19
ATOM     19  C   UNL     1      -4.162 -10.105   1.097  0.00  0.00    -0.000 C 
ATOM     20  C   UNL     1      -3.459 -10.589   2.367  0.00  0.00    +0.009 C 
ATOM     21  C   UNL     1      -5.550 -10.741   1.009  0.00  0.00    +0.009 C 
ENDBRANCH  18  19
ENDBRANCH  15  18
ENDBRANCH   9  10
ENDBRANCH   8   9
ENDBRANCH   6   8
ENDBRANCH   1   6
BRANCH   1  22
ATOM     22  N   UNL     1       2.181   0.094   1.108  0.00  0.00    -0.174 NA
ATOM     23  H   UNL     1       2.732  -0.035   0.320  0.00  0.00    +0.149 HD
BRANCH  22  24
ATOM     24  S   UNL     1       2.778   0.925   2.409  0.00  0.00    +0.059 S 
ATOM     25  O   UNL     1       4.124   1.257   2.097  0.00  0.00    -0.153 OA
ATOM     26  O   UNL     1       1.809   1.909   2.742  0.00  0.00    -0.153 OA
BRANCH  24  27
ATOM     27  C   UNL     1       2.838  -0.200   3.764  0.00  0.00    +0.107 A 
ATOM     28  C   UNL     1       1.747  -0.332   4.602  0.00  0.00    +0.030 A 
ATOM     29  C   UNL     1       1.793  -1.214   5.665  0.00  0.00    +0.023 A 
ATOM     30  C   UNL     1       2.931  -1.966   5.891  0.00  0.00    +0.059 A 
ATOM     31  C   UNL     1       4.025  -1.835   5.051  0.00  0.00    +0.061 A 
ATOM     32  C   UNL     1       3.975  -0.955   3.985  0.00  0.00    +0.050 A 
ATOM     33 CL   UNL     1       5.455  -2.778   5.334  0.00  0.00    -0.082 Cl
ATOM     34 CL   UNL     1       2.990  -3.074   7.226  0.00  0.00    -0.082 Cl
ENDBRANCH  24  27
ENDBRANCH  22  24
ENDBRANCH   1  22
TORSDOF 11
