REMARK  Name = ZINC19356468
REMARK  9 active torsions:
REMARK  status: ('A' for Active; 'I' for Inactive)
REMARK    1  A    between atoms: C_1  and  C_2
REMARK    2  A    between atoms: C_5  and  N_8
REMARK    3  A    between atoms: C_12  and  S_13
REMARK    4  A    between atoms: S_13  and  C_14
REMARK    5  A    between atoms: C_14  and  C_15
REMARK    6  A    between atoms: C_15  and  C_17
REMARK    7  A    between atoms: C_17  and  C_27
REMARK    8  A    between atoms: C_27  and  O_29
REMARK    9  A    between atoms: O_29  and  C_30
REMARK                            x       y       z     vdW  Elec       q    Type
REMARK                         _______ _______ _______ _____ _____    ______ ____
ROOT
ATOM      1  C   UNL     1       3.701   3.251  -0.015  0.00  0.00    +0.157 C 
ENDROOT
BRANCH   1   2
ATOM      2  C   UNL     1       5.177   2.946  -0.030  0.00  0.00    +0.183 C 
ATOM      3  O   UNL     1       5.559   1.792  -0.038  0.00  0.00    -0.291 OA
BRANCH   2   4
ATOM      4  C   UNL     1       6.112   3.997  -0.033  0.00  0.00    +0.138 C 
ATOM      5  C   UNL     1       7.491   3.711  -0.047  0.00  0.00    +0.110 C 
ATOM      6  N   UNL     1       8.036   2.469  -0.051  0.00  0.00    -0.301 N 
ATOM      7  C   UNL     1       9.420   2.599  -0.068  0.00  0.00    +0.054 A 
ATOM      8  C   UNL     1      10.459   1.679  -0.080  0.00  0.00    +0.025 A 
ATOM      9  C   UNL     1      11.767   2.120  -0.089  0.00  0.00    +0.002 A 
ATOM     10  C   UNL     1      12.048   3.476  -0.086  0.00  0.00    +0.002 A 
ATOM     11  C   UNL     1      11.022   4.399  -0.074  0.00  0.00    +0.025 A 
ATOM     12  C   UNL     1       9.703   3.967  -0.065  0.00  0.00    +0.054 A 
ATOM     13  N   UNL     1       8.484   4.636  -0.051  0.00  0.00    -0.301 N 
ATOM     14  H   UNL     1       7.385   1.582  -0.043  0.00  0.00    +0.153 HD
ATOM     15  H   UNL     1       8.238   5.708  -0.045  0.00  0.00    +0.153 HD
BRANCH   4  16
ATOM     16  C   UNL     1       5.653   5.384  -0.023  0.00  0.00    +0.345 C 
ATOM     17  O   UNL     1       6.462   6.293  -0.026  0.00  0.00    -0.245 OA
BRANCH  16  18
ATOM     18  O   UNL     1       4.332   5.657  -0.010  0.00  0.00    -0.464 OA
ATOM     19  C   UNL     1       3.955   7.036  -0.000  0.00  0.00    +0.280 C 
ENDBRANCH  16  18
ENDBRANCH   4  16
ENDBRANCH   2   4
ENDBRANCH   1   2
BRANCH   1  20
ATOM     20  S   UNL     1       2.763   1.699  -0.014  0.00  0.00    -0.078 S 
BRANCH  20  25
ATOM     21  N   UNL     1      -0.017   1.398   0.010  0.00  0.00    -0.259 N 
ATOM     22  C   UNL     1      -1.134   2.188   0.019  0.00  0.00    +0.225 A 
ATOM     23  N   UNL     1      -0.745   3.440   0.026  0.00  0.00    -0.112 NA
ATOM     24  N   UNL     1       0.655   3.459   0.014  0.00  0.00    -0.120 NA
ATOM     25  C   UNL     1       1.079   2.219   0.004  0.00  0.00    +0.198 A 
ATOM     26  N   UNL     1      -2.450   1.742   0.022  0.00  0.00    -0.299 N 
ATOM     27  C   UNL     1      -2.743   0.961   1.251  0.00  0.00    +0.108 C 
ATOM     28  C   UNL     1      -4.289   1.012   1.343  0.00  0.00    +0.020 C 
ATOM     29  C   UNL     1      -4.617   2.444   0.862  0.00  0.00    +0.020 C 
ATOM     30  C   UNL     1      -3.395   2.880   0.032  0.00  0.00    +0.108 C 
BRANCH  21  35
ATOM     31  C   UNL     1       0.059  -4.277  -0.021  0.00  0.00    +0.044 C 
ATOM     32  C   UNL     1       0.039  -2.771  -0.013  0.00  0.00    -0.050 A 
ATOM     33  C   UNL     1       0.546  -2.079   1.072  0.00  0.00    +0.005 A 
ATOM     34  C   UNL     1       0.529  -0.698   1.082  0.00  0.00    +0.026 A 
ATOM     35  C   UNL     1       0.002  -0.004   0.002  0.00  0.00    +0.052 A 
ATOM     36  C   UNL     1      -0.511  -0.701  -1.083  0.00  0.00    +0.026 A 
ATOM     37  C   UNL     1      -0.487  -2.082  -1.090  0.00  0.00    +0.005 A 
ENDBRANCH  21  35
ENDBRANCH  20  25
ENDBRANCH   1  20
TORSDOF 7
