REMARK  Name = ZINC09783893
REMARK  14 active torsions:
REMARK  status: ('A' for Active; 'I' for Inactive)
REMARK    1  A    between atoms: C_1  and  C_2
REMARK    2  A    between atoms: C_2  and  C_3
REMARK    3  A    between atoms: C_3  and  C_5
REMARK    4  A    between atoms: C_3  and  O_6
REMARK    5  A    between atoms: O_6  and  C_7
REMARK    6  A    between atoms: C_7  and  C_9
REMARK    7  A    between atoms: C_9  and  C_10
REMARK    8  A    between atoms: N_17  and  C_18
REMARK    9  A    between atoms: C_18  and  N_20
REMARK   10  A    between atoms: C_21  and  C_23
REMARK   11  A    between atoms: C_26  and  O_30
REMARK   12  A    between atoms: O_30  and  C_31
REMARK   13  A    between atoms: C_31  and  C_32
REMARK   14  A    between atoms: C_31  and  C_33
REMARK                            x       y       z     vdW  Elec       q    Type
REMARK                         _______ _______ _______ _____ _____    ______ ____
ROOT
ATOM      1  C   UNL     1      -0.851  -5.867  -0.243  0.00  0.00    +0.140 C 
ATOM      2  S   UNL     1      -0.689  -4.167  -0.359  0.00  0.00    -0.018 S 
ENDROOT
BRANCH   1   9
ATOM      3  C   UNL     1      -2.259  -7.879  -0.142  0.00  0.00    +0.171 C 
ATOM      4  C   UNL     1      -3.239  -8.261   0.939  0.00  0.00    +0.234 C 
ATOM      5  O   UNL     1      -3.346  -9.432   1.236  0.00  0.00    -0.274 OA
ATOM      6  N   UNL     1      -3.995  -7.370   1.582  0.00  0.00    -0.312 N 
ATOM      7  C   UNL     1      -3.912  -5.928   1.398  0.00  0.00    +0.123 C 
ATOM      8  C   UNL     1      -3.278  -5.590   0.047  0.00  0.00    +0.126 C 
ATOM      9  N   UNL     1      -2.073  -6.421  -0.116  0.00  0.00    -0.299 N 
ATOM     10  H   UNL     1      -4.647  -7.707   2.217  0.00  0.00    +0.149 HD
BRANCH   3  11
ATOM     11  C   UNL     1      -2.806  -8.302  -1.507  0.00  0.00    +0.152 C 
BRANCH  11  12
ATOM     12  C   UNL     1      -1.769  -8.037  -2.567  0.00  0.00    +0.310 C 
ATOM     13  O   UNL     1      -0.667  -7.653  -2.253  0.00  0.00    -0.251 OA
BRANCH  12  14
ATOM     14  O   UNL     1      -2.069  -8.229  -3.862  0.00  0.00    -0.462 OA
BRANCH  14  15
ATOM     15  C   UNL     1      -1.021  -7.954  -4.829  0.00  0.00    +0.173 C 
ATOM     16  C   UNL     1      -1.102  -6.490  -5.266  0.00  0.00    +0.052 C 
BRANCH  15  18
ATOM     17  C   UNL     1      -0.996 -10.319  -5.633  0.00  0.00    +0.007 C 
ATOM     18  C   UNL     1      -1.201  -8.861  -6.048  0.00  0.00    +0.041 C 
ENDBRANCH  15  18
ENDBRANCH  14  15
ENDBRANCH  12  14
ENDBRANCH  11  12
ENDBRANCH   3  11
ENDBRANCH   1   9
BRANCH   1  19
ATOM     19  N   UNL     1       0.244  -6.652  -0.279  0.00  0.00    -0.264 N 
ATOM     20  C   UNL     1       1.471  -6.096  -0.300  0.00  0.00    +0.250 C 
ATOM     21  O   UNL     1       1.591  -4.886  -0.287  0.00  0.00    -0.270 OA
ATOM     22  H   UNL     1       0.148  -7.617  -0.289  0.00  0.00    +0.157 HD
BRANCH  20  23
ATOM     23  C   UNL     1       2.670  -6.955  -0.339  0.00  0.00    +0.038 A 
ATOM     24  C   UNL     1       3.944  -6.380  -0.361  0.00  0.00    +0.017 A 
ATOM     25  C   UNL     1       5.060  -7.186  -0.397  0.00  0.00    +0.047 A 
ATOM     26  C   UNL     1       4.922  -8.569  -0.411  0.00  0.00    +0.135 A 
ATOM     27  C   UNL     1       3.656  -9.145  -0.395  0.00  0.00    +0.060 A 
ATOM     28  C   UNL     1       2.534  -8.346  -0.353  0.00  0.00    +0.032 A 
ATOM     29 BR   UNL     1       3.475 -11.027  -0.422  0.00  0.00    -0.046 Br
BRANCH  26  30
ATOM     30  O   UNL     1       6.025  -9.359  -0.446  0.00  0.00    -0.488 OA
BRANCH  30  31
ATOM     31  C   UNL     1       7.287  -8.705  -0.597  0.00  0.00    +0.167 C 
ATOM     32  C   UNL     1       7.902  -8.460   0.783  0.00  0.00    +0.051 C 
ATOM     33  C   UNL     1       8.223  -9.588  -1.423  0.00  0.00    +0.051 C 
ENDBRANCH  30  31
ENDBRANCH  26  30
ENDBRANCH  20  23
ENDBRANCH   1  19
TORSDOF 10
