REMARK  Name = ZINC17013486
REMARK  4 active torsions:
REMARK  status: ('A' for Active; 'I' for Inactive)
REMARK    1  A    between atoms: C_1  and  C_2
REMARK    2  A    between atoms: C_19  and  C_30
REMARK    3  A    between atoms: C_21  and  N_27
REMARK    4  A    between atoms: C_23  and  O_26
REMARK                            x       y       z     vdW  Elec       q    Type
REMARK                         _______ _______ _______ _____ _____    ______ ____
ROOT
ATOM      1  C   UNL     1       0.479   8.054  -3.002  0.00  0.00    +0.019 C 
ATOM      2  C   UNL     1       0.546   8.161  -1.477  0.00  0.00    +0.029 C 
ATOM      3  C   UNL     1       1.946   7.910  -0.979  0.00  0.00    +0.015 C 
ATOM      4  C   UNL     1       2.174   6.419  -0.692  0.00  0.00    +0.005 C 
ATOM      5  C   UNL     1       1.219   5.546  -1.491  0.00  0.00    -0.001 C 
ATOM      6  C   UNL     1      -0.222   5.785  -1.039  0.00  0.00    -0.003 C 
ATOM      7  C   UNL     1      -0.469   7.238  -0.773  0.00  0.00    +0.006 C 
ATOM      8  C   UNL     1      -1.804   7.823  -1.261  0.00  0.00    +0.012 C 
ATOM      9  C   UNL     1      -1.530   9.353  -1.236  0.00  0.00    +0.075 C 
ATOM     10  C   UNL     1      -0.020   9.524  -1.114  0.00  0.00    +0.139 C 
ATOM     11  O   UNL     1       0.598  10.504  -0.803  0.00  0.00    -0.297 OA
ATOM     12  C   UNL     1      -1.204   5.147  -2.012  0.00  0.00    +0.004 C 
ATOM     13  C   UNL     1      -0.747   3.712  -2.322  0.00  0.00    +0.004 C 
ATOM     14  C   UNL     1       0.241   3.277  -1.250  0.00  0.00    -0.002 C 
ATOM     15  C   UNL     1       1.549   4.060  -1.359  0.00  0.00    -0.024 C 
ATOM     16  C   UNL     1       2.412   3.754  -0.142  0.00  0.00    +0.039 C 
ATOM     17  C   UNL     1       2.699   2.249  -0.079  0.00  0.00    +0.171 C 
ATOM     18  C   UNL     1       1.403   1.443  -0.054  0.00  0.00    +0.142 C 
ATOM     19  C   UNL     1       0.520   1.780  -1.260  0.00  0.00    +0.037 C 
ATOM     20  C   UNL     1       2.304   3.652  -2.627  0.00  0.00    +0.012 C 
ENDROOT
BRANCH  17  21
ATOM     21  N   UNL     1       3.455   1.963   1.150  0.00  0.00    -0.104 NA
ATOM     22  N   UNL     1       3.856   0.929   1.335  0.00  0.00    -0.167 NA
ATOM     23  N   UNL     1       4.256  -0.104   1.521  0.00  0.00    +0.068 NA
ENDBRANCH  17  21
BRANCH  18  24
ATOM     24  O   UNL     1       1.716   0.048  -0.077  0.00  0.00    -0.390 OA
ATOM     25  H   UNL     1       2.253  -0.247   0.671  0.00  0.00    +0.210 HD
ENDBRANCH  18  24
TORSDOF 2
