REMARK  Name = ZINC07098959
REMARK  2 active torsions:
REMARK  status: ('A' for Active; 'I' for Inactive)
REMARK    1  A    between atoms: C_12  and  C_21
REMARK    2  A    between atoms: C_26  and  N_27
REMARK                            x       y       z     vdW  Elec       q    Type
REMARK                         _______ _______ _______ _____ _____    ______ ____
ROOT
ATOM      1  C   UNL     1       1.605   5.340  -0.972  0.00  0.00    +0.001 A 
ATOM      2  C   UNL     1       2.192   4.195  -1.506  0.00  0.00    +0.001 A 
ATOM      3  C   UNL     1       3.259   3.606  -0.900  0.00  0.00    +0.010 A 
ATOM      4  C   UNL     1       3.776   4.157   0.283  0.00  0.00    +0.003 A 
ATOM      5  C   UNL     1       3.184   5.323   0.824  0.00  0.00    -0.016 A 
ATOM      6  C   UNL     1       2.083   5.904   0.172  0.00  0.00    +0.008 A 
ATOM      7  C   UNL     1       3.711   5.875   2.003  0.00  0.00    +0.009 A 
ATOM      8  C   UNL     1       4.771   5.283   2.611  0.00  0.00    +0.006 A 
ATOM      9  C   UNL     1       5.367   4.125   2.095  0.00  0.00    -0.019 A 
ATOM     10  C   UNL     1       4.881   3.561   0.940  0.00  0.00    +0.039 A 
ATOM     11  N   UNL     1       5.435   2.417   0.378  0.00  0.00    -0.336 N 
ATOM     12  C   UNL     1       6.101   1.575   1.373  0.00  0.00    +0.107 C 
ATOM     13  C   UNL     1       7.191   2.389   2.074  0.00  0.00    +0.029 C 
ATOM     14  C   UNL     1       6.531   3.560   2.832  0.00  0.00    +0.049 C 
ATOM     15  C   UNL     1       6.046   2.938   4.121  0.00  0.00    -0.023 C 
ATOM     16  C   UNL     1       6.694   1.827   4.367  0.00  0.00    -0.030 C 
ATOM     17  C   UNL     1       7.727   1.543   3.263  0.00  0.00    +0.033 C 
ATOM     18  H   UNL     1       6.064   2.652  -0.376  0.00  0.00    +0.147 HD
ENDROOT
BRANCH  12  19
ATOM     19  C   UNL     1       5.093   1.104   2.389  0.00  0.00    +0.003 A 
ATOM     20  C   UNL     1       4.021   1.911   2.725  0.00  0.00    +0.008 A 
ATOM     21  C   UNL     1       3.096   1.479   3.657  0.00  0.00    +0.000 A 
ATOM     22  C   UNL     1       3.243   0.241   4.254  0.00  0.00    +0.002 A 
ATOM     23  C   UNL     1       4.314  -0.566   3.918  0.00  0.00    +0.033 A 
ATOM     24  C   UNL     1       5.236  -0.136   2.982  0.00  0.00    +0.131 A 
BRANCH  24  25
ATOM     25  N   UNL     1       6.380  -1.002   2.618  0.00  0.00    +0.057 N 
ATOM     26  O   UNL     1       7.021  -1.563   3.489  0.00  0.00    -0.126 OA
ATOM     27  O   UNL     1       6.681  -1.154   1.448  0.00  0.00    -0.126 OA
ENDBRANCH  24  25
ENDBRANCH  12  19
TORSDOF 2
