REMARK  Name = ZINC35593641
REMARK  10 active torsions:
REMARK  status: ('A' for Active; 'I' for Inactive)
REMARK    1  A    between atoms: C_1  and  C_2
REMARK    2  A    between atoms: C_2  and  C_3
REMARK    3  A    between atoms: C_3  and  N_4
REMARK    4  A    between atoms: N_7  and  C_8
REMARK    5  A    between atoms: N_7  and  C_28
REMARK    6  A    between atoms: C_8  and  C_9
REMARK    7  A    between atoms: C_19  and  C_21
REMARK    8  A    between atoms: C_28  and  C_29
REMARK    9  A    between atoms: C_28  and  C_30
REMARK   10  A    between atoms: C_28  and  C_31
REMARK                            x       y       z     vdW  Elec       q    Type
REMARK                         _______ _______ _______ _____ _____    ______ ____
ROOT
ATOM      1  C   UNL     1       3.354  -4.872  -2.620  0.00  0.00    +0.234 C 
ATOM      2  O   UNL     1       3.921  -4.470  -1.627  0.00  0.00    -0.274 OA
ATOM      3  N   UNL     1       4.016  -5.637  -3.511  0.00  0.00    -0.286 N 
ATOM      4  C   UNL     1       3.351  -6.132  -4.726  0.00  0.00    +0.130 C 
ATOM      5  C   UNL     1       4.029  -5.523  -5.958  0.00  0.00    +0.140 C 
ATOM      6  N   UNL     1       5.485  -5.632  -5.811  0.00  0.00    -0.347 N 
ATOM      7  C   UNL     1       6.415  -5.545  -6.800  0.00  0.00    +0.086 A 
ATOM      8  C   UNL     1       7.637  -5.689  -6.245  0.00  0.00    +0.019 A 
ATOM      9  C   UNL     1       7.454  -5.875  -4.859  0.00  0.00    +0.025 A 
ATOM     10  C   UNL     1       6.133  -5.840  -4.623  0.00  0.00    +0.044 A 
ATOM     11  C   UNL     1       5.430  -5.998  -3.299  0.00  0.00    +0.153 C 
ENDROOT
BRANCH  11  12
ATOM     12  C   UNL     1       5.532  -7.428  -2.835  0.00  0.00    -0.021 A 
ATOM     13  C   UNL     1       6.039  -7.712  -1.581  0.00  0.00    +0.007 A 
ATOM     14  C   UNL     1       6.133  -9.024  -1.155  0.00  0.00    +0.020 A 
ATOM     15  C   UNL     1       5.720 -10.052  -1.984  0.00  0.00    +0.041 A 
ATOM     16  C   UNL     1       5.213  -9.766  -3.239  0.00  0.00    +0.020 A 
ATOM     17  C   UNL     1       5.114  -8.454  -3.662  0.00  0.00    +0.007 A 
ATOM     18 CL   UNL     1       5.838 -11.699  -1.449  0.00  0.00    -0.084 Cl
ENDBRANCH  11  12
BRANCH   1  19
ATOM     19  C   UNL     1       1.909  -4.518  -2.858  0.00  0.00    +0.205 C 
BRANCH  19  23
ATOM     20  N   UNL     1       1.989  -1.762  -2.950  0.00  0.00    -0.299 N 
ATOM     21  C   UNL     1       1.529  -2.344  -1.825  0.00  0.00    +0.303 C 
ATOM     22  O   UNL     1       1.210  -1.658  -0.873  0.00  0.00    -0.253 OA
ATOM     23  N   UNL     1       1.422  -3.686  -1.755  0.00  0.00    -0.272 N 
ATOM     24  H   UNL     1       2.310  -2.310  -3.683  0.00  0.00    +0.150 HD
BRANCH  23  25
ATOM     25  C   UNL     1       0.819  -4.312  -0.576  0.00  0.00    +0.031 C 
ATOM     26  C   UNL     1      -0.643  -3.876  -0.458  0.00  0.00    +0.031 C 
ATOM     27  C   UNL     1       0.887  -5.834  -0.716  0.00  0.00    +0.031 C 
ATOM     28  C   UNL     1       1.583  -3.881   0.677  0.00  0.00    +0.031 C 
ENDBRANCH  23  25
BRANCH  20  29
ATOM     29  C   UNL     1       2.003  -0.302  -3.067  0.00  0.00    +0.105 C 
BRANCH  29  31
ATOM     30  C   UNL     1       2.584   1.620  -4.554  0.00  0.00    +0.005 C 
ATOM     31  C   UNL     1       2.568   0.095  -4.432  0.00  0.00    +0.015 C 
ENDBRANCH  29  31
ENDBRANCH  20  29
ENDBRANCH  19  23
ENDBRANCH   1  19
TORSDOF 6
