REMARK  Name = ZINC25496809
REMARK  10 active torsions:
REMARK  status: ('A' for Active; 'I' for Inactive)
REMARK    1  A    between atoms: C_1  and  C_2
REMARK    2  A    between atoms: C_2  and  C_4
REMARK    3  A    between atoms: C_2  and  N_15
REMARK    4  A    between atoms: N_9  and  C_10
REMARK    5  A    between atoms: N_15  and  C_16
REMARK    6  A    between atoms: C_19  and  N_22
REMARK    7  A    between atoms: C_23  and  C_25
REMARK    8  A    between atoms: C_25  and  C_26
REMARK    9  A    between atoms: C_26  and  C_27
REMARK   10  A    between atoms: C_26  and  C_28
REMARK                            x       y       z     vdW  Elec       q    Type
REMARK                         _______ _______ _______ _____ _____    ______ ____
ROOT
ATOM      1  N   UNL     1       0.679  -0.446  -1.202  0.00  0.00    -0.333 N 
ATOM      2  H   UNL     1       1.623  -0.665  -1.165  0.00  0.00    +0.147 HD
ENDROOT
BRANCH   1   3
ATOM      3  C   UNL     1      -0.027  -0.590  -2.401  0.00  0.00    +0.028 A 
ATOM      4  C   UNL     1      -1.377  -0.271  -2.455  0.00  0.00    +0.025 A 
ATOM      5  C   UNL     1      -2.073  -0.414  -3.639  0.00  0.00    +0.025 A 
ATOM      6  C   UNL     1      -1.423  -0.876  -4.776  0.00  0.00    +0.033 A 
ATOM      7  C   UNL     1      -0.072  -1.196  -4.721  0.00  0.00    +0.025 A 
ATOM      8  C   UNL     1       0.625  -1.047  -3.539  0.00  0.00    +0.025 A 
BRANCH   6   9
ATOM      9  N   UNL     1      -2.129  -1.022  -5.977  0.00  0.00    -0.285 N 
ATOM     10  C   UNL     1      -3.419  -1.412  -5.957  0.00  0.00    +0.217 C 
ATOM     11  O   UNL     1      -3.993  -1.556  -4.899  0.00  0.00    -0.275 OA
ATOM     12  H   UNL     1      -1.690  -0.841  -6.823  0.00  0.00    +0.155 HD
BRANCH  10  13
ATOM     13  C   UNL     1      -4.149  -1.668  -7.251  0.00  0.00    +0.099 C 
BRANCH  13  14
ATOM     14  C   UNL     1      -5.586  -2.095  -6.950  0.00  0.00    -0.008 C 
ATOM     15  C   UNL     1      -6.362  -2.235  -8.261  0.00  0.00    +0.008 C 
ATOM     16  C   UNL     1      -5.577  -3.439  -6.217  0.00  0.00    +0.008 C 
ENDBRANCH  13  14
ENDBRANCH  10  13
ENDBRANCH   6   9
ENDBRANCH   1   3
BRANCH   1  18
ATOM     17  C   UNL     1      -0.028   1.566  -0.004  0.00  0.00    +0.038 C 
ATOM     18  C   UNL     1      -0.009   0.036  -0.001  0.00  0.00    +0.154 C 
BRANCH  18  19
ATOM     19  C   UNL     1       0.717  -0.456   1.225  0.00  0.00    +0.240 C 
ATOM     20  O   UNL     1       1.710  -1.141   1.107  0.00  0.00    -0.273 OA
ATOM     21  N   UNL     1       0.261  -0.134   2.452  0.00  0.00    -0.239 N 
ATOM     22  C   UNL     1       0.910  -0.573   3.548  0.00  0.00    +0.306 C 
ATOM     23  O   UNL     1       1.906  -1.260   3.431  0.00  0.00    -0.252 OA
ATOM     24  N   UNL     1       0.455  -0.251   4.775  0.00  0.00    -0.296 N 
ATOM     25  H   UNL     1      -0.533   0.414   2.546  0.00  0.00    +0.159 HD
ATOM     26  H   UNL     1      -0.340   0.297   4.869  0.00  0.00    +0.151 HD
BRANCH  24  27
ATOM     27  C   UNL     1       1.161  -0.729   5.967  0.00  0.00    +0.074 C 
ATOM     28  C   UNL     1       0.630  -2.119   6.373  0.00  0.00    +0.022 C 
ATOM     29  C   UNL     1       0.639  -2.092   7.922  0.00  0.00    +0.002 C 
ATOM     30  C   UNL     1       0.198  -0.642   8.241  0.00  0.00    +0.002 C 
ATOM     31  C   UNL     1       0.886   0.211   7.154  0.00  0.00    +0.022 C 
ENDBRANCH  24  27
ENDBRANCH  18  19
ENDBRANCH   1  18
TORSDOF 7
