REMARK  Name = ZINC35842601
REMARK  22 active torsions:
REMARK  status: ('A' for Active; 'I' for Inactive)
REMARK    1  A    between atoms: C_1  and  C_2
REMARK    2  A    between atoms: C_2  and  C_3
REMARK    3  A    between atoms: C_2  and  C_4
REMARK    4  A    between atoms: C_4  and  C_6
REMARK    5  A    between atoms: C_4  and  O_40
REMARK    6  A    between atoms: C_6  and  N_7
REMARK    7  A    between atoms: N_7  and  C_8
REMARK    8  A    between atoms: N_7  and  C_13
REMARK    9  A    between atoms: C_8  and  C_9
REMARK   10  A    between atoms: C_9  and  C_10
REMARK   11  A    between atoms: C_10  and  O_11
REMARK   12  A    between atoms: O_11  and  C_12
REMARK   13  A    between atoms: C_13  and  C_14
REMARK   14  A    between atoms: N_16  and  C_17
REMARK   15  A    between atoms: N_16  and  C_29
REMARK   16  A    between atoms: C_17  and  C_18
REMARK   17  A    between atoms: C_18  and  C_19
REMARK   18  A    between atoms: C_29  and  C_30
REMARK   19  A    between atoms: C_33  and  C_36
REMARK   20  A    between atoms: C_36  and  C_37
REMARK   21  A    between atoms: C_36  and  C_38
REMARK   22  A    between atoms: C_36  and  C_39
REMARK                            x       y       z     vdW  Elec       q    Type
REMARK                         _______ _______ _______ _____ _____    ______ ____
ROOT
ATOM      1  C   UNL     1      -2.548  -4.427   1.224  0.00  0.00    +0.199 C 
ATOM      2  O   UNL     1      -2.106  -3.647   2.041  0.00  0.00    -0.278 OA
ATOM      3  N   UNL     1      -2.625  -5.740   1.520  0.00  0.00    -0.298 N 
ENDROOT
BRANCH   1   4
ATOM      4  C   UNL     1      -3.011  -3.930  -0.121  0.00  0.00    +0.019 C 
BRANCH   4   5
ATOM      5  N   UNL     1      -2.824  -2.475  -0.196  0.00  0.00    +0.387 N 
ATOM      6  H   UNL     1      -3.288  -2.036   0.586  0.00  0.00    -0.081 HD
BRANCH   5   7
ATOM      7  C   UNL     1      -3.398  -1.971  -1.451  0.00  0.00    -0.076 C 
BRANCH   7   8
ATOM      8  C   UNL     1      -3.251  -0.449  -1.504  0.00  0.00    +0.009 C 
BRANCH   8   9
ATOM      9  C   UNL     1      -3.959   0.088  -2.750  0.00  0.00    +0.157 C 
BRANCH   9  10
ATOM     10  O   UNL     1      -3.822   1.509  -2.800  0.00  0.00    -0.383 OA
ATOM     11  C   UNL     1      -4.451   2.114  -3.931  0.00  0.00    +0.193 C 
ENDBRANCH   9  10
ENDBRANCH   8   9
ENDBRANCH   7   8
ENDBRANCH   5   7
BRANCH   5  12
ATOM     12  C   UNL     1      -1.389  -2.162  -0.152  0.00  0.00    -0.046 C 
BRANCH  12  13
ATOM     13  C   UNL     1      -0.674  -2.893  -1.290  0.00  0.00    +0.101 C 
BRANCH  13  15
ATOM     14  C   UNL     1       1.555  -3.492  -2.247  0.00  0.00    +0.010 C 
ATOM     15  C   UNL     1       0.840  -2.761  -1.109  0.00  0.00    +0.010 C 
ATOM     16  C   UNL     1       1.229  -1.282  -1.128  0.00  0.00    +0.010 C 
ENDBRANCH  13  15
BRANCH  13  17
ATOM     17  O   UNL     1      -1.055  -2.316  -2.541  0.00  0.00    -0.393 OA
ATOM     18  H   UNL     1      -0.839  -1.377  -2.624  0.00  0.00    +0.210 HD
ENDBRANCH  13  17
ENDBRANCH  12  13
ENDBRANCH   5  12
ENDBRANCH   4   5
ENDBRANCH   1   4
BRANCH   3  19
ATOM     19  C   UNL     1      -2.175  -6.223   2.828  0.00  0.00    +0.142 C 
BRANCH  19  20
ATOM     20  C   UNL     1      -3.328  -6.195   3.798  0.00  0.00    -0.030 A 
ATOM     21  C   UNL     1      -3.569  -5.062   4.552  0.00  0.00    +0.005 A 
ATOM     22  C   UNL     1      -4.627  -5.036   5.442  0.00  0.00    +0.004 A 
ATOM     23  C   UNL     1      -5.444  -6.143   5.577  0.00  0.00    -0.042 A 
ATOM     24  C   UNL     1      -5.203  -7.276   4.822  0.00  0.00    +0.004 A 
ATOM     25  C   UNL     1      -4.148  -7.300   3.929  0.00  0.00    +0.005 A 
BRANCH  23  26
ATOM     26  C   UNL     1      -6.596  -6.115   6.547  0.00  0.00    -0.013 C 
ATOM     27  C   UNL     1      -7.559  -4.990   6.163  0.00  0.00    +0.015 C 
ATOM     28  C   UNL     1      -7.334  -7.455   6.503  0.00  0.00    +0.015 C 
ATOM     29  C   UNL     1      -6.066  -5.872   7.962  0.00  0.00    +0.015 C 
ENDBRANCH  23  26
ENDBRANCH  19  20
ENDBRANCH   3  19
BRANCH   3  30
ATOM     30  C   UNL     1      -3.158  -6.683   0.534  0.00  0.00    +0.113 C 
BRANCH  30  31
ATOM     31  C   UNL     1      -2.017  -7.209  -0.338  0.00  0.00    +0.056 C 
BRANCH  31  32
ATOM     32  C   UNL     1      -2.565  -8.179  -1.352  0.00  0.00    -0.021 A 
ATOM     33  C   UNL     1      -2.620  -9.515  -1.231  0.00  0.00    +0.087 A 
ATOM     34  N   UNL     1      -3.183 -10.062  -2.352  0.00  0.00    -0.360 N 
ATOM     35  H   UNL     1      -3.327 -11.011  -2.496  0.00  0.00    +0.165 HD
ATOM     36  C   UNL     1      -3.513  -9.067  -3.244  0.00  0.00    +0.047 A 
ATOM     37  C   UNL     1      -3.146  -7.843  -2.654  0.00  0.00    +0.003 A 
ATOM     38  C   UNL     1      -3.371  -6.646  -3.337  0.00  0.00    +0.010 A 
ATOM     39  C   UNL     1      -3.949  -6.669  -4.575  0.00  0.00    +0.001 A 
ATOM     40  C   UNL     1      -4.316  -7.873  -5.159  0.00  0.00    +0.002 A 
ATOM     41  C   UNL     1      -4.095  -9.067  -4.507  0.00  0.00    +0.026 A 
ENDBRANCH  31  32
ENDBRANCH  30  31
ENDBRANCH   3  30
TORSDOF 16
