REMARK  Name = ZINC39672115
REMARK  6 active torsions:
REMARK  status: ('A' for Active; 'I' for Inactive)
REMARK    1  A    between atoms: C_1  and  C_2
REMARK    2  A    between atoms: C_5  and  C_8
REMARK    3  A    between atoms: C_12  and  C_21
REMARK    4  A    between atoms: N_23  and  C_24
REMARK    5  A    between atoms: C_24  and  C_25
REMARK    6  A    between atoms: N_34  and  C_35
REMARK                            x       y       z     vdW  Elec       q    Type
REMARK                         _______ _______ _______ _____ _____    ______ ____
ROOT
ATOM      1  C   UNL     1       0.052  -4.254  -0.027  0.00  0.00    +0.247 C 
ATOM      2  O   UNL     1      -0.056  -4.859  -1.075  0.00  0.00    -0.270 OA
ATOM      3  N   UNL     1       0.170  -4.931   1.133  0.00  0.00    -0.296 N 
ATOM      4  C   UNL     1       0.182  -4.381   2.509  0.00  0.00    +0.121 C 
ATOM      5  C   UNL     1      -0.636  -5.393   3.341  0.00  0.00    +0.100 C 
ATOM      6  C   UNL     1      -0.543  -6.713   2.557  0.00  0.00    -0.004 C 
ATOM      7  C   UNL     1       0.310  -6.395   1.320  0.00  0.00    +0.115 C 
ATOM      8  C   UNL     1       0.134  -7.785   3.406  0.00  0.00    -0.010 C 
ATOM      9  C   UNL     1       0.163  -9.103   2.627  0.00  0.00    -0.082 C 
ATOM     10  N   UNL     1      -1.209  -9.507   2.294  0.00  0.00    +0.379 N 
ATOM     11  C   UNL     1      -1.820  -8.515   1.402  0.00  0.00    -0.082 C 
ATOM     12  C   UNL     1      -1.933  -7.172   2.129  0.00  0.00    -0.010 C 
ATOM     13  H   UNL     1      -1.191 -10.405   1.835  0.00  0.00    -0.086 HD
ATOM     14  H   UNL     1      -1.752  -9.576   3.141  0.00  0.00    -0.086 HD
ENDROOT
BRANCH   1  19
ATOM     15  C   UNL     1       0.056   1.500  -0.012  0.00  0.00    +0.044 C 
ATOM     16  C   UNL     1       0.055  -0.007  -0.016  0.00  0.00    -0.050 A 
ATOM     17  C   UNL     1      -0.552  -0.692  -1.053  0.00  0.00    +0.004 A 
ATOM     18  C   UNL     1      -0.557  -2.072  -1.062  0.00  0.00    +0.013 A 
ATOM     19  C   UNL     1       0.053  -2.776  -0.023  0.00  0.00    +0.037 A 
ATOM     20  C   UNL     1       0.664  -2.078   1.020  0.00  0.00    +0.013 A 
ATOM     21  C   UNL     1       0.667  -0.699   1.015  0.00  0.00    +0.004 A 
ENDBRANCH   1  19
BRANCH   5  22
ATOM     22  C   UNL     1      -2.071  -4.945   3.450  0.00  0.00    +0.218 C 
ATOM     23  O   UNL     1      -2.599  -4.371   2.520  0.00  0.00    -0.275 OA
ATOM     24  N   UNL     1      -2.768  -5.181   4.579  0.00  0.00    -0.311 N 
ATOM     25  H   UNL     1      -2.345  -5.639   5.322  0.00  0.00    +0.149 HD
BRANCH  24  26
ATOM     26  C   UNL     1      -4.162  -4.745   4.684  0.00  0.00    +0.139 C 
BRANCH  26  27
ATOM     27  C   UNL     1      -4.707  -5.127   6.036  0.00  0.00    -0.030 A 
ATOM     28  C   UNL     1      -5.314  -6.358   6.213  0.00  0.00    +0.007 A 
ATOM     29  C   UNL     1      -5.814  -6.707   7.451  0.00  0.00    +0.024 A 
ATOM     30  C   UNL     1      -5.708  -5.823   8.520  0.00  0.00    +0.033 A 
ATOM     31  C   UNL     1      -5.096  -4.591   8.343  0.00  0.00    -0.026 A 
ATOM     32  C   UNL     1      -4.595  -4.250   7.098  0.00  0.00    +0.010 A 
ATOM     33  C   UNL     1      -4.954  -3.614   9.479  0.00  0.00    +0.038 C 
ATOM     34  C   UNL     1      -5.964  -3.924  10.583  0.00  0.00    +0.024 C 
ATOM     35  C   UNL     1      -5.856  -5.410  10.951  0.00  0.00    +0.105 C 
ATOM     36  N   UNL     1      -6.226  -6.194   9.765  0.00  0.00    -0.333 N 
ATOM     37  C   UNL     1      -7.123  -7.346   9.885  0.00  0.00    +0.129 C 
ENDBRANCH  26  27
ENDBRANCH  24  26
ENDBRANCH   5  22
TORSDOF 4
