REMARK  Name = ZINC13689516
REMARK  8 active torsions:
REMARK  status: ('A' for Active; 'I' for Inactive)
REMARK    1  A    between atoms: C_7  and  C_11
REMARK    2  A    between atoms: C_11  and  C_12
REMARK    3  A    between atoms: C_12  and  N_13
REMARK    4  A    between atoms: C_14  and  C_16
REMARK    5  A    between atoms: C_19  and  C_22
REMARK    6  A    between atoms: C_22  and  N_23
REMARK    7  A    between atoms: N_23  and  S_24
REMARK    8  A    between atoms: S_24  and  C_27
REMARK                            x       y       z     vdW  Elec       q    Type
REMARK                         _______ _______ _______ _____ _____    ______ ____
ROOT
ATOM      1  C   UNL     1       3.493  -5.376  -5.601  0.00  0.00    +0.075 C 
ATOM      2  C   UNL     1       3.326  -3.900  -5.969  0.00  0.00    +0.013 C 
ATOM      3  C   UNL     1       3.401  -3.047  -4.702  0.00  0.00    +0.005 C 
ATOM      4  C   UNL     1       2.285  -3.462  -3.741  0.00  0.00    +0.005 C 
ATOM      5  C   UNL     1       2.452  -4.938  -3.373  0.00  0.00    +0.005 C 
ATOM      6  C   UNL     1       2.377  -5.791  -4.641  0.00  0.00    +0.013 C 
ENDROOT
BRANCH   1   8
ATOM      7  N   UNL     1       3.542  -7.556  -6.769  0.00  0.00    -0.315 N 
ATOM      8  C   UNL     1       3.420  -6.216  -6.850  0.00  0.00    +0.216 C 
ATOM      9  O   UNL     1       3.251  -5.687  -7.928  0.00  0.00    -0.276 OA
ATOM     10  H   UNL     1       3.678  -7.979  -5.907  0.00  0.00    +0.149 HD
BRANCH   7  11
ATOM     11  C   UNL     1       3.471  -8.373  -7.983  0.00  0.00    +0.109 C 
BRANCH  11  12
ATOM     12  C   UNL     1       3.638  -9.849  -7.615  0.00  0.00    +0.056 C 
BRANCH  12  19
ATOM     13  C   UNL     1       6.814 -11.106 -10.825  0.00  0.00    +0.001 A 
ATOM     14  C   UNL     1       6.282 -11.908 -11.827  0.00  0.00    +0.002 A 
ATOM     15  C   UNL     1       4.950 -12.257 -11.814  0.00  0.00    +0.026 A 
ATOM     16  C   UNL     1       4.127 -11.804 -10.789  0.00  0.00    +0.047 A 
ATOM     17  C   UNL     1       4.670 -10.992  -9.776  0.00  0.00    +0.003 A 
ATOM     18  C   UNL     1       6.023 -10.650  -9.809  0.00  0.00    +0.010 A 
ATOM     19  C   UNL     1       3.565 -10.689  -8.864  0.00  0.00    -0.021 A 
ATOM     20  C   UNL     1       2.475 -11.307  -9.348  0.00  0.00    +0.087 A 
ATOM     21  N   UNL     1       2.791 -11.973 -10.500  0.00  0.00    -0.360 N 
ATOM     22  H   UNL     1       2.167 -12.491 -11.033  0.00  0.00    +0.165 HD
ENDBRANCH  12  19
ENDBRANCH  11  12
ENDBRANCH   7  11
ENDBRANCH   1   8
BRANCH   4  23
ATOM     23  C   UNL     1       2.359  -2.609  -2.473  0.00  0.00    +0.109 C 
BRANCH  23  24
ATOM     24  N   UNL     1       1.222  -2.923  -1.605  0.00  0.00    -0.190 NA
ATOM     25  H   UNL     1       0.463  -3.414  -1.959  0.00  0.00    +0.148 HD
BRANCH  24  26
ATOM     26  S   UNL     1       1.230  -2.441  -0.021  0.00  0.00    +0.058 S 
ATOM     27  O   UNL     1       2.486  -2.834   0.516  0.00  0.00    -0.153 OA
ATOM     28  O   UNL     1      -0.004  -2.866   0.539  0.00  0.00    -0.153 OA
BRANCH  26  29
ATOM     29  C   UNL     1       1.208  -0.679  -0.013  0.00  0.00    +0.105 A 
ATOM     30  C   UNL     1       0.002  -0.004   0.002  0.00  0.00    +0.031 A 
ATOM     31  C   UNL     1      -0.017   1.378   0.010  0.00  0.00    +0.040 A 
ATOM     32  C   UNL     1       1.173   2.086   0.002  0.00  0.00    +0.124 A 
ATOM     33  C   UNL     1       2.381   1.408  -0.013  0.00  0.00    +0.040 A 
ATOM     34  C   UNL     1       2.397   0.026  -0.020  0.00  0.00    +0.031 A 
ATOM     35  F   UNL     1       1.156   3.437   0.009  0.00  0.00    -0.205 F 
ENDBRANCH  26  29
ENDBRANCH  24  26
ENDBRANCH  23  24
ENDBRANCH   4  23
TORSDOF 8
