REMARK  Name = ZINC36029902
REMARK  14 active torsions:
REMARK  status: ('A' for Active; 'I' for Inactive)
REMARK    1  A    between atoms: C_1  and  C_2
REMARK    2  A    between atoms: C_5  and  S_8
REMARK    3  A    between atoms: S_8  and  N_11
REMARK    4  A    between atoms: C_18  and  C_35
REMARK    5  A    between atoms: N_22  and  C_23
REMARK    6  A    between atoms: C_23  and  C_24
REMARK    7  A    between atoms: C_24  and  C_25
REMARK    8  A    between atoms: C_28  and  O_33
REMARK    9  A    between atoms: C_29  and  O_31
REMARK   10  A    between atoms: O_31  and  C_32
REMARK   11  A    between atoms: O_33  and  C_34
REMARK   12  A    between atoms: C_35  and  C_36
REMARK   13  A    between atoms: C_36  and  C_37
REMARK   14  A    between atoms: C_36  and  C_38
REMARK                            x       y       z     vdW  Elec       q    Type
REMARK                         _______ _______ _______ _____ _____    ______ ____
ROOT
ATOM      1  N   UNL     1       1.391  -5.876  -0.461  0.00  0.00    -0.177 NA
ATOM      2  C   UNL     1       2.276  -5.983  -1.629  0.00  0.00    +0.109 C 
ATOM      3  C   UNL     1       3.332  -4.876  -1.549  0.00  0.00    +0.023 C 
ATOM      4  C   UNL     1       4.046  -4.952  -0.201  0.00  0.00    +0.006 C 
ATOM      5  C   UNL     1       3.048  -4.759   0.940  0.00  0.00    +0.023 C 
ATOM      6  C   UNL     1       1.989  -5.860   0.881  0.00  0.00    +0.109 C 
ATOM      7  N   UNL     1       5.092  -3.911  -0.130  0.00  0.00    +0.401 N 
ATOM      8  C   UNL     1       6.303  -4.617  -0.614  0.00  0.00    +0.019 C 
ATOM      9  C   UNL     1       6.050  -6.076  -0.301  0.00  0.00    +0.200 C 
ATOM     10  O   UNL     1       6.889  -6.950  -0.270  0.00  0.00    -0.277 OA
ATOM     11  N   UNL     1       4.732  -6.240  -0.062  0.00  0.00    -0.313 N 
ATOM     12  H   UNL     1       4.865  -3.136  -0.736  0.00  0.00    -0.082 HD
ATOM     13  H   UNL     1       5.219  -3.596   0.820  0.00  0.00    -0.082 HD
ENDROOT
BRANCH   1  14
ATOM     14  S   UNL     1      -0.251  -5.769  -0.653  0.00  0.00    +0.061 S 
ATOM     15  O   UNL     1      -0.833  -6.228   0.559  0.00  0.00    -0.153 OA
ATOM     16  O   UNL     1      -0.551  -6.356  -1.912  0.00  0.00    -0.153 OA
BRANCH  14  21
ATOM     17  C   UNL     1      -1.617   0.090  -1.112  0.00  0.00    +0.044 C 
ATOM     18  C   UNL     1      -1.276  -1.373  -0.998  0.00  0.00    -0.050 A 
ATOM     19  C   UNL     1      -0.983  -2.106  -2.133  0.00  0.00    +0.005 A 
ATOM     20  C   UNL     1      -0.670  -3.448  -2.027  0.00  0.00    +0.029 A 
ATOM     21  C   UNL     1      -0.649  -4.058  -0.787  0.00  0.00    +0.105 A 
ATOM     22  C   UNL     1      -0.941  -3.325   0.348  0.00  0.00    +0.029 A 
ATOM     23  C   UNL     1      -1.250  -1.982   0.243  0.00  0.00    +0.005 A 
ENDBRANCH  14  21
ENDBRANCH   1  14
BRANCH  11  24
ATOM     24  C   UNL     1       4.086  -7.509   0.283  0.00  0.00    +0.110 C 
BRANCH  24  25
ATOM     25  C   UNL     1       4.121  -7.703   1.800  0.00  0.00    +0.054 C 
BRANCH  25  26
ATOM     26  C   UNL     1       3.434  -8.996   2.157  0.00  0.00    -0.042 A 
ATOM     27  C   UNL     1       2.076  -9.007   2.414  0.00  0.00    +0.007 A 
ATOM     28  C   UNL     1       1.441 -10.191   2.742  0.00  0.00    +0.049 A 
ATOM     29  C   UNL     1       2.167 -11.369   2.813  0.00  0.00    +0.161 A 
ATOM     30  C   UNL     1       3.534 -11.358   2.555  0.00  0.00    +0.162 A 
ATOM     31  C   UNL     1       4.163 -10.169   2.222  0.00  0.00    +0.053 A 
BRANCH  30  32
ATOM     32  O   UNL     1       4.250 -12.512   2.624  0.00  0.00    -0.491 OA
ATOM     33  C   UNL     1       5.649 -12.425   2.347  0.00  0.00    +0.277 C 
ENDBRANCH  30  32
BRANCH  29  34
ATOM     34  O   UNL     1       1.544 -12.534   3.136  0.00  0.00    -0.491 OA
ATOM     35  C   UNL     1       0.139 -12.470   3.389  0.00  0.00    +0.277 C 
ENDBRANCH  29  34
ENDBRANCH  25  26
ENDBRANCH  24  25
ENDBRANCH  11  24
BRANCH   8  36
ATOM     36  C   UNL     1       6.471  -4.415  -2.121  0.00  0.00    -0.004 C 
BRANCH  36  37
ATOM     37  C   UNL     1       6.735  -2.936  -2.411  0.00  0.00    -0.018 C 
ATOM     38  C   UNL     1       8.074  -2.526  -1.795  0.00  0.00    +0.007 C 
ATOM     39  C   UNL     1       6.779  -2.712  -3.924  0.00  0.00    +0.007 C 
ENDBRANCH  36  37
ENDBRANCH   8  36
TORSDOF 9
