REMARK  Name = ZINC09647924
REMARK  14 active torsions:
REMARK  status: ('A' for Active; 'I' for Inactive)
REMARK    1  A    between atoms: C_1  and  C_2
REMARK    2  A    between atoms: C_2  and  C_3
REMARK    3  A    between atoms: C_3  and  N_4
REMARK    4  A    between atoms: C_5  and  C_34
REMARK    5  A    between atoms: C_7  and  C_10
REMARK    6  A    between atoms: C_8  and  C_9
REMARK    7  A    between atoms: C_11  and  C_12
REMARK    8  A    between atoms: C_11  and  C_14
REMARK    9  A    between atoms: C_14  and  O_16
REMARK   10  A    between atoms: O_16  and  C_17
REMARK   11  A    between atoms: C_17  and  C_18
REMARK   12  A    between atoms: N_20  and  C_21
REMARK   13  A    between atoms: C_22  and  C_32
REMARK   14  A    between atoms: C_27  and  C_31
REMARK                            x       y       z     vdW  Elec       q    Type
REMARK                         _______ _______ _______ _____ _____    ______ ____
ROOT
ATOM      1  O   UNL     1       4.375   5.704   0.360  0.00  0.00    -0.451 OA
ENDROOT
BRANCH   1   2
ATOM      2  C   UNL     1       4.798   6.975   0.199  0.00  0.00    +0.350 C 
ATOM      3  O   UNL     1       3.988   7.876   0.096  0.00  0.00    -0.244 OA
BRANCH   2   5
ATOM      4  C   UNL     1       6.667   8.572  -0.017  0.00  0.00    +0.035 C 
ATOM      5  C   UNL     1       6.234   7.270   0.148  0.00  0.00    +0.136 C 
BRANCH   4   9
ATOM      6  N   UNL     1       9.993   9.918  -0.079  0.00  0.00    -0.348 N 
ATOM      7  C   UNL     1      10.250   8.726   0.537  0.00  0.00    +0.016 A 
ATOM      8  C   UNL     1       9.102   8.041   0.672  0.00  0.00    +0.030 A 
ATOM      9  C   UNL     1       8.049   8.877   0.079  0.00  0.00    -0.003 A 
ATOM     10  C   UNL     1       8.682  10.028  -0.362  0.00  0.00    +0.023 A 
ATOM     11  C   UNL     1       8.019  11.199  -1.039  0.00  0.00    +0.064 C 
ATOM     12  C   UNL     1      11.605   8.258   1.000  0.00  0.00    +0.063 C 
BRANCH   6  13
ATOM     13  C   UNL     1      11.003  10.933  -0.388  0.00  0.00    +0.121 C 
BRANCH  13  15
ATOM     14  C   UNL     1      12.184  12.962   0.467  0.00  0.00    +0.005 C 
ATOM     15  C   UNL     1      11.129  11.902   0.790  0.00  0.00    +0.018 C 
ENDBRANCH  13  15
ENDBRANCH   6  13
ENDBRANCH   4   9
BRANCH   5  16
ATOM     16  C   UNL     1       7.188   6.208   0.270  0.00  0.00    +0.106 C 
ATOM     17  N   UNL     1       7.944   5.366   0.366  0.00  0.00    -0.191 NA
ENDBRANCH   5  16
ENDBRANCH   2   5
ENDBRANCH   1   2
BRANCH   1  18
ATOM     18  C   UNL     1       2.940   5.487   0.401  0.00  0.00    +0.328 C 
BRANCH  18  19
ATOM     19  C   UNL     1       2.660   4.018   0.585  0.00  0.00    +0.255 C 
ATOM     20  O   UNL     1       3.579   3.231   0.673  0.00  0.00    -0.272 OA
ATOM     21  N   UNL     1       1.388   3.578   0.652  0.00  0.00    -0.276 N 
ATOM     22  H   UNL     1       0.653   4.207   0.582  0.00  0.00    +0.155 HD
BRANCH  21  23
ATOM     23  C   UNL     1       1.130   2.224   0.822  0.00  0.00    +0.090 A 
ATOM     24  C   UNL     1      -0.098   1.586   0.913  0.00  0.00    +0.084 A 
ATOM     25  C   UNL     1      -0.095   0.145   1.090  0.00  0.00    -0.018 A 
ATOM     26  C   UNL     1       1.129  -0.425   1.148  0.00  0.00    -0.004 A 
ATOM     27  S   UNL     1       2.263   0.922   0.970  0.00  0.00    -0.077 S 
ATOM     28  C   UNL     1       1.441  -1.879   1.323  0.00  0.00    +0.046 C 
ATOM     29  C   UNL     1       0.161  -2.684   1.054  0.00  0.00    -0.009 C 
ATOM     30  C   UNL     1      -0.995  -2.047   1.831  0.00  0.00    +0.008 C 
ATOM     31  C   UNL     1      -1.359  -0.698   1.208  0.00  0.00    +0.037 C 
ATOM     32  C   UNL     1       0.354  -4.130   1.517  0.00  0.00    +0.008 C 
BRANCH  24  33
ATOM     33  C   UNL     1      -1.325   2.321   0.829  0.00  0.00    +0.102 C 
ATOM     34  N   UNL     1      -2.297   2.904   0.763  0.00  0.00    -0.191 NA
ENDBRANCH  24  33
ENDBRANCH  21  23
ENDBRANCH  18  19
ENDBRANCH   1  18
TORSDOF 10
