REMARK  Name = ZINC35306335
REMARK  5 active torsions:
REMARK  status: ('A' for Active; 'I' for Inactive)
REMARK    1  A    between atoms: C_1  and  C_2
REMARK    2  A    between atoms: N_7  and  S_9
REMARK    3  A    between atoms: S_9  and  N_12
REMARK    4  A    between atoms: N_12  and  C_13
REMARK    5  A    between atoms: C_17  and  C_18
REMARK                            x       y       z     vdW  Elec       q    Type
REMARK                         _______ _______ _______ _____ _____    ______ ____
ROOT
ATOM      1  S   UNL     1       1.999  -2.914   1.419  0.00  0.00    +0.112 S 
ATOM      2  O   UNL     1       2.998  -2.098   2.015  0.00  0.00    -0.138 OA
ATOM      3  O   UNL     1       1.587  -4.150   1.986  0.00  0.00    -0.138 OA
ENDROOT
BRANCH   1   9
ATOM      4  C   UNL     1      -0.019   1.526   0.010  0.00  0.00    +0.009 C 
ATOM      5  C   UNL     1       0.002  -0.004   0.002  0.00  0.00    +0.002 C 
ATOM      6  C   UNL     1      -1.433  -0.534   0.015  0.00  0.00    +0.006 C 
ATOM      7  C   UNL     1      -1.414  -2.064  -0.027  0.00  0.00    +0.017 C 
ATOM      8  C   UNL     1      -0.692  -2.596   1.215  0.00  0.00    +0.111 C 
ATOM      9  N   UNL     1       0.639  -1.977   1.288  0.00  0.00    -0.164 NA
ATOM     10  C   UNL     1       0.742  -0.512   1.244  0.00  0.00    +0.114 C 
ENDBRANCH   1   9
BRANCH   1  11
ATOM     11  N   UNL     1       2.514  -3.247  -0.119  0.00  0.00    -0.205 N 
ATOM     12  H   UNL     1       2.504  -4.160  -0.447  0.00  0.00    +0.175 HD
BRANCH  11  13
ATOM     13  C   UNL     1       2.960  -2.218  -0.940  0.00  0.00    +0.070 A 
ATOM     14  C   UNL     1       3.659  -1.133  -0.451  0.00  0.00    +0.033 A 
ATOM     15  C   UNL     1       4.063  -0.168  -1.310  0.00  0.00    +0.048 A 
ATOM     16  S   UNL     1       3.516  -0.687  -2.811  0.00  0.00    -0.088 S 
ATOM     17  C   UNL     1       2.737  -2.213  -2.321  0.00  0.00    +0.123 A 
BRANCH  17  18
ATOM     18  C   UNL     1       2.071  -3.165  -3.116  0.00  0.00    +0.395 C 
ATOM     19  O   UNL     1       1.548  -4.254  -2.553  0.00  0.00    -0.240 OA
ATOM     20  O   UNL     1       1.963  -2.976  -4.431  0.00  0.00    -0.240 OA
ENDBRANCH  17  18
ENDBRANCH  11  13
ENDBRANCH   1  11
TORSDOF 4
