REMARK  Name = ZINC12010489
REMARK  3 active torsions:
REMARK  status: ('A' for Active; 'I' for Inactive)
REMARK    1  A    between atoms: C_3  and  C_6
REMARK    2  A    between atoms: C_8  and  N_23
REMARK    3  A    between atoms: C_24  and  C_26
REMARK                            x       y       z     vdW  Elec       q    Type
REMARK                         _______ _______ _______ _____ _____    ______ ____
ROOT
ATOM      1  C   UNL     1       0.688   3.466   0.014  0.00  0.00    +0.130 A 
ATOM      2  C   UNL     1      -0.723   3.459   0.028  0.00  0.00    +0.077 A 
ATOM      3  C   UNL     1      -1.133   2.165   0.018  0.00  0.00    +0.133 A 
ATOM      4  N   UNL     1      -0.017   1.377   0.010  0.00  0.00    -0.184 N 
ATOM      5  N   UNL     1       1.105   2.216   0.003  0.00  0.00    -0.159 NA
ATOM      6  C   UNL     1       0.002  -0.004   0.002  0.00  0.00    +0.234 A 
ATOM      7  N   UNL     1       1.195  -0.657  -0.012  0.00  0.00    -0.291 N 
ATOM      8  H   UNL     1       2.026  -0.157  -0.014  0.00  0.00    +0.172 HD
ATOM      9  C   UNL     1       1.213  -2.005  -0.024  0.00  0.00    +0.256 A 
ATOM     10  O   UNL     1       2.273  -2.609  -0.035  0.00  0.00    -0.267 OA
ATOM     11  C   UNL     1      -0.012  -2.708  -0.023  0.00  0.00    +0.038 A 
ATOM     12  C   UNL     1      -1.171  -2.004   0.000  0.00  0.00    +0.053 A 
ATOM     13  N   UNL     1      -1.131  -0.665   0.014  0.00  0.00    -0.217 NA
ATOM     14  C   UNL     1      -2.524  -2.666   0.025  0.00  0.00    +0.056 C 
ATOM     15  C   UNL     1      -2.418  -4.121  -0.428  0.00  0.00    +0.006 C 
ATOM     16  C   UNL     1      -1.306  -4.800   0.380  0.00  0.00    +0.005 C 
ATOM     17  C   UNL     1       0.034  -4.212  -0.057  0.00  0.00    +0.042 C 
ENDROOT
BRANCH   1  20
ATOM     18  C   UNL     1       3.307   6.025   0.002  0.00  0.00    +0.042 A 
ATOM     19  C   UNL     1       2.908   4.674   0.004  0.00  0.00    +0.051 A 
ATOM     20  C   UNL     1       1.549   4.667   0.012  0.00  0.00    +0.155 A 
ATOM     21  O   UNL     1       1.123   5.944   0.024  0.00  0.00    -0.461 OA
ATOM     22  C   UNL     1       2.183   6.769   0.018  0.00  0.00    +0.196 A 
ENDBRANCH   1  20
BRANCH   3  23
ATOM     23  N   UNL     1      -2.452   1.721   0.021  0.00  0.00    -0.264 N 
ATOM     24  C   UNL     1      -3.463   2.612   0.030  0.00  0.00    +0.285 C 
ATOM     25  O   UNL     1      -3.223   3.805   0.036  0.00  0.00    -0.266 OA
ATOM     26  H   UNL     1      -2.643   0.770   0.016  0.00  0.00    +0.157 HD
BRANCH  24  27
ATOM     27  C   UNL     1      -4.851   2.145   0.033  0.00  0.00    +0.191 A 
ATOM     28  C   UNL     1      -5.965   2.936   0.047  0.00  0.00    +0.056 A 
ATOM     29  C   UNL     1      -7.072   2.075   0.042  0.00  0.00    +0.058 A 
ATOM     30  C   UNL     1      -6.593   0.810   0.033  0.00  0.00    +0.171 A 
ATOM     31  O   UNL     1      -5.255   0.857   0.028  0.00  0.00    -0.444 OA
ATOM     32 BR   UNL     1      -7.641  -0.764   0.029  0.00  0.00    -0.008 Br
ENDBRANCH  24  27
ENDBRANCH   3  23
TORSDOF 3
