REMARK  Name = ZINC41583763
REMARK  6 active torsions:
REMARK  status: ('A' for Active; 'I' for Inactive)
REMARK    1  A    between atoms: C_1  and  C_2
REMARK    2  A    between atoms: C_5  and  C_30
REMARK    3  A    between atoms: N_8  and  C_10
REMARK    4  A    between atoms: C_10  and  C_11
REMARK    5  A    between atoms: C_12  and  O_29
REMARK    6  A    between atoms: C_19  and  C_20
REMARK                            x       y       z     vdW  Elec       q    Type
REMARK                         _______ _______ _______ _____ _____    ______ ____
ROOT
ATOM      1  C   UNL     1       2.175   0.192   3.682  0.00  0.00    +0.020 A 
ATOM      2  C   UNL     1       2.812   1.265   4.286  0.00  0.00    +0.122 A 
ATOM      3  C   UNL     1       2.481   1.647   5.583  0.00  0.00    +0.046 A 
ATOM      4  C   UNL     1       1.520   0.965   6.275  0.00  0.00    +0.019 A 
ATOM      5  C   UNL     1       0.870  -0.117   5.679  0.00  0.00    +0.068 A 
ATOM      6  C   UNL     1       1.192  -0.508   4.370  0.00  0.00    +0.144 A 
ATOM      7  O   UNL     1       0.433  -1.566   4.010  0.00  0.00    -0.451 OA
ATOM      8  C   UNL     1      -0.413  -1.938   5.000  0.00  0.00    +0.176 C 
ATOM      9  C   UNL     1      -1.303  -2.961   4.951  0.00  0.00    +0.059 C 
ATOM     10  C   UNL     1      -0.184  -1.038   6.141  0.00  0.00    +0.231 C 
ATOM     11  O   UNL     1      -0.748  -1.045   7.222  0.00  0.00    -0.283 OA
ENDROOT
BRANCH   9  12
ATOM     12  C   UNL     1      -2.274  -3.142   6.038  0.00  0.00    -0.007 A 
ATOM     13  C   UNL     1      -2.926  -2.033   6.591  0.00  0.00    +0.009 A 
ATOM     14  C   UNL     1      -3.837  -2.211   7.611  0.00  0.00    +0.001 A 
ATOM     15  C   UNL     1      -4.108  -3.482   8.088  0.00  0.00    +0.001 A 
ATOM     16  C   UNL     1      -3.469  -4.584   7.548  0.00  0.00    +0.016 A 
ATOM     17  C   UNL     1      -2.558  -4.424   6.523  0.00  0.00    +0.025 A 
ATOM     18 BR   UNL     1      -1.691  -5.932   5.781  0.00  0.00    -0.050 Br
ENDBRANCH   9  12
BRANCH   2  19
ATOM     19  O   UNL     1       3.768   1.948   3.607  0.00  0.00    -0.506 OA
ATOM     20  H   UNL     1       3.429   2.692   3.091  0.00  0.00    +0.292 HD
ENDBRANCH   2  19
BRANCH   1  21
ATOM     21  C   UNL     1       2.545  -0.210   2.278  0.00  0.00    -0.036 C 
BRANCH  21  27
ATOM     22  C   UNL     1      -0.449   2.417   0.885  0.00  0.00    +0.005 C 
ATOM     23  C   UNL     1      -0.590   0.929   0.558  0.00  0.00    -0.031 C 
ATOM     24  C   UNL     1      -0.162   0.681  -0.891  0.00  0.00    +0.003 C 
ATOM     25  C   UNL     1       1.320   1.038  -1.043  0.00  0.00    -0.031 C 
ATOM     26  C   UNL     1       2.142   0.218  -0.046  0.00  0.00    -0.075 C 
ATOM     27  N   UNL     1       1.702   0.520   1.322  0.00  0.00    +0.383 N 
ATOM     28  C   UNL     1       0.301   0.113   1.496  0.00  0.00    -0.075 C 
ATOM     29  C   UNL     1       1.778   0.721  -2.467  0.00  0.00    +0.005 C 
ATOM     30  H   UNL     1       1.786   1.511   1.490  0.00  0.00    -0.081 HD
ENDBRANCH  21  27
ENDBRANCH   1  21
TORSDOF 4
