REMARK  Name = ZINC55327937
REMARK  8 active torsions:
REMARK  status: ('A' for Active; 'I' for Inactive)
REMARK    1  A    between atoms: C_1  and  C_2
REMARK    2  A    between atoms: C_5  and  C_10
REMARK    3  A    between atoms: C_6  and  C_9
REMARK    4  A    between atoms: C_10  and  N_11
REMARK    5  A    between atoms: C_12  and  C_14
REMARK    6  A    between atoms: C_14  and  C_15
REMARK    7  A    between atoms: C_15  and  C_16
REMARK    8  A    between atoms: N_18  and  C_19
REMARK                            x       y       z     vdW  Elec       q    Type
REMARK                         _______ _______ _______ _____ _____    ______ ____
ROOT
ATOM      1  N   UNL     1      -2.343   4.256  -5.061  0.00  0.00    -0.310 N 
ATOM      2  C   UNL     1      -2.834   4.862  -6.160  0.00  0.00    +0.214 C 
ATOM      3  O   UNL     1      -3.610   4.272  -6.883  0.00  0.00    -0.276 OA
ATOM      4  H   UNL     1      -1.723   4.727  -4.483  0.00  0.00    +0.149 HD
ENDROOT
BRANCH   1   5
ATOM      5  C   UNL     1      -2.746   2.885  -4.739  0.00  0.00    +0.157 C 
BRANCH   5  10
ATOM      6  C   UNL     1      -0.001   1.206   0.047  0.00  0.00    +0.049 C 
ATOM      7  C   UNL     1      -0.736   1.644  -1.194  0.00  0.00    +0.012 A 
ATOM      8  C   UNL     1      -0.057   1.912  -2.331  0.00  0.00    +0.089 A 
ATOM      9  N   UNL     1      -0.712   2.306  -3.451  0.00  0.00    -0.362 N 
ATOM     10  C   UNL     1      -2.061   2.444  -3.471  0.00  0.00    +0.040 A 
ATOM     11  C   UNL     1      -2.796   2.192  -2.367  0.00  0.00    +0.017 A 
ATOM     12  C   UNL     1      -2.145   1.774  -1.183  0.00  0.00    +0.188 A 
ATOM     13  O   UNL     1      -2.785   1.533  -0.170  0.00  0.00    -0.287 OA
ATOM     14  C   UNL     1      -4.295   2.349  -2.397  0.00  0.00    +0.049 C 
ATOM     15  H   UNL     1      -0.204   2.493  -4.256  0.00  0.00    +0.165 HD
ENDBRANCH   5  10
ENDBRANCH   1   5
BRANCH   2  16
ATOM     16  C   UNL     1      -2.420   6.272  -6.491  0.00  0.00    +0.105 C 
BRANCH  16  17
ATOM     17  C   UNL     1      -3.116   6.720  -7.779  0.00  0.00    +0.105 C 
BRANCH  17  18
ATOM     18  C   UNL     1      -2.701   8.130  -8.110  0.00  0.00    +0.214 C 
ATOM     19  O   UNL     1      -1.926   8.720  -7.387  0.00  0.00    -0.276 OA
ATOM     20  N   UNL     1      -3.192   8.736  -9.209  0.00  0.00    -0.312 N 
ATOM     21  H   UNL     1      -3.812   8.265  -9.787  0.00  0.00    +0.149 HD
BRANCH  20  22
ATOM     22  C   UNL     1      -2.790  10.107  -9.531  0.00  0.00    +0.073 C 
ATOM     23  C   UNL     1      -3.645  11.087  -8.702  0.00  0.00    +0.022 C 
ATOM     24  C   UNL     1      -2.925  12.407  -8.629  0.00  0.00    +0.002 C 
ATOM     25  C   UNL     1      -3.381  13.387  -9.727  0.00  0.00    +0.000 C 
ATOM     26  C   UNL     1      -3.565  12.707 -11.097  0.00  0.00    +0.000 C 
ATOM     27  C   UNL     1      -2.470  11.721 -11.402  0.00  0.00    +0.002 C 
ATOM     28  C   UNL     1      -2.937  10.318 -10.963  0.00  0.00    +0.022 C 
ENDBRANCH  20  22
ENDBRANCH  17  18
ENDBRANCH  16  17
ENDBRANCH   2  16
TORSDOF 6
