REMARK  Name = ZINC01074849
REMARK  11 active torsions:
REMARK  status: ('A' for Active; 'I' for Inactive)
REMARK    1  A    between atoms: C_1  and  C_2
REMARK    2  A    between atoms: C_2  and  O_3
REMARK    3  A    between atoms: O_3  and  C_4
REMARK    4  A    between atoms: C_4  and  C_6
REMARK    5  A    between atoms: C_7  and  C_40
REMARK    6  A    between atoms: C_11  and  C_13
REMARK    7  A    between atoms: C_19  and  C_24
REMARK    8  A    between atoms: C_28  and  C_31
REMARK    9  A    between atoms: C_34  and  N_37
REMARK   10  A    between atoms: N_37  and  C_38
REMARK   11  A    between atoms: N_37  and  C_39
REMARK                            x       y       z     vdW  Elec       q    Type
REMARK                         _______ _______ _______ _____ _____    ______ ____
ROOT
ATOM      1  C   UNL     1       6.936   1.636  -1.300  0.00  0.00    +0.065 C 
ATOM      2  C   UNL     1       7.920   0.720  -1.288  0.00  0.00    +0.016 C 
ATOM      3  N   UNL     1       8.279   0.105  -0.121  0.00  0.00    -0.321 N 
ATOM      4  C   UNL     1       7.957   0.661   1.088  0.00  0.00    +0.016 C 
ATOM      5  C   UNL     1       6.969   1.577   1.179  0.00  0.00    +0.024 C 
ATOM      6  C   UNL     1       6.200   2.005  -0.045  0.00  0.00    +0.099 C 
ATOM      7  C   UNL     1       6.628   2.155   2.415  0.00  0.00    +0.162 C 
ATOM      8  O   UNL     1       5.744   2.987   2.460  0.00  0.00    -0.292 OA
ATOM      9  C   UNL     1       7.338   1.761   3.681  0.00  0.00    +0.088 C 
ATOM     10  C   UNL     1       7.837   0.319   3.545  0.00  0.00    +0.032 C 
ATOM     11  C   UNL     1       8.733   0.230   2.308  0.00  0.00    +0.059 C 
ATOM     12  C   UNL     1       8.631   0.369  -2.569  0.00  0.00    +0.061 C 
ATOM     13  H   UNL     1       8.832  -0.846  -0.148  0.00  0.00    +0.152 HD
ENDROOT
BRANCH   6  14
ATOM     14  C   UNL     1       4.853   1.328  -0.045  0.00  0.00    +0.047 A 
ATOM     15  C   UNL     1       4.770  -0.015  -0.059  0.00  0.00    +0.204 A 
ATOM     16  O   UNL     1       3.604  -0.669  -0.059  0.00  0.00    -0.462 OA
ATOM     17  C   UNL     1       2.417  -0.031  -0.045  0.00  0.00    +0.138 A 
ATOM     18  C   UNL     1       1.222  -0.741  -0.045  0.00  0.00    +0.047 A 
ATOM     19  C   UNL     1       0.021  -0.065  -0.031  0.00  0.00    +0.007 A 
ATOM     20  C   UNL     1      -0.012   1.322  -0.015  0.00  0.00    -0.050 A 
ATOM     21  C   UNL     1       1.161   2.045  -0.015  0.00  0.00    +0.018 A 
ATOM     22  C   UNL     1       2.382   1.373  -0.029  0.00  0.00    +0.064 A 
ATOM     23  C   UNL     1       3.664   2.104  -0.029  0.00  0.00    +0.197 A 
ATOM     24  O   UNL     1       3.701   3.322  -0.015  0.00  0.00    -0.287 OA
ATOM     25  C   UNL     1      -1.336   2.041  -0.006  0.00  0.00    +0.044 C 
ENDBRANCH   6  14
BRANCH  10  26
ATOM     26  C   UNL     1       8.623  -0.064   4.773  0.00  0.00    -0.043 A 
ATOM     27  C   UNL     1       9.760   0.646   5.112  0.00  0.00    +0.006 A 
ATOM     28  C   UNL     1      10.480   0.302   6.240  0.00  0.00    +0.023 A 
ATOM     29  C   UNL     1      10.066  -0.765   7.027  0.00  0.00    +0.029 A 
ATOM     30  C   UNL     1       8.927  -1.480   6.680  0.00  0.00    +0.023 A 
ATOM     31  C   UNL     1       8.209  -1.127   5.554  0.00  0.00    +0.006 A 
BRANCH  29  32
ATOM     32  N   UNL     1      10.795  -1.120   8.165  0.00  0.00    -0.336 N 
ATOM     33  C   UNL     1      10.291  -2.163   9.062  0.00  0.00    +0.129 C 
ATOM     34  C   UNL     1      12.063  -0.449   8.461  0.00  0.00    +0.129 C 
ENDBRANCH  29  32
ENDBRANCH  10  26
BRANCH   1  35
ATOM     35  C   UNL     1       6.588   2.265  -2.518  0.00  0.00    +0.338 C 
ATOM     36  O   UNL     1       7.177   1.975  -3.542  0.00  0.00    -0.245 OA
BRANCH  35  37
ATOM     37  O   UNL     1       5.602   3.186  -2.544  0.00  0.00    -0.462 OA
BRANCH  37  39
ATOM     38  C   UNL     1       4.168   4.792  -3.642  0.00  0.00    +0.048 C 
ATOM     39  C   UNL     1       5.303   3.780  -3.809  0.00  0.00    +0.229 C 
ENDBRANCH  37  39
ENDBRANCH  35  37
ENDBRANCH   1  35
TORSDOF 6
