REMARK  Name = ZINC19941620
REMARK  10 active torsions:
REMARK  status: ('A' for Active; 'I' for Inactive)
REMARK    1  A    between atoms: C_1  and  C_2
REMARK    2  A    between atoms: C_6  and  N_9
REMARK    3  A    between atoms: C_7  and  C_8
REMARK    4  A    between atoms: N_12  and  C_15
REMARK    5  A    between atoms: C_15  and  C_17
REMARK    6  A    between atoms: C_15  and  C_31
REMARK    7  A    between atoms: C_21  and  C_30
REMARK    8  A    between atoms: C_23  and  C_29
REMARK    9  A    between atoms: N_35  and  C_36
REMARK   10  A    between atoms: C_36  and  C_37
REMARK                            x       y       z     vdW  Elec       q    Type
REMARK                         _______ _______ _______ _____ _____    ______ ____
ROOT
ATOM      1  C   UNL     1       3.512   0.638  -0.028  0.00  0.00    +0.162 C 
ENDROOT
BRANCH   1   2
ATOM      2  C   UNL     1       4.027   0.263   1.338  0.00  0.00    +0.042 A 
ATOM      3  C   UNL     1       4.731   1.165   2.065  0.00  0.00    +0.021 A 
ATOM      4  C   UNL     1       5.214   0.771   3.390  0.00  0.00    -0.001 A 
ATOM      5  C   UNL     1       5.941   1.660   4.189  0.00  0.00    +0.013 A 
ATOM      6  C   UNL     1       6.382   1.260   5.419  0.00  0.00    -0.050 A 
ATOM      7  C   UNL     1       6.114  -0.021   5.883  0.00  0.00    +0.008 A 
ATOM      8  C   UNL     1       5.400  -0.913   5.113  0.00  0.00    -0.026 A 
ATOM      9  C   UNL     1       4.941  -0.528   3.857  0.00  0.00    +0.052 A 
ATOM     10  N   UNL     1       4.223  -1.400   3.066  0.00  0.00    -0.322 N 
ATOM     11  H   UNL     1       4.006  -2.417   3.425  0.00  0.00    +0.169 HD
ATOM     12  C   UNL     1       3.780  -1.027   1.853  0.00  0.00    +0.254 A 
ATOM     13  O   UNL     1       3.148  -1.824   1.181  0.00  0.00    -0.268 OA
ATOM     14  C   UNL     1       5.116  -2.300   5.629  0.00  0.00    +0.046 C 
ATOM     15  C   UNL     1       7.165   2.217   6.279  0.00  0.00    +0.044 C 
ENDBRANCH   1   2
BRANCH   1  19
ATOM     16  N   UNL     1       5.431  -1.171  -3.327  0.00  0.00    -0.327 N 
ATOM     17  C   UNL     1       3.965  -1.079  -3.349  0.00  0.00    +0.120 C 
ATOM     18  C   UNL     1       3.509  -0.001  -2.364  0.00  0.00    +0.104 C 
ATOM     19  N   UNL     1       3.993  -0.335  -1.017  0.00  0.00    -0.286 NA
ATOM     20  C   UNL     1       5.460  -0.427  -0.995  0.00  0.00    +0.104 C 
ATOM     21  C   UNL     1       5.915  -1.506  -1.981  0.00  0.00    +0.120 C 
BRANCH  16  27
ATOM     22  C   UNL     1       8.118  -2.168  -7.320  0.00  0.00    +0.044 C 
ATOM     23  C   UNL     1       7.193  -2.608  -6.215  0.00  0.00    -0.046 A 
ATOM     24  C   UNL     1       6.796  -3.930  -6.131  0.00  0.00    +0.004 A 
ATOM     25  C   UNL     1       5.948  -4.338  -5.119  0.00  0.00    +0.002 A 
ATOM     26  C   UNL     1       5.497  -3.426  -4.184  0.00  0.00    +0.023 A 
ATOM     27  C   UNL     1       5.889  -2.096  -4.268  0.00  0.00    +0.033 A 
ATOM     28  C   UNL     1       6.742  -1.690  -5.287  0.00  0.00    -0.027 A 
ATOM     29  C   UNL     1       7.175  -0.249  -5.378  0.00  0.00    +0.046 C 
ENDBRANCH  16  27
ENDBRANCH   1  19
BRANCH   1  30
ATOM     30  C   UNL     1       2.005   0.637  -0.014  0.00  0.00    +0.173 A 
ATOM     31  N   UNL     1       1.223  -0.415  -0.012  0.00  0.00    -0.111 NA
ATOM     32  N   UNL     1       0.002  -0.004   0.002  0.00  0.00    -0.023 NA
ATOM     33  N   UNL     1      -0.015   1.283   0.009  0.00  0.00    -0.044 NA
ATOM     34  N   UNL     1       1.200   1.716  -0.000  0.00  0.00    -0.225 N 
BRANCH  34  35
ATOM     35  C   UNL     1       1.625   3.118   0.003  0.00  0.00    +0.179 C 
BRANCH  35  36
ATOM     36  C   UNL     1       1.787   3.599   1.446  0.00  0.00    +0.140 C 
ATOM     37  C   UNL     1       2.288   5.064   1.472  0.00  0.00    +0.035 C 
ATOM     38  C   UNL     1       1.773   5.528   2.862  0.00  0.00    +0.031 C 
ATOM     39  C   UNL     1       0.447   4.749   2.996  0.00  0.00    +0.160 C 
ATOM     40  O   UNL     1       0.512   3.627   2.108  0.00  0.00    -0.375 OA
ENDBRANCH  35  36
ENDBRANCH  34  35
ENDBRANCH   1  30
TORSDOF 6
