REMARK  Name = ZINC32933646
REMARK  8 active torsions:
REMARK  status: ('A' for Active; 'I' for Inactive)
REMARK    1  A    between atoms: C_1  and  C_2
REMARK    2  A    between atoms: C_2  and  C_3
REMARK    3  A    between atoms: C_8  and  N_9
REMARK    4  A    between atoms: C_10  and  C_12
REMARK    5  A    between atoms: C_12  and  C_13
REMARK    6  A    between atoms: C_13  and  N_14
REMARK    7  A    between atoms: C_21  and  C_24
REMARK    8  A    between atoms: C_27  and  C_30
REMARK                            x       y       z     vdW  Elec       q    Type
REMARK                         _______ _______ _______ _____ _____    ______ ____
ROOT
ATOM      1  N   UNL     1       1.470  -1.960  -0.001  0.00  0.00    -0.298 N 
ATOM      2  C   UNL     1       1.468  -2.636  -1.176  0.00  0.00    +0.206 A 
ATOM      3  N   UNL     1       1.485  -3.940  -1.236  0.00  0.00    -0.200 NA
ATOM      4  C   UNL     1       1.506  -4.685  -0.127  0.00  0.00    +0.265 A 
ATOM      5  C   UNL     1       1.510  -4.042   1.121  0.00  0.00    +0.133 A 
ATOM      6  C   UNL     1       1.497  -2.636   1.173  0.00  0.00    +0.267 A 
ATOM      7  O   UNL     1       1.504  -2.045   2.238  0.00  0.00    -0.267 OA
ATOM      8  C   UNL     1       1.535  -5.155   2.074  0.00  0.00    +0.128 A 
ATOM      9  N   UNL     1       1.542  -6.237   1.331  0.00  0.00    -0.075 NA
ATOM     10  O   UNL     1       1.527  -5.996   0.146  0.00  0.00    -0.334 OA
ENDROOT
BRANCH   8  11
ATOM     11  C   UNL     1       1.549  -5.076   3.555  0.00  0.00    +0.004 A 
ATOM     12  C   UNL     1       2.239  -4.047   4.194  0.00  0.00    +0.010 A 
ATOM     13  C   UNL     1       2.246  -3.976   5.572  0.00  0.00    +0.004 A 
ATOM     14  C   UNL     1       1.577  -4.929   6.319  0.00  0.00    -0.050 A 
ATOM     15  C   UNL     1       0.895  -5.955   5.691  0.00  0.00    +0.004 A 
ATOM     16  C   UNL     1       0.878  -6.034   4.313  0.00  0.00    +0.010 A 
ATOM     17  C   UNL     1       1.592  -4.849   7.824  0.00  0.00    +0.044 C 
ENDBRANCH   8  11
BRANCH   1  18
ATOM     18  C   UNL     1       1.451  -0.495  -0.001  0.00  0.00    +0.135 C 
BRANCH  18  19
ATOM     19  C   UNL     1       0.002  -0.004   0.013  0.00  0.00    +0.118 C 
BRANCH  19  21
ATOM     20  N   UNL     1      -1.195   2.161   0.019  0.00  0.00    -0.285 N 
ATOM     21  C   UNL     1      -0.018   1.502   0.013  0.00  0.00    +0.219 C 
ATOM     22  O   UNL     1       1.024   2.123   0.003  0.00  0.00    -0.275 OA
ATOM     23  H   UNL     1      -2.138   1.602  -0.065  0.00  0.00    +0.155 HD
BRANCH  20  29
ATOM     24  C   UNL     1      -2.297   4.277  -0.354  0.00  0.00    -0.026 A 
ATOM     25  C   UNL     1      -2.315   5.653  -0.241  0.00  0.00    +0.005 A 
ATOM     26  C   UNL     1      -1.256   6.313   0.357  0.00  0.00    +0.000 A 
ATOM     27  C   UNL     1      -0.178   5.597   0.843  0.00  0.00    +0.002 A 
ATOM     28  C   UNL     1      -0.156   4.220   0.737  0.00  0.00    +0.023 A 
ATOM     29  C   UNL     1      -1.215   3.555   0.133  0.00  0.00    +0.037 A 
BRANCH  24  31
ATOM     30  C   UNL     1      -4.434   3.093   0.071  0.00  0.00    +0.009 C 
ATOM     31  C   UNL     1      -3.451   3.559  -1.005  0.00  0.00    +0.033 C 
ENDBRANCH  24  31
ENDBRANCH  20  29
ENDBRANCH  19  21
ENDBRANCH  18  19
ENDBRANCH   1  18
TORSDOF 6
