REMARK  Name = ZINC08791072
REMARK  12 active torsions:
REMARK  status: ('A' for Active; 'I' for Inactive)
REMARK    1  A    between atoms: C_1  and  C_2
REMARK    2  A    between atoms: C_4  and  C_40
REMARK    3  A    between atoms: C_13  and  C_15
REMARK    4  A    between atoms: C_15  and  C_16
REMARK    5  A    between atoms: C_16  and  C_17
REMARK    6  A    between atoms: N_22  and  C_25
REMARK    7  A    between atoms: C_25  and  C_26
REMARK    8  A    between atoms: C_26  and  C_27
REMARK    9  A    between atoms: C_30  and  O_35
REMARK   10  A    between atoms: C_31  and  O_33
REMARK   11  A    between atoms: O_33  and  C_34
REMARK   12  A    between atoms: O_35  and  C_36
REMARK                            x       y       z     vdW  Elec       q    Type
REMARK                         _______ _______ _______ _____ _____    ______ ____
ROOT
ATOM      1  C   UNL     1       2.402  -4.189   6.415  0.00  0.00    +0.044 C 
ATOM      2  C   UNL     1       1.811  -4.682   5.120  0.00  0.00    -0.050 A 
ATOM      3  C   UNL     1       1.061  -5.844   5.097  0.00  0.00    +0.008 A 
ATOM      4  C   UNL     1       0.518  -6.299   3.913  0.00  0.00    -0.029 A 
ATOM      5  C   UNL     1       0.722  -5.592   2.731  0.00  0.00    +0.039 A 
ATOM      6  C   UNL     1       1.478  -4.424   2.766  0.00  0.00    -0.027 A 
ATOM      7  C   UNL     1       2.018  -3.973   3.950  0.00  0.00    +0.008 A 
ATOM      8  C   UNL     1       1.507  -3.911   1.354  0.00  0.00    +0.050 C 
ATOM      9  C   UNL     1       2.942  -3.800   0.824  0.00  0.00    +0.088 C 
ATOM     10  C   UNL     1       2.925  -2.541  -0.088  0.00  0.00    +0.073 C 
ATOM     11  C   UNL     1       1.472  -2.024  -0.023  0.00  0.00    -0.057 C 
ATOM     12  C   UNL     1       3.841  -1.575   0.661  0.00  0.00    +0.224 C 
ATOM     13  O   UNL     1       4.108  -0.448   0.304  0.00  0.00    -0.275 OA
ATOM     14  N   UNL     1       4.310  -2.168   1.765  0.00  0.00    -0.241 N 
ATOM     15  C   UNL     1       3.872  -3.418   1.953  0.00  0.00    +0.225 C 
ATOM     16  O   UNL     1       4.174  -4.133   2.884  0.00  0.00    -0.275 OA
ATOM     17  C   UNL     1       0.703  -4.905   0.560  0.00  0.00    +0.211 C 
ATOM     18  O   UNL     1       0.476  -4.866  -0.631  0.00  0.00    -0.277 OA
ATOM     19  N   UNL     1       0.284  -5.845   1.429  0.00  0.00    -0.286 N 
ATOM     20  C   UNL     1      -0.298  -7.566   3.900  0.00  0.00    +0.045 C 
ATOM     21  H   UNL     1      -0.260  -6.609   1.180  0.00  0.00    +0.155 HD
ATOM     22  N   UNL     1       0.957  -2.573   1.234  0.00  0.00    +0.394 N 
ATOM     23  H   UNL     1       1.259  -1.992   2.025  0.00  0.00    -0.083 HD
ATOM     24  H   UNL     1      -0.069  -2.611   1.210  0.00  0.00    -0.083 HD
ENDROOT
BRANCH  11  25
ATOM     25  C   UNL     1       1.451  -0.494  -0.015  0.00  0.00    -0.006 C 
BRANCH  25  26
ATOM     26  C   UNL     1       0.002  -0.004   0.002  0.00  0.00    +0.094 C 
BRANCH  26  27
ATOM     27  C   UNL     1      -0.018   1.503   0.010  0.00  0.00    +0.210 C 
ATOM     28  O   UNL     1       1.024   2.123   0.004  0.00  0.00    -0.276 OA
ATOM     29  N   UNL     1      -1.195   2.161   0.019  0.00  0.00    -0.329 N 
ATOM     30  H   UNL     1      -2.028   1.664   0.021  0.00  0.00    +0.145 HD
ATOM     31  H   UNL     1      -1.208   3.131   0.025  0.00  0.00    +0.145 HD
ENDBRANCH  26  27
ENDBRANCH  25  26
ENDBRANCH  11  25
BRANCH  14  32
ATOM     32  C   UNL     1       5.227  -1.502   2.693  0.00  0.00    +0.121 C 
BRANCH  32  33
ATOM     33  C   UNL     1       6.671  -1.776   2.269  0.00  0.00    +0.054 C 
BRANCH  33  34
ATOM     34  C   UNL     1       7.614  -1.091   3.223  0.00  0.00    -0.042 A 
ATOM     35  C   UNL     1       8.062  -1.758   4.348  0.00  0.00    +0.007 A 
ATOM     36  C   UNL     1       8.927  -1.133   5.227  0.00  0.00    +0.049 A 
ATOM     37  C   UNL     1       9.348   0.164   4.981  0.00  0.00    +0.161 A 
ATOM     38  C   UNL     1       8.898   0.835   3.849  0.00  0.00    +0.162 A 
ATOM     39  C   UNL     1       8.034   0.202   2.970  0.00  0.00    +0.053 A 
BRANCH  38  40
ATOM     40  O   UNL     1       9.308   2.108   3.603  0.00  0.00    -0.491 OA
ATOM     41  C   UNL     1       8.805   2.735   2.422  0.00  0.00    +0.277 C 
ENDBRANCH  38  40
BRANCH  37  42
ATOM     42  O   UNL     1      10.200   0.779   5.845  0.00  0.00    -0.491 OA
ATOM     43  C   UNL     1      10.621   0.029   6.986  0.00  0.00    +0.277 C 
ENDBRANCH  37  42
ENDBRANCH  33  34
ENDBRANCH  32  33
ENDBRANCH  14  32
TORSDOF 8
