REMARK  Name = ZINC35266953
REMARK  9 active torsions:
REMARK  status: ('A' for Active; 'I' for Inactive)
REMARK    1  A    between atoms: C_1  and  C_2
REMARK    2  A    between atoms: C_2  and  C_3
REMARK    3  A    between atoms: C_3  and  C_5
REMARK    4  A    between atoms: C_3  and  C_6
REMARK    5  A    between atoms: C_6  and  C_8
REMARK    6  A    between atoms: C_6  and  N_23
REMARK    7  A    between atoms: C_14  and  C_16
REMARK    8  A    between atoms: N_26  and  C_27
REMARK    9  A    between atoms: N_26  and  C_28
REMARK                            x       y       z     vdW  Elec       q    Type
REMARK                         _______ _______ _______ _____ _____    ______ ____
ROOT
ATOM      1  C   UNL     1       1.645  -2.416   0.013  0.00  0.00    +0.239 C 
ATOM      2  O   UNL     1       1.147  -3.130   0.857  0.00  0.00    -0.273 OA
ATOM      3  N   UNL     1       2.909  -1.975   0.164  0.00  0.00    -0.262 N 
ATOM      4  C   UNL     1       3.643  -2.339   1.286  0.00  0.00    +0.188 A 
ATOM      5  N   UNL     1       3.303  -3.104   2.315  0.00  0.00    -0.125 NA
ATOM      6  N   UNL     1       4.099  -3.337   3.265  0.00  0.00    -0.140 NA
ATOM      7  C   UNL     1       5.326  -2.830   3.291  0.00  0.00    +0.134 A 
ATOM      8  S   UNL     1       5.318  -1.914   1.753  0.00  0.00    -0.030 S 
ATOM      9  H   UNL     1       3.308  -1.403  -0.511  0.00  0.00    +0.157 HD
ENDROOT
BRANCH   7  10
ATOM     10  C   UNL     1       6.395  -2.983   4.301  0.00  0.00    +0.009 A 
ATOM     11  C   UNL     1       7.623  -2.344   4.123  0.00  0.00    +0.012 A 
ATOM     12  C   UNL     1       8.617  -2.490   5.068  0.00  0.00    +0.016 A 
ATOM     13  C   UNL     1       8.398  -3.269   6.192  0.00  0.00    +0.018 A 
ATOM     14  C   UNL     1       7.182  -3.905   6.374  0.00  0.00    +0.016 A 
ATOM     15  C   UNL     1       6.178  -3.762   5.439  0.00  0.00    +0.012 A 
ATOM     16 BR   UNL     1       9.766  -3.464   7.483  0.00  0.00    -0.050 Br
ENDBRANCH   7  10
BRANCH   1  17
ATOM     17  C   UNL     1       0.849  -2.021  -1.205  0.00  0.00    +0.163 C 
BRANCH  17  18
ATOM     18  N   UNL     1      -0.484  -2.624  -1.134  0.00  0.00    -0.288 N 
ATOM     19  C   UNL     1      -1.182  -2.851  -2.264  0.00  0.00    +0.302 C 
ATOM     20  O   UNL     1      -0.705  -2.557  -3.343  0.00  0.00    -0.253 OA
ATOM     21  N   UNL     1      -2.409  -3.406  -2.199  0.00  0.00    -0.292 N 
ATOM     22  C   UNL     1      -3.167  -3.653  -3.427  0.00  0.00    +0.133 C 
ATOM     23  C   UNL     1      -2.983  -3.761  -0.899  0.00  0.00    +0.133 C 
ATOM     24  H   UNL     1      -0.865  -2.859  -0.273  0.00  0.00    +0.151 HD
ENDBRANCH  17  18
BRANCH  17  25
ATOM     25  C   UNL     1       0.718  -0.497  -1.257  0.00  0.00    +0.015 C 
ATOM     26  C   UNL     1      -0.089  -0.097  -2.493  0.00  0.00    +0.010 C 
BRANCH  25  28
ATOM     27  C   UNL     1      -0.019   1.526   0.010  0.00  0.00    +0.004 C 
ATOM     28  C   UNL     1       0.002  -0.004   0.002  0.00  0.00    +0.002 C 
ENDBRANCH  25  28
ENDBRANCH  17  25
ENDBRANCH   1  17
TORSDOF 5
