REMARK  Name = ZINC39676584
REMARK  14 active torsions:
REMARK  status: ('A' for Active; 'I' for Inactive)
REMARK    1  A    between atoms: C_1  and  C_2
REMARK    2  A    between atoms: C_2  and  C_3
REMARK    3  A    between atoms: C_3  and  C_4
REMARK    4  A    between atoms: C_4  and  C_5
REMARK    5  A    between atoms: C_5  and  C_7
REMARK    6  A    between atoms: C_5  and  C_8
REMARK    7  A    between atoms: C_12  and  C_21
REMARK    8  A    between atoms: N_23  and  C_24
REMARK    9  A    between atoms: C_24  and  C_25
REMARK   10  A    between atoms: C_24  and  C_33
REMARK   11  A    between atoms: C_28  and  O_31
REMARK   12  A    between atoms: O_31  and  C_32
REMARK   13  A    between atoms: C_36  and  O_39
REMARK   14  A    between atoms: O_39  and  C_40
REMARK                            x       y       z     vdW  Elec       q    Type
REMARK                         _______ _______ _______ _____ _____    ______ ____
ROOT
ATOM      1  C   UNL     1       4.494  -5.199  -6.313  0.00  0.00    +0.219 C 
ATOM      2  O   UNL     1       3.728  -4.952  -7.220  0.00  0.00    -0.275 OA
ATOM      3  N   UNL     1       5.781  -5.497  -6.580  0.00  0.00    -0.304 N 
ATOM      4  H   UNL     1       6.394  -5.694  -5.854  0.00  0.00    +0.150 HD
ENDROOT
BRANCH   1   9
ATOM      5  C   UNL     1       1.275  -4.106  -2.762  0.00  0.00    +0.218 C 
ATOM      6  O   UNL     1       0.591  -4.761  -2.004  0.00  0.00    -0.275 OA
ATOM      7  N   UNL     1       1.940  -4.713  -3.765  0.00  0.00    -0.300 N 
ATOM      8  C   UNL     1       2.901  -4.107  -4.716  0.00  0.00    +0.121 C 
ATOM      9  C   UNL     1       4.007  -5.173  -4.887  0.00  0.00    +0.100 C 
ATOM     10  C   UNL     1       3.327  -6.504  -4.526  0.00  0.00    -0.004 C 
ATOM     11  C   UNL     1       1.880  -6.141  -4.161  0.00  0.00    +0.115 C 
ATOM     12  C   UNL     1       3.349  -7.450  -5.723  0.00  0.00    -0.010 C 
ATOM     13  C   UNL     1       2.720  -8.788  -5.322  0.00  0.00    -0.082 C 
ATOM     14  N   UNL     1       3.470  -9.367  -4.201  0.00  0.00    +0.379 N 
ATOM     15  C   UNL     1       3.366  -8.495  -3.025  0.00  0.00    -0.082 C 
ATOM     16  C   UNL     1       4.022  -7.145  -3.329  0.00  0.00    -0.010 C 
ATOM     17  H   UNL     1       3.092 -10.275  -3.979  0.00  0.00    -0.086 HD
ATOM     18  H   UNL     1       4.440  -9.464  -4.461  0.00  0.00    -0.086 HD
BRANCH   5  19
ATOM     19  C   UNL     1       1.381  -2.613  -2.583  0.00  0.00    +0.072 C 
ATOM     20  C   UNL     1       2.530  -2.295  -1.623  0.00  0.00    +0.017 C 
BRANCH  19  21
ATOM     21  C   UNL     1       0.070  -2.074  -2.007  0.00  0.00    +0.012 C 
BRANCH  21  22
ATOM     22  C   UNL     1       0.132  -0.547  -1.942  0.00  0.00    +0.000 C 
BRANCH  22  24
ATOM     23  C   UNL     1      -1.117   1.519  -1.300  0.00  0.00    +0.004 C 
ATOM     24  C   UNL     1      -1.179  -0.008  -1.365  0.00  0.00    -0.003 C 
ENDBRANCH  22  24
ENDBRANCH  21  22
ENDBRANCH  19  21
ENDBRANCH   5  19
ENDBRANCH   1   9
BRANCH   3  25
ATOM     25  C   UNL     1       6.255  -5.522  -7.966  0.00  0.00    +0.134 C 
BRANCH  25  26
ATOM     26  C   UNL     1       7.739  -5.264  -7.994  0.00  0.00    -0.023 A 
ATOM     27  C   UNL     1       8.557  -5.834  -7.036  0.00  0.00    +0.009 A 
ATOM     28  C   UNL     1       9.918  -5.599  -7.059  0.00  0.00    +0.046 A 
ATOM     29  C   UNL     1      10.464  -4.790  -8.046  0.00  0.00    +0.120 A 
ATOM     30  C   UNL     1       9.642  -4.220  -9.006  0.00  0.00    +0.046 A 
ATOM     31  C   UNL     1       8.282  -4.462  -8.981  0.00  0.00    +0.009 A 
BRANCH  29  32
ATOM     32  O   UNL     1      11.803  -4.556  -8.070  0.00  0.00    -0.495 OA
ATOM     33  C   UNL     1      12.295  -3.714  -9.114  0.00  0.00    +0.277 C 
ENDBRANCH  29  32
ENDBRANCH  25  26
BRANCH  25  34
ATOM     34  C   UNL     1       5.968  -6.873  -8.570  0.00  0.00    -0.023 A 
ATOM     35  C   UNL     1       6.142  -8.018  -7.814  0.00  0.00    +0.009 A 
ATOM     36  C   UNL     1       5.880  -9.257  -8.366  0.00  0.00    +0.046 A 
ATOM     37  C   UNL     1       5.442  -9.352  -9.678  0.00  0.00    +0.120 A 
ATOM     38  C   UNL     1       5.269  -8.202 -10.434  0.00  0.00    +0.046 A 
ATOM     39  C   UNL     1       5.527  -6.965  -9.877  0.00  0.00    +0.009 A 
BRANCH  37  40
ATOM     40  O   UNL     1       5.185 -10.570 -10.223  0.00  0.00    -0.495 OA
ATOM     41  C   UNL     1       4.737 -10.592 -11.580  0.00  0.00    +0.277 C 
ENDBRANCH  37  40
ENDBRANCH  25  34
ENDBRANCH   3  25
TORSDOF 10
