REMARK  Name = ZINC02967874
REMARK  11 active torsions:
REMARK  status: ('A' for Active; 'I' for Inactive)
REMARK    1  A    between atoms: C_1  and  C_2
REMARK    2  A    between atoms: C_2  and  C_3
REMARK    3  A    between atoms: C_3  and  C_5
REMARK    4  A    between atoms: C_3  and  N_6
REMARK    5  A    between atoms: C_7  and  C_9
REMARK    6  A    between atoms: C_9  and  S_10
REMARK    7  A    between atoms: S_10  and  C_11
REMARK    8  A    between atoms: C_21  and  C_26
REMARK    9  A    between atoms: C_26  and  C_27
REMARK   10  A    between atoms: N_29  and  C_30
REMARK   11  A    between atoms: C_30  and  C_31
REMARK                            x       y       z     vdW  Elec       q    Type
REMARK                         _______ _______ _______ _____ _____    ______ ____
ROOT
ATOM      1  C   UNL     1       0.002  -0.004   0.002  0.00  0.00    +0.169 C 
ATOM      2  N   UNL     1      -0.016   1.302   0.009  0.00  0.00    -0.225 NA
ATOM      3  C   UNL     1       1.123   2.040   0.002  0.00  0.00    +0.077 A 
ATOM      4  C   UNL     1       1.082   3.436   0.009  0.00  0.00    +0.028 A 
ATOM      5  C   UNL     1       2.258   4.153   0.001  0.00  0.00    +0.002 A 
ATOM      6  C   UNL     1       3.485   3.505  -0.014  0.00  0.00    +0.001 A 
ATOM      7  C   UNL     1       3.549   2.127  -0.020  0.00  0.00    +0.013 A 
ATOM      8  C   UNL     1       2.372   1.386  -0.013  0.00  0.00    +0.041 A 
ATOM      9  C   UNL     1       2.390  -0.092  -0.021  0.00  0.00    +0.139 C 
ATOM     10  N   UNL     1       3.394  -0.924  -0.035  0.00  0.00    -0.255 NA
ATOM     11  C   UNL     1       2.848  -2.288  -0.037  0.00  0.00    +0.202 C 
ATOM     12  C   UNL     1       1.348  -2.082  -0.021  0.00  0.00    +0.252 C 
ATOM     13  O   UNL     1       0.490  -2.938  -0.017  0.00  0.00    -0.272 OA
ATOM     14  N   UNL     1       1.167  -0.742  -0.013  0.00  0.00    -0.200 N 
ENDROOT
BRANCH   1  15
ATOM     15  S   UNL     1      -1.536  -0.864   0.012  0.00  0.00    -0.080 S 
BRANCH  15  16
ATOM     16  C   UNL     1      -2.680   0.538   0.030  0.00  0.00    +0.172 C 
BRANCH  16  18
ATOM     17  N   UNL     1      -5.127   0.899   0.056  0.00  0.00    -0.312 N 
ATOM     18  C   UNL     1      -4.098   0.029   0.041  0.00  0.00    +0.224 C 
ATOM     19  O   UNL     1      -4.314  -1.165   0.037  0.00  0.00    -0.275 OA
ATOM     20  H   UNL     1      -4.931   1.982   0.060  0.00  0.00    +0.149 HD
BRANCH  17  21
ATOM     21  C   UNL     1      -6.506   0.404   0.066  0.00  0.00    +0.070 C 
ATOM     22  C   UNL     1      -6.929   0.106   1.506  0.00  0.00    +0.028 C 
BRANCH  21  24
ATOM     23  C   UNL     1      -7.089   1.674  -2.005  0.00  0.00    +0.005 C 
ATOM     24  C   UNL     1      -7.433   1.466  -0.529  0.00  0.00    +0.018 C 
ENDBRANCH  21  24
ENDBRANCH  17  21
ENDBRANCH  16  18
ENDBRANCH  15  16
ENDBRANCH   1  15
BRANCH  11  25
ATOM     25  C   UNL     1       3.300  -3.050   1.211  0.00  0.00    +0.132 C 
BRANCH  25  26
ATOM     26  C   UNL     1       4.791  -3.264   1.155  0.00  0.00    +0.216 C 
ATOM     27  O   UNL     1       5.428  -2.848   0.211  0.00  0.00    -0.276 OA
ATOM     28  N   UNL     1       5.416  -3.917   2.155  0.00  0.00    -0.308 N 
ATOM     29  H   UNL     1       4.837  -4.293   3.012  0.00  0.00    +0.149 HD
BRANCH  28  30
ATOM     30  C   UNL     1       6.865  -4.125   2.102  0.00  0.00    +0.178 C 
BRANCH  30  31
ATOM     31  C   UNL     1       7.311  -4.874   3.330  0.00  0.00    +0.122 A 
ATOM     32  C   UNL     1       7.388  -6.212   3.451  0.00  0.00    +0.046 A 
ATOM     33  C   UNL     1       7.849  -6.479   4.761  0.00  0.00    +0.041 A 
ATOM     34  C   UNL     1       8.026  -5.289   5.362  0.00  0.00    +0.195 A 
ATOM     35  O   UNL     1       7.703  -4.320   4.489  0.00  0.00    -0.466 OA
ENDBRANCH  30  31
ENDBRANCH  28  30
ENDBRANCH  25  26
ENDBRANCH  11  25
TORSDOF 9
