REMARK  Name = ZINC06782428
REMARK  5 active torsions:
REMARK  status: ('A' for Active; 'I' for Inactive)
REMARK    1  A    between atoms: C_7  and  C_11
REMARK    2  A    between atoms: C_11  and  C_12
REMARK    3  A    between atoms: C_12  and  N_13
REMARK    4  A    between atoms: C_14  and  C_16
REMARK    5  A    between atoms: C_16  and  N_17
REMARK                            x       y       z     vdW  Elec       q    Type
REMARK                         _______ _______ _______ _____ _____    ______ ____
ROOT
ATOM      1  N   UNL     1      -2.911   3.384   1.472  0.00  0.00    -0.314 N 
ATOM      2  C   UNL     1      -3.511   3.688   2.639  0.00  0.00    +0.233 C 
ATOM      3  O   UNL     1      -3.067   3.254   3.681  0.00  0.00    -0.274 OA
ATOM      4  H   UNL     1      -3.266   3.731   0.639  0.00  0.00    +0.149 HD
ENDROOT
BRANCH   1   5
ATOM      5  C   UNL     1      -1.722   2.528   1.461  0.00  0.00    +0.109 C 
BRANCH   5   6
ATOM      6  C   UNL     1      -1.241   2.341   0.021  0.00  0.00    +0.056 C 
BRANCH   6  13
ATOM      7  C   UNL     1      -0.634  -2.308  -0.004  0.00  0.00    +0.001 A 
ATOM      8  C   UNL     1       0.704  -2.678  -0.019  0.00  0.00    +0.002 A 
ATOM      9  C   UNL     1       1.697  -1.724  -0.023  0.00  0.00    +0.026 A 
ATOM     10  C   UNL     1       1.359  -0.374  -0.013  0.00  0.00    +0.047 A 
ATOM     11  C   UNL     1       0.002  -0.004   0.002  0.00  0.00    +0.003 A 
ATOM     12  C   UNL     1      -0.989  -0.988   0.007  0.00  0.00    +0.010 A 
ATOM     13  C   UNL     1      -0.018   1.461   0.010  0.00  0.00    -0.021 A 
ATOM     14  C   UNL     1       1.260   1.871   0.000  0.00  0.00    +0.087 A 
ATOM     15  N   UNL     1       2.097   0.788  -0.014  0.00  0.00    -0.360 N 
ATOM     16  H   UNL     1       3.066   0.833  -0.023  0.00  0.00    +0.165 HD
ENDBRANCH   6  13
ENDBRANCH   5   6
ENDBRANCH   1   5
BRANCH   2  17
ATOM     17  C   UNL     1      -4.735   4.568   2.650  0.00  0.00    +0.221 C 
BRANCH  17  18
ATOM     18  N   UNL     1      -5.195   4.748   4.029  0.00  0.00    -0.296 N 
ATOM     19  C   UNL     1      -6.121   3.858   4.572  0.00  0.00    +0.072 A 
ATOM     20  C   UNL     1      -6.590   2.800   3.802  0.00  0.00    +0.066 A 
ATOM     21  C   UNL     1      -7.504   1.909   4.334  0.00  0.00    +0.125 A 
ATOM     22  C   UNL     1      -7.951   2.064   5.637  0.00  0.00    +0.040 A 
ATOM     23  C   UNL     1      -7.485   3.109   6.410  0.00  0.00    +0.031 A 
ATOM     24  C   UNL     1      -6.567   4.008   5.884  0.00  0.00    +0.071 A 
ATOM     25  N   UNL     1      -6.098   5.065   6.672  0.00  0.00    -0.310 N 
ATOM     26  C   UNL     1      -6.365   5.438   7.949  0.00  0.00    +0.092 A 
ATOM     27  C   UNL     1      -5.642   6.546   8.243  0.00  0.00    +0.020 A 
ATOM     28  C   UNL     1      -4.892   6.884   7.113  0.00  0.00    +0.033 A 
ATOM     29  C   UNL     1      -5.186   5.953   6.141  0.00  0.00    +0.112 A 
ATOM     30  C   UNL     1      -4.724   5.776   4.763  0.00  0.00    +0.276 A 
ATOM     31  O   UNL     1      -3.919   6.553   4.282  0.00  0.00    -0.265 OA
ATOM     32  F   UNL     1      -7.963   0.885   3.582  0.00  0.00    -0.205 F 
ENDBRANCH  17  18
ENDBRANCH   2  17
TORSDOF 5
