REMARK  Name = ZINC64202281
REMARK  6 active torsions:
REMARK  status: ('A' for Active; 'I' for Inactive)
REMARK    1  A    between atoms: C_1  and  C_2
REMARK    2  A    between atoms: C_3  and  C_13
REMARK    3  A    between atoms: N_15  and  C_16
REMARK    4  A    between atoms: C_16  and  C_17
REMARK    5  A    between atoms: C_17  and  C_19
REMARK    6  A    between atoms: C_17  and  C_25
REMARK                            x       y       z     vdW  Elec       q    Type
REMARK                         _______ _______ _______ _____ _____    ______ ____
ROOT
ATOM      1  C   UNL     1      -4.551   0.234   1.193  0.00  0.00    +0.117 C 
ENDROOT
BRANCH   1   4
ATOM      2  C   UNL     1      -2.509  -0.379   0.012  0.00  0.00    +0.248 C 
ATOM      3  O   UNL     1      -3.096  -0.197  -1.037  0.00  0.00    -0.270 OA
ATOM      4  N   UNL     1      -3.148  -0.190   1.184  0.00  0.00    -0.310 N 
ATOM      5  H   UNL     1      -2.680  -0.335   2.021  0.00  0.00    +0.149 HD
BRANCH   2   8
ATOM      6  C   UNL     1      -0.018   1.503   0.010  0.00  0.00    +0.087 C 
ATOM      7  C   UNL     1       0.002  -0.004   0.002  0.00  0.00    +0.117 A 
ATOM      8  C   UNL     1      -1.100  -0.804   0.003  0.00  0.00    +0.092 A 
ATOM      9  C   UNL     1      -0.586  -2.183  -0.007  0.00  0.00    +0.116 A 
ATOM     10  C   UNL     1      -1.173  -3.467  -0.011  0.00  0.00    +0.263 A 
ATOM     11  O   UNL     1      -2.384  -3.603  -0.007  0.00  0.00    -0.267 OA
ATOM     12  N   UNL     1      -0.351  -4.542  -0.021  0.00  0.00    -0.313 N 
ATOM     13  H   UNL     1      -0.724  -5.437  -0.024  0.00  0.00    +0.170 HD
ATOM     14  C   UNL     1       0.994  -4.369  -0.026  0.00  0.00    +0.203 A 
ATOM     15  N   UNL     1       1.546  -3.188  -0.022  0.00  0.00    -0.202 NA
ATOM     16  C   UNL     1       0.804  -2.070  -0.013  0.00  0.00    +0.235 A 
ATOM     17  O   UNL     1       1.107  -0.761  -0.013  0.00  0.00    -0.441 OA
ENDBRANCH   2   8
ENDBRANCH   1   4
BRANCH   1  18
ATOM     18  C   UNL     1      -5.032   0.373   2.639  0.00  0.00    +0.064 C 
BRANCH  18  19
ATOM     19  C   UNL     1      -6.434   0.926   2.650  0.00  0.00    -0.033 C 
ATOM     20  C   UNL     1      -6.848   2.079   3.222  0.00  0.00    -0.000 A 
ATOM     21  C   UNL     1      -6.146   3.124   3.977  0.00  0.00    +0.010 A 
ATOM     22  C   UNL     1      -6.846   4.186   4.434  0.00  0.00    +0.001 A 
ATOM     23  C   UNL     1      -8.223   4.314   4.208  0.00  0.00    +0.002 A 
ATOM     24  C   UNL     1      -8.938   3.396   3.523  0.00  0.00    +0.026 A 
ATOM     25  C   UNL     1      -8.303   2.238   2.996  0.00  0.00    +0.043 A 
ATOM     26  N   UNL     1      -8.769   1.222   2.311  0.00  0.00    -0.380 N 
ATOM     27  C   UNL     1      -7.661   0.306   2.019  0.00  0.00    +0.145 C 
ATOM     28  H   UNL     1      -9.692   1.099   2.038  0.00  0.00    +0.160 HD
ENDBRANCH  18  19
BRANCH  18  29
ATOM     29  C   UNL     1      -5.019  -0.978   3.305  0.00  0.00    -0.039 A 
ATOM     30  C   UNL     1      -5.784  -2.009   2.792  0.00  0.00    +0.004 A 
ATOM     31  C   UNL     1      -5.772  -3.249   3.403  0.00  0.00    +0.000 A 
ATOM     32  C   UNL     1      -4.995  -3.458   4.528  0.00  0.00    +0.000 A 
ATOM     33  C   UNL     1      -4.230  -2.427   5.040  0.00  0.00    +0.000 A 
ATOM     34  C   UNL     1      -4.238  -1.189   4.426  0.00  0.00    +0.004 A 
ENDBRANCH  18  29
ENDBRANCH   1  18
TORSDOF 5
