REMARK  Name = ZINC14005269
REMARK  8 active torsions:
REMARK  status: ('A' for Active; 'I' for Inactive)
REMARK    1  A    between atoms: C_1  and  C_2
REMARK    2  A    between atoms: C_5  and  O_9
REMARK    3  A    between atoms: O_9  and  C_10
REMARK    4  A    between atoms: C_10  and  C_11
REMARK    5  A    between atoms: N_13  and  N_14
REMARK    6  A    between atoms: N_14  and  C_15
REMARK    7  A    between atoms: C_15  and  N_17
REMARK    8  A    between atoms: C_18  and  C_20
REMARK                            x       y       z     vdW  Elec       q    Type
REMARK                         _______ _______ _______ _____ _____    ______ ____
ROOT
ATOM      1  N   UNL     1       1.142   2.033   0.002  0.00  0.00    -0.245 N 
ATOM      2  H   UNL     1       1.129   3.003   0.007  0.00  0.00    +0.172 HD
ENDROOT
BRANCH   1   5
ATOM      3  C   UNL     1       3.522   2.039  -0.021  0.00  0.00    +0.267 C 
ATOM      4  O   UNL     1       3.506   3.252  -0.014  0.00  0.00    -0.271 OA
ATOM      5  N   UNL     1       2.364   1.349  -0.013  0.00  0.00    -0.232 N 
ATOM      6  H   UNL     1       2.377   0.379  -0.019  0.00  0.00    +0.173 HD
BRANCH   3   7
ATOM      7  C   UNL     1       4.837   1.303  -0.037  0.00  0.00    +0.326 C 
BRANCH   7   8
ATOM      8  O   UNL     1       5.911   2.247  -0.042  0.00  0.00    -0.482 OA
BRANCH   8  13
ATOM      9  C   UNL     1      11.144   0.164  -0.106  0.00  0.00    +0.044 C 
ATOM     10  C   UNL     1       9.744   0.722  -0.088  0.00  0.00    -0.049 A 
ATOM     11  C   UNL     1       8.660  -0.136  -0.082  0.00  0.00    +0.007 A 
ATOM     12  C   UNL     1       7.375   0.372  -0.066  0.00  0.00    +0.047 A 
ATOM     13  C   UNL     1       7.174   1.744  -0.057  0.00  0.00    +0.135 A 
ATOM     14  C   UNL     1       8.264   2.604  -0.069  0.00  0.00    +0.060 A 
ATOM     15  C   UNL     1       9.547   2.090  -0.080  0.00  0.00    +0.022 A 
ATOM     16 BR   UNL     1       7.993   4.475  -0.063  0.00  0.00    -0.047 Br
ENDBRANCH   8  13
ENDBRANCH   7   8
ENDBRANCH   3   7
ENDBRANCH   1   5
BRANCH   1  17
ATOM     17  C   UNL     1      -0.016   1.344   0.009  0.00  0.00    +0.153 C 
ATOM     18  S   UNL     1      -1.510   2.179   0.021  0.00  0.00    -0.017 S 
BRANCH  17  19
ATOM     19  N   UNL     1       0.002  -0.004   0.002  0.00  0.00    -0.263 N 
ATOM     20  C   UNL     1      -1.156  -0.694   0.009  0.00  0.00    +0.250 C 
ATOM     21  O   UNL     1      -2.216  -0.101   0.023  0.00  0.00    -0.270 OA
ATOM     22  H   UNL     1       0.849  -0.478  -0.009  0.00  0.00    +0.157 HD
BRANCH  20  23
ATOM     23  C   UNL     1      -1.136  -2.171   0.001  0.00  0.00    +0.038 A 
ATOM     24  C   UNL     1       0.081  -2.856  -0.020  0.00  0.00    +0.013 A 
ATOM     25  C   UNL     1       0.093  -4.235  -0.022  0.00  0.00    +0.002 A 
ATOM     26  C   UNL     1      -1.097  -4.941  -0.015  0.00  0.00    +0.020 A 
ATOM     27  C   UNL     1      -2.307  -4.269   0.001  0.00  0.00    +0.042 A 
ATOM     28  C   UNL     1      -2.333  -2.889   0.009  0.00  0.00    +0.033 A 
ATOM     29 CL   UNL     1      -3.795  -5.164   0.009  0.00  0.00    -0.084 Cl
ENDBRANCH  20  23
ENDBRANCH  17  19
ENDBRANCH   1  17
TORSDOF 7
