REMARK  Name = ZINC39666076
REMARK  9 active torsions:
REMARK  status: ('A' for Active; 'I' for Inactive)
REMARK    1  A    between atoms: C_1  and  C_2
REMARK    2  A    between atoms: C_5  and  O_8
REMARK    3  A    between atoms: O_8  and  C_9
REMARK    4  A    between atoms: C_9  and  C_11
REMARK    5  A    between atoms: C_9  and  C_12
REMARK    6  A    between atoms: C_12  and  N_13
REMARK    7  A    between atoms: C_14  and  C_16
REMARK    8  A    between atoms: C_27  and  C_29
REMARK    9  A    between atoms: C_29  and  C_35
REMARK                            x       y       z     vdW  Elec       q    Type
REMARK                         _______ _______ _______ _____ _____    ______ ____
ROOT
ATOM      1  C   UNL     1       4.594  -6.453   0.325  0.00  0.00    +0.100 C 
ATOM      2  C   UNL     1       4.890  -5.596  -0.926  0.00  0.00    +0.121 C 
ATOM      3  N   UNL     1       6.194  -6.097  -1.423  0.00  0.00    -0.300 N 
ATOM      4  C   UNL     1       6.122  -7.566  -1.232  0.00  0.00    +0.115 C 
ATOM      5  C   UNL     1       5.403  -7.744   0.121  0.00  0.00    -0.004 C 
ATOM      6  C   UNL     1       4.470  -8.950   0.066  0.00  0.00    -0.010 C 
ATOM      7  C   UNL     1       5.301 -10.228  -0.079  0.00  0.00    -0.082 C 
ATOM      8  N   UNL     1       6.221 -10.347   1.059  0.00  0.00    +0.379 N 
ATOM      9  C   UNL     1       7.176  -9.232   1.050  0.00  0.00    -0.082 C 
ATOM     10  C   UNL     1       6.423  -7.912   1.243  0.00  0.00    -0.010 C 
ATOM     11  C   UNL     1       7.215  -5.380  -1.932  0.00  0.00    +0.222 C 
ATOM     12  O   UNL     1       8.262  -5.926  -2.207  0.00  0.00    -0.275 OA
ATOM     13  H   UNL     1       5.694 -10.330   1.919  0.00  0.00    -0.086 HD
ATOM     14  H   UNL     1       6.724 -11.219   0.993  0.00  0.00    -0.086 HD
ENDROOT
BRANCH  11  15
ATOM     15  C   UNL     1       7.054  -3.898  -2.159  0.00  0.00    +0.044 C 
ATOM     16  C   UNL     1       5.767  -3.639  -2.944  0.00  0.00    +0.016 C 
ATOM     17  C   UNL     1       5.838  -4.357  -4.293  0.00  0.00    +0.001 C 
ATOM     18  C   UNL     1       7.035  -3.832  -5.088  0.00  0.00    +0.000 C 
ATOM     19  C   UNL     1       8.322  -4.091  -4.304  0.00  0.00    +0.001 C 
ATOM     20  C   UNL     1       8.251  -3.372  -2.955  0.00  0.00    +0.016 C 
ATOM     21  C   UNL     1       6.983  -3.180  -0.811  0.00  0.00    +0.021 C 
ENDBRANCH  11  15
BRANCH   1  23
ATOM     22  N   UNL     1       2.540  -6.938   1.615  0.00  0.00    -0.312 N 
ATOM     23  C   UNL     1       3.122  -6.764   0.412  0.00  0.00    +0.218 C 
ATOM     24  O   UNL     1       2.462  -6.858  -0.601  0.00  0.00    -0.275 OA
ATOM     25  H   UNL     1       3.068  -6.862   2.425  0.00  0.00    +0.149 HD
BRANCH  22  26
ATOM     26  C   UNL     1       1.109  -7.240   1.699  0.00  0.00    +0.148 C 
BRANCH  26  27
ATOM     27  C   UNL     1       0.704  -7.388   3.167  0.00  0.00    +0.187 C 
ATOM     28  C   UNL     1      -0.759  -7.826   3.251  0.00  0.00    +0.053 C 
BRANCH  27  29
ATOM     29  O   UNL     1       0.866  -6.135   3.834  0.00  0.00    -0.488 OA
BRANCH  29  34
ATOM     30  C   UNL     1       2.238  -6.303   9.294  0.00  0.00    +0.044 C 
ATOM     31  C   UNL     1       1.871  -6.258   7.833  0.00  0.00    -0.050 A 
ATOM     32  C   UNL     1       1.601  -7.431   7.153  0.00  0.00    +0.007 A 
ATOM     33  C   UNL     1       1.264  -7.393   5.814  0.00  0.00    +0.046 A 
ATOM     34  C   UNL     1       1.196  -6.176   5.152  0.00  0.00    +0.121 A 
ATOM     35  C   UNL     1       1.467  -5.000   5.837  0.00  0.00    +0.046 A 
ATOM     36  C   UNL     1       1.798  -5.043   7.177  0.00  0.00    +0.007 A 
ENDBRANCH  29  34
ENDBRANCH  27  29
ENDBRANCH  26  27
ENDBRANCH  22  26
ENDBRANCH   1  23
TORSDOF 6
