REMARK  Name = ZINC09365028
REMARK  9 active torsions:
REMARK  status: ('A' for Active; 'I' for Inactive)
REMARK    1  A    between atoms: C_1  and  C_2
REMARK    2  A    between atoms: C_2  and  C_3
REMARK    3  A    between atoms: C_3  and  C_30
REMARK    4  A    between atoms: N_6  and  N_10
REMARK    5  A    between atoms: C_11  and  C_13
REMARK    6  A    between atoms: C_13  and  S_14
REMARK    7  A    between atoms: S_14  and  C_15
REMARK    8  A    between atoms: C_18  and  C_23
REMARK    9  A    between atoms: N_19  and  C_20
REMARK                            x       y       z     vdW  Elec       q    Type
REMARK                         _______ _______ _______ _____ _____    ______ ____
ROOT
ATOM      1  N   UNL     1      -1.433  -0.560   0.111  0.00  0.00    -0.223 N 
ATOM      2  C   UNL     1      -1.785  -1.174  -1.037  0.00  0.00    +0.240 C 
ATOM      3  O   UNL     1      -1.167  -0.953  -2.057  0.00  0.00    -0.273 OA
ATOM      4  H   UNL     1      -1.927  -0.737   0.926  0.00  0.00    +0.174 HD
ENDROOT
BRANCH   1   8
ATOM      5  C   UNL     1       0.933   2.220   0.177  0.00  0.00    +0.139 C 
ATOM      6  C   UNL     1      -0.481   1.673   0.186  0.00  0.00    +0.268 C 
ATOM      7  O   UNL     1      -1.512   2.309   0.232  0.00  0.00    -0.271 OA
ATOM      8  N   UNL     1      -0.354   0.333   0.125  0.00  0.00    -0.137 N 
ATOM      9  C   UNL     1       0.931  -0.040   0.080  0.00  0.00    +0.327 C 
ATOM     10  O   UNL     1       1.297  -1.197   0.022  0.00  0.00    -0.251 OA
ATOM     11  N   UNL     1       1.771   1.010   0.106  0.00  0.00    -0.280 N 
ATOM     12  H   UNL     1       2.740   0.978   0.083  0.00  0.00    +0.152 HD
BRANCH   5  13
ATOM     13  C   UNL     1       1.213   2.985   1.444  0.00  0.00    -0.015 A 
ATOM     14  C   UNL     1       0.969   4.345   1.499  0.00  0.00    +0.006 A 
ATOM     15  C   UNL     1       1.222   5.046   2.663  0.00  0.00    +0.000 A 
ATOM     16  C   UNL     1       1.728   4.390   3.769  0.00  0.00    +0.000 A 
ATOM     17  C   UNL     1       1.977   3.032   3.713  0.00  0.00    +0.000 A 
ATOM     18  C   UNL     1       1.720   2.329   2.550  0.00  0.00    +0.006 A 
ENDBRANCH   5  13
BRANCH   5  20
ATOM     19  C   UNL     1       0.922   2.287  -2.321  0.00  0.00    +0.007 C 
ATOM     20  C   UNL     1       1.160   3.105  -1.050  0.00  0.00    +0.037 C 
ENDBRANCH   5  20
ENDBRANCH   1   8
BRANCH   2  21
ATOM     21  C   UNL     1      -2.946  -2.135  -1.052  0.00  0.00    +0.174 C 
BRANCH  21  22
ATOM     22  S   UNL     1      -3.166  -2.788  -2.726  0.00  0.00    -0.077 S 
BRANCH  22  23
ATOM     23  C   UNL     1      -4.546  -3.851  -2.460  0.00  0.00    +0.193 A 
ATOM     24  N   UNL     1      -5.173  -4.045  -1.322  0.00  0.00    -0.122 NA
ATOM     25  N   UNL     1      -6.134  -4.882  -1.484  0.00  0.00    -0.128 NA
ATOM     26  C   UNL     1      -6.181  -5.274  -2.736  0.00  0.00    +0.168 A 
ATOM     27  N   UNL     1      -5.168  -4.621  -3.401  0.00  0.00    -0.299 N 
BRANCH  26  28
ATOM     28  C   UNL     1      -7.143  -6.230  -3.322  0.00  0.00    +0.054 A 
ATOM     29  C   UNL     1      -7.788  -5.929  -4.523  0.00  0.00    +0.014 A 
ATOM     30  C   UNL     1      -8.685  -6.826  -5.065  0.00  0.00    +0.001 A 
ATOM     31  C   UNL     1      -8.947  -8.023  -4.422  0.00  0.00    +0.003 A 
ATOM     32  C   UNL     1      -8.313  -8.329  -3.232  0.00  0.00    +0.039 A 
ATOM     33  C   UNL     1      -7.407  -7.443  -2.680  0.00  0.00    +0.134 A 
ATOM     34  F   UNL     1      -6.784  -7.745  -1.520  0.00  0.00    -0.205 F 
ENDBRANCH  26  28
BRANCH  27  35
ATOM     35  C   UNL     1      -4.827  -4.732  -4.822  0.00  0.00    +0.091 C 
ATOM     36  C   UNL     1      -3.446  -4.236  -5.257  0.00  0.00    +0.027 C 
ATOM     37  C   UNL     1      -4.698  -3.433  -5.620  0.00  0.00    +0.027 C 
ENDBRANCH  27  35
ENDBRANCH  22  23
ENDBRANCH  21  22
ENDBRANCH   2  21
TORSDOF 8
