REMARK  Name = ZINC64201989
REMARK  8 active torsions:
REMARK  status: ('A' for Active; 'I' for Inactive)
REMARK    1  A    between atoms: C_1  and  C_2
REMARK    2  A    between atoms: C_2  and  C_3
REMARK    3  A    between atoms: C_3  and  C_4
REMARK    4  A    between atoms: C_3  and  C_6
REMARK    5  A    between atoms: C_4  and  C_5
REMARK    6  A    between atoms: C_13  and  C_15
REMARK    7  A    between atoms: N_24  and  C_27
REMARK    8  A    between atoms: C_27  and  C_28
REMARK                            x       y       z     vdW  Elec       q    Type
REMARK                         _______ _______ _______ _____ _____    ______ ____
ROOT
ATOM      1  C   UNL     1       1.122  -1.976   1.009  0.00  0.00    +0.157 C 
ATOM      2  N   UNL     1       1.967  -2.473   2.119  0.00  0.00    -0.253 N 
ATOM      3  N   UNL     1       3.197  -2.965   1.744  0.00  0.00    -0.163 NA
ATOM      4  C   UNL     1       3.606  -3.000   0.513  0.00  0.00    +0.179 C 
ATOM      5  S   UNL     1       2.245  -2.301  -0.412  0.00  0.00    -0.065 S 
ATOM      6  N   UNL     1       4.820  -3.471   0.027  0.00  0.00    -0.260 N 
ATOM      7  C   UNL     1       5.739  -3.970   0.877  0.00  0.00    +0.250 C 
ATOM      8  O   UNL     1       5.506  -4.008   2.070  0.00  0.00    -0.270 OA
ATOM      9  H   UNL     1       1.675  -2.453   3.043  0.00  0.00    +0.169 HD
ATOM     10  H   UNL     1       5.005  -3.442  -0.925  0.00  0.00    +0.157 HD
ENDROOT
BRANCH   7  11
ATOM     11  C   UNL     1       7.031  -4.473   0.359  0.00  0.00    +0.039 A 
ATOM     12  C   UNL     1       7.296  -4.422  -1.016  0.00  0.00    +0.014 A 
ATOM     13  C   UNL     1       8.482  -4.880  -1.512  0.00  0.00    +0.016 A 
ATOM     14  C   UNL     1       9.442  -5.404  -0.647  0.00  0.00    +0.065 A 
ATOM     15  C   UNL     1       9.190  -5.462   0.743  0.00  0.00    +0.080 A 
ATOM     16  C   UNL     1       7.974  -4.986   1.240  0.00  0.00    +0.041 A 
ATOM     17  N   UNL     1      10.137  -5.976   1.564  0.00  0.00    -0.222 NA
ATOM     18  C   UNL     1      11.279  -6.420   1.100  0.00  0.00    +0.183 A 
ATOM     19  S   UNL     1      12.453  -7.071   2.242  0.00  0.00    -0.011 SA
ATOM     20  N   UNL     1      11.602  -6.401  -0.226  0.00  0.00    -0.283 N 
ATOM     21  C   UNL     1      10.733  -5.910  -1.139  0.00  0.00    +0.263 A 
ATOM     22  O   UNL     1      11.008  -5.887  -2.324  0.00  0.00    -0.267 OA
BRANCH  20  23
ATOM     23  C   UNL     1      12.901  -6.917  -0.665  0.00  0.00    +0.154 C 
BRANCH  23  24
ATOM     24  C   UNL     1      12.780  -8.387  -0.972  0.00  0.00    -0.013 C 
ATOM     25  C   UNL     1      13.141  -8.844  -2.145  0.00  0.00    +0.005 C 
ENDBRANCH  23  24
ENDBRANCH  20  23
ENDBRANCH   7  11
BRANCH   1  26
ATOM     26  C   UNL     1       0.830  -0.482   1.158  0.00  0.00    +0.021 C 
BRANCH  26  28
ATOM     27  C   UNL     1      -0.242   1.498   0.074  0.00  0.00    +0.004 C 
ATOM     28  C   UNL     1      -0.064  -0.020   0.004  0.00  0.00    +0.003 C 
ENDBRANCH  26  28
BRANCH  26  29
ATOM     29  C   UNL     1       0.116  -0.231   2.488  0.00  0.00    +0.003 C 
ATOM     30  C   UNL     1      -1.175  -1.052   2.537  0.00  0.00    +0.004 C 
ENDBRANCH  26  29
ENDBRANCH   1  26
TORSDOF 6
