REMARK  Name = ZINC12181928
REMARK  6 active torsions:
REMARK  status: ('A' for Active; 'I' for Inactive)
REMARK    1  A    between atoms: C_1  and  C_2
REMARK    2  A    between atoms: C_2  and  C_3
REMARK    3  A    between atoms: C_2  and  C_4
REMARK    4  A    between atoms: N_16  and  C_18
REMARK    5  A    between atoms: C_18  and  C_19
REMARK    6  A    between atoms: N_21  and  C_22
REMARK                            x       y       z     vdW  Elec       q    Type
REMARK                         _______ _______ _______ _____ _____    ______ ____
ROOT
ATOM      1  C   UNL     1       0.707  -0.490  -1.238  0.00  0.00    +0.123 A 
ATOM      2  N   UNL     1       1.567   0.294  -1.805  0.00  0.00    -0.233 NA
ATOM      3  C   UNL     1       2.256  -0.063  -2.923  0.00  0.00    +0.077 A 
ATOM      4  C   UNL     1       3.182   0.797  -3.512  0.00  0.00    +0.028 A 
ATOM      5  C   UNL     1       3.857   0.404  -4.647  0.00  0.00    +0.002 A 
ATOM      6  C   UNL     1       3.626  -0.841  -5.214  0.00  0.00    +0.001 A 
ATOM      7  C   UNL     1       2.713  -1.709  -4.648  0.00  0.00    +0.014 A 
ATOM      8  C   UNL     1       2.024  -1.328  -3.503  0.00  0.00    +0.045 A 
ATOM      9  C   UNL     1       1.039  -2.212  -2.855  0.00  0.00    +0.172 A 
ATOM     10  N   UNL     1       0.404  -1.739  -1.714  0.00  0.00    -0.230 N 
ATOM     11  C   UNL     1      -0.445  -2.694  -1.287  0.00  0.00    +0.353 A 
ATOM     12  O   UNL     1      -1.170  -2.625  -0.311  0.00  0.00    -0.244 OA
ATOM     13  N   UNL     1      -0.350  -3.740  -2.133  0.00  0.00    -0.203 N 
ATOM     14  N   UNL     1       0.596  -3.408  -3.114  0.00  0.00    -0.148 NA
ENDROOT
BRANCH   1  16
ATOM     15  C   UNL     1      -0.019   1.526   0.010  0.00  0.00    +0.015 C 
ATOM     16  C   UNL     1       0.002  -0.004   0.002  0.00  0.00    +0.050 C 
ATOM     17  C   UNL     1       0.742  -0.511   1.242  0.00  0.00    +0.015 C 
ENDBRANCH   1  16
BRANCH  13  18
ATOM     18  C   UNL     1      -1.099  -4.996  -2.044  0.00  0.00    +0.244 C 
BRANCH  18  19
ATOM     19  C   UNL     1      -2.386  -4.869  -2.818  0.00  0.00    +0.235 C 
ATOM     20  O   UNL     1      -2.651  -3.832  -3.389  0.00  0.00    -0.274 OA
ATOM     21  N   UNL     1      -3.242  -5.909  -2.877  0.00  0.00    -0.308 N 
ATOM     22  H   UNL     1      -3.030  -6.738  -2.422  0.00  0.00    +0.149 HD
BRANCH  21  23
ATOM     23  C   UNL     1      -4.493  -5.785  -3.630  0.00  0.00    +0.035 C 
ATOM     24  C   UNL     1      -5.332  -4.648  -3.043  0.00  0.00    +0.029 C 
ATOM     25  C   UNL     1      -6.638  -4.520  -3.829  0.00  0.00    -0.008 C 
ATOM     26  C   UNL     1      -7.420  -5.831  -3.736  0.00  0.00    +0.007 C 
ATOM     27  C   UNL     1      -6.582  -6.968  -4.323  0.00  0.00    -0.008 C 
ATOM     28  C   UNL     1      -5.276  -7.097  -3.537  0.00  0.00    +0.029 C 
ATOM     29  C   UNL     1      -6.267  -6.665  -5.789  0.00  0.00    +0.007 C 
ATOM     30  C   UNL     1      -5.485  -5.354  -5.882  0.00  0.00    -0.008 C 
ATOM     31  C   UNL     1      -6.323  -4.217  -5.295  0.00  0.00    +0.007 C 
ATOM     32  C   UNL     1      -4.178  -5.482  -5.096  0.00  0.00    +0.029 C 
ENDBRANCH  21  23
ENDBRANCH  18  19
ENDBRANCH  13  18
TORSDOF 4
