REMARK  Name = ZINC14993483
REMARK  8 active torsions:
REMARK  status: ('A' for Active; 'I' for Inactive)
REMARK    1  A    between atoms: C_4  and  C_7
REMARK    2  A    between atoms: C_7  and  C_9
REMARK    3  A    between atoms: C_7  and  N_74
REMARK    4  A    between atoms: C_9  and  N_10
REMARK    5  A    between atoms: C_11  and  C_13
REMARK    6  A    between atoms: N_15  and  C_26
REMARK    7  A    between atoms: C_17  and  C_20
REMARK    8  A    between atoms: N_22  and  C_23
REMARK                            x       y       z     vdW  Elec       q    Type
REMARK                         _______ _______ _______ _____ _____    ______ ____
ROOT
ATOM      1  C   UNL     1       0.803  -2.617  -1.371  0.00  0.00    +0.100 A 
ATOM      2  C   UNL     1      -0.341  -3.154  -0.822  0.00  0.00    +0.102 A 
ATOM      3  N   UNL     1      -1.506  -2.486  -0.839  0.00  0.00    -0.349 N 
ATOM      4  C   UNL     1      -1.648  -1.263  -1.376  0.00  0.00    +0.102 A 
ATOM      5  C   UNL     1      -0.588  -0.609  -1.964  0.00  0.00    +0.100 A 
ATOM      6  C   UNL     1       0.723  -1.280  -1.983  0.00  0.00    +0.206 A 
ATOM      7  O   UNL     1       1.701  -0.751  -2.484  0.00  0.00    -0.286 OA
ENDROOT
BRANCH   3   8
ATOM      8  C   UNL     1      -2.680  -3.122  -0.237  0.00  0.00    +0.087 C 
ATOM      9  C   UNL     1      -2.408  -3.399   1.243  0.00  0.00    +0.025 C 
ATOM     10  C   UNL     1      -3.634  -4.063   1.873  0.00  0.00    +0.002 C 
ATOM     11  C   UNL     1      -3.926  -5.381   1.153  0.00  0.00    +0.000 C 
ATOM     12  C   UNL     1      -4.199  -5.104  -0.327  0.00  0.00    +0.002 C 
ATOM     13  C   UNL     1      -2.973  -4.440  -0.957  0.00  0.00    +0.025 C 
ENDBRANCH   3   8
BRANCH   1  15
ATOM     14  N   UNL     1       2.128  -4.583  -0.781  0.00  0.00    -0.312 N 
ATOM     15  C   UNL     1       2.074  -3.361  -1.346  0.00  0.00    +0.249 C 
ATOM     16  O   UNL     1       3.075  -2.872  -1.835  0.00  0.00    -0.270 OA
ATOM     17  H   UNL     1       1.330  -4.973  -0.391  0.00  0.00    +0.149 HD
BRANCH  14  18
ATOM     18  C   UNL     1       3.393  -5.324  -0.756  0.00  0.00    +0.094 C 
BRANCH  18  19
ATOM     19  C   UNL     1       3.181  -6.671  -0.063  0.00  0.00    -0.020 C 
BRANCH  19  25
ATOM     20  C   UNL     1       3.514  -5.667   2.114  0.00  0.00    -0.078 C 
ATOM     21  C   UNL     1       2.824  -5.335   3.439  0.00  0.00    -0.019 C 
ATOM     22  C   UNL     1       2.435  -6.635   4.147  0.00  0.00    -0.004 C 
ATOM     23  C   UNL     1       1.526  -7.456   3.227  0.00  0.00    -0.019 C 
ATOM     24  C   UNL     1       2.254  -7.727   1.908  0.00  0.00    -0.078 C 
ATOM     25  N   UNL     1       2.579  -6.436   1.265  0.00  0.00    +0.385 N 
ATOM     26  H   UNL     1       1.714  -5.895   1.149  0.00  0.00    -0.081 HD
ENDBRANCH  19  25
BRANCH  19  30
ATOM     27  C   UNL     1       6.931  -8.680   0.321  0.00  0.00    +0.000 A 
ATOM     28  C   UNL     1       6.805  -7.366   0.734  0.00  0.00    +0.000 A 
ATOM     29  C   UNL     1       5.591  -6.716   0.610  0.00  0.00    +0.002 A 
ATOM     30  C   UNL     1       4.504  -7.380   0.072  0.00  0.00    -0.059 A 
ATOM     31  C   UNL     1       4.629  -8.695  -0.336  0.00  0.00    +0.002 A 
ATOM     32  C   UNL     1       5.844  -9.343  -0.215  0.00  0.00    +0.000 A 
ENDBRANCH  19  30
ENDBRANCH  18  19
ENDBRANCH  14  18
ENDBRANCH   1  15
BRANCH   5  33
ATOM     33  C   UNL     1      -0.759   0.730  -2.553  0.00  0.00    +0.249 C 
ATOM     34  O   UNL     1       0.189   1.295  -3.064  0.00  0.00    -0.270 OA
ATOM     35  N   UNL     1      -1.968   1.326  -2.531  0.00  0.00    -0.308 N 
ATOM     36  H   UNL     1      -2.724   0.873  -2.127  0.00  0.00    +0.149 HD
BRANCH  35  37
ATOM     37  C   UNL     1      -2.138   2.658  -3.117  0.00  0.00    +0.073 C 
ATOM     38  C   UNL     1      -2.964   3.676  -2.329  0.00  0.00    +0.024 C 
ATOM     39  C   UNL     1      -3.538   3.044  -3.598  0.00  0.00    +0.024 C 
ENDBRANCH  35  37
ENDBRANCH   5  33
TORSDOF 8
