REMARK  Name = ZINC00930615
REMARK  9 active torsions:
REMARK  status: ('A' for Active; 'I' for Inactive)
REMARK    1  A    between atoms: C_1  and  S_2
REMARK    2  A    between atoms: S_2  and  N_5
REMARK    3  A    between atoms: N_5  and  C_6
REMARK    4  A    between atoms: C_9  and  C_12
REMARK    5  A    between atoms: C_15  and  S_23
REMARK    6  A    between atoms: N_16  and  C_17
REMARK    7  A    between atoms: C_17  and  C_18
REMARK    8  A    between atoms: S_23  and  C_24
REMARK    9  A    between atoms: C_24  and  C_25
REMARK                            x       y       z     vdW  Elec       q    Type
REMARK                         _______ _______ _______ _____ _____    ______ ____
ROOT
ATOM      1  C   UNL     1       1.539  -0.078   5.803  0.00  0.00    +0.165 A 
ATOM      2  N   UNL     1       2.116   0.638   6.741  0.00  0.00    -0.128 NA
ATOM      3  N   UNL     1       2.609  -0.134   7.642  0.00  0.00    -0.122 NA
ATOM      4  C   UNL     1       2.385  -1.391   7.332  0.00  0.00    +0.193 A 
ATOM      5  N   UNL     1       1.697  -1.400   6.151  0.00  0.00    -0.295 N 
ENDROOT
BRANCH   1   9
ATOM      6  C   UNL     1      -0.427   1.405   2.341  0.00  0.00    +0.048 A 
ATOM      7  C   UNL     1      -0.216   2.242   3.431  0.00  0.00    +0.025 A 
ATOM      8  C   UNL     1       0.416   1.763   4.558  0.00  0.00    +0.013 A 
ATOM      9  C   UNL     1       0.856   0.438   4.599  0.00  0.00    +0.019 A 
ATOM     10  C   UNL     1       0.648  -0.398   3.500  0.00  0.00    +0.013 A 
ATOM     11  C   UNL     1       0.010   0.086   2.379  0.00  0.00    +0.025 A 
BRANCH   6  12
ATOM     12  N   UNL     1      -1.072   1.893   1.204  0.00  0.00    -0.221 N 
ATOM     13  H   UNL     1      -0.702   1.720   0.324  0.00  0.00    +0.173 HD
BRANCH  12  15
ATOM     14  C   UNL     1      -3.647   1.629   2.140  0.00  0.00    +0.218 C 
ATOM     15  S   UNL     1      -2.471   2.766   1.356  0.00  0.00    +0.040 S 
ATOM     16  O   UNL     1      -2.873   3.043   0.021  0.00  0.00    -0.155 OA
ATOM     17  O   UNL     1      -2.143   3.823   2.248  0.00  0.00    -0.155 OA
ENDBRANCH  12  15
ENDBRANCH   6  12
ENDBRANCH   1   9
BRANCH   5  18
ATOM     18  C   UNL     1       1.225  -2.573   5.410  0.00  0.00    +0.200 C 
BRANCH  18  19
ATOM     19  C   UNL     1       2.331  -3.087   4.526  0.00  0.00    +0.125 A 
ATOM     20  C   UNL     1       3.256  -3.999   4.873  0.00  0.00    +0.046 A 
ATOM     21  C   UNL     1       4.090  -4.186   3.746  0.00  0.00    +0.041 A 
ATOM     22  C   UNL     1       3.630  -3.370   2.781  0.00  0.00    +0.195 A 
ATOM     23  O   UNL     1       2.564  -2.707   3.259  0.00  0.00    -0.466 OA
ENDBRANCH  18  19
ENDBRANCH   5  18
BRANCH   4  24
ATOM     24  S   UNL     1       2.880  -2.802   8.264  0.00  0.00    -0.077 S 
BRANCH  24  25
ATOM     25  C   UNL     1       3.714  -1.988   9.648  0.00  0.00    +0.173 C 
BRANCH  25  26
ATOM     26  C   UNL     1       4.236  -3.030  10.604  0.00  0.00    +0.230 C 
ATOM     27  O   UNL     1       4.141  -4.207  10.328  0.00  0.00    -0.274 OA
ATOM     28  N   UNL     1       4.807  -2.653  11.765  0.00  0.00    -0.270 N 
ATOM     29  C   UNL     1       4.852  -1.236  12.150  0.00  0.00    +0.114 C 
ATOM     30  C   UNL     1       6.263  -0.938  12.675  0.00  0.00    +0.024 C 
ATOM     31  C   UNL     1       6.510  -1.774  13.931  0.00  0.00    +0.038 C 
ATOM     32  C   UNL     1       6.192  -3.222  13.672  0.00  0.00    -0.026 A 
ATOM     33  C   UNL     1       5.363  -3.608  12.628  0.00  0.00    +0.039 A 
ATOM     34  C   UNL     1       5.080  -4.953  12.422  0.00  0.00    +0.024 A 
ATOM     35  C   UNL     1       5.621  -5.909  13.259  0.00  0.00    +0.002 A 
ATOM     36  C   UNL     1       6.445  -5.526  14.301  0.00  0.00    +0.000 A 
ATOM     37  C   UNL     1       6.736  -4.187  14.503  0.00  0.00    +0.005 A 
ENDBRANCH  25  26
ENDBRANCH  24  25
ENDBRANCH   4  24
TORSDOF 8
