REMARK  Name = ZINC36316055
REMARK  17 active torsions:
REMARK  status: ('A' for Active; 'I' for Inactive)
REMARK    1  A    between atoms: C_1  and  C_2
REMARK    2  A    between atoms: C_2  and  C_3
REMARK    3  A    between atoms: C_3  and  N_4
REMARK    4  A    between atoms: N_4  and  C_5
REMARK    5  A    between atoms: N_4  and  C_26
REMARK    6  A    between atoms: C_5  and  C_6
REMARK    7  A    between atoms: C_7  and  C_20
REMARK    8  A    between atoms: N_9  and  C_19
REMARK    9  A    between atoms: C_10  and  O_11
REMARK   10  A    between atoms: O_11  and  C_12
REMARK   11  A    between atoms: C_15  and  C_18
REMARK   12  A    between atoms: C_26  and  C_27
REMARK   13  A    between atoms: C_27  and  C_29
REMARK   14  A    between atoms: C_27  and  O_38
REMARK   15  A    between atoms: C_29  and  O_30
REMARK   16  A    between atoms: O_30  and  C_31
REMARK   17  A    between atoms: C_36  and  C_37
REMARK                            x       y       z     vdW  Elec       q    Type
REMARK                         _______ _______ _______ _____ _____    ______ ____
ROOT
ATOM      1  C   UNL     1      -2.838  -1.809  -1.902  0.00  0.00    +0.025 A 
ATOM      2  C   UNL     1      -3.802  -0.818  -2.169  0.00  0.00    +0.098 A 
ATOM      3  N   UNL     1      -3.960  -0.742  -3.473  0.00  0.00    -0.168 NA
ATOM      4  N   UNL     1      -3.107  -1.675  -4.075  0.00  0.00    -0.235 N 
ATOM      5  C   UNL     1      -2.423  -2.315  -3.091  0.00  0.00    +0.221 A 
ATOM      6  C   UNL     1      -2.971  -1.915  -5.513  0.00  0.00    +0.176 C 
ENDROOT
BRANCH   2   7
ATOM      7  C   UNL     1      -4.517  -0.003  -1.156  0.00  0.00    +0.002 A 
ATOM      8  C   UNL     1      -4.699   1.363  -1.360  0.00  0.00    +0.010 A 
ATOM      9  C   UNL     1      -5.365   2.117  -0.415  0.00  0.00    +0.001 A 
ATOM     10  C   UNL     1      -5.851   1.519   0.734  0.00  0.00    +0.000 A 
ATOM     11  C   UNL     1      -5.672   0.163   0.942  0.00  0.00    +0.001 A 
ATOM     12  C   UNL     1      -5.013  -0.601   0.001  0.00  0.00    +0.010 A 
ENDBRANCH   2   7
BRANCH   1  13
ATOM     13  C   UNL     1      -2.350  -2.228  -0.539  0.00  0.00    -0.035 C 
BRANCH  13  14
ATOM     14  N   UNL     1      -1.096  -1.527  -0.232  0.00  0.00    +0.384 N 
ATOM     15  H   UNL     1      -0.427  -1.695  -0.969  0.00  0.00    -0.081 HD
BRANCH  14  16
ATOM     16  C   UNL     1      -1.354  -0.085  -0.126  0.00  0.00    -0.079 C 
BRANCH  16  18
ATOM     17  C   UNL     1      -0.283   2.168   0.024  0.00  0.00    +0.002 C 
ATOM     18  C   UNL     1      -0.029   0.659   0.053  0.00  0.00    -0.022 C 
ENDBRANCH  16  18
ENDBRANCH  14  16
BRANCH  14  19
ATOM     19  C   UNL     1      -0.557  -2.023   1.041  0.00  0.00    -0.043 C 
BRANCH  19  20
ATOM     20  C   UNL     1      -0.147  -3.489   0.885  0.00  0.00    +0.135 C 
BRANCH  20  21
ATOM     21  O   UNL     1       0.925  -3.586  -0.054  0.00  0.00    -0.390 OA
ATOM     22  H   UNL     1       1.742  -3.158   0.236  0.00  0.00    +0.210 HD
ENDBRANCH  20  21
BRANCH  20  23
ATOM     23  C   UNL     1       0.309  -4.038   2.239  0.00  0.00    +0.258 C 
BRANCH  23  24
ATOM     24  O   UNL     1       0.580  -5.436   2.119  0.00  0.00    -0.489 OA
BRANCH  24  25
ATOM     25  C   UNL     1       0.999  -6.081   3.239  0.00  0.00    +0.124 A 
ATOM     26  C   UNL     1       1.139  -5.385   4.431  0.00  0.00    +0.046 A 
ATOM     27  C   UNL     1       1.565  -6.043   5.568  0.00  0.00    +0.004 A 
ATOM     28  C   UNL     1       1.850  -7.395   5.520  0.00  0.00    +0.000 A 
ATOM     29  C   UNL     1       1.711  -8.091   4.334  0.00  0.00    +0.007 A 
ATOM     30  C   UNL     1       1.280  -7.439   3.195  0.00  0.00    -0.009 A 
ATOM     31  C   UNL     1       1.123  -8.199   1.903  0.00  0.00    +0.047 C 
ENDBRANCH  24  25
ENDBRANCH  23  24
ENDBRANCH  20  23
ENDBRANCH  19  20
ENDBRANCH  14  19
ENDBRANCH  13  14
ENDBRANCH   1  13
BRANCH   5  32
ATOM     32  O   UNL     1      -1.494  -3.289  -3.265  0.00  0.00    -0.438 OA
BRANCH  32  33
ATOM     33  C   UNL     1      -1.927  -4.571  -3.385  0.00  0.00    +0.130 A 
ATOM     34  C   UNL     1      -3.287  -4.843  -3.434  0.00  0.00    +0.046 A 
ATOM     35  C   UNL     1      -3.726  -6.147  -3.556  0.00  0.00    +0.007 A 
ATOM     36  C   UNL     1      -2.811  -7.182  -3.628  0.00  0.00    -0.050 A 
ATOM     37  C   UNL     1      -1.455  -6.913  -3.578  0.00  0.00    +0.007 A 
ATOM     38  C   UNL     1      -1.011  -5.611  -3.462  0.00  0.00    +0.046 A 
ATOM     39  C   UNL     1      -3.292  -8.604  -3.760  0.00  0.00    +0.044 C 
ENDBRANCH  32  33
ENDBRANCH   5  32
TORSDOF 13
