REMARK  Name = ZINC00650010
REMARK  15 active torsions:
REMARK  status: ('A' for Active; 'I' for Inactive)
REMARK    1  A    between atoms: C_1  and  C_2
REMARK    2  A    between atoms: C_2  and  O_3
REMARK    3  A    between atoms: O_3  and  C_4
REMARK    4  A    between atoms: C_4  and  C_6
REMARK    5  A    between atoms: C_7  and  C_40
REMARK    6  A    between atoms: C_11  and  C_13
REMARK    7  A    between atoms: C_15  and  O_22
REMARK    8  A    between atoms: C_16  and  O_20
REMARK    9  A    between atoms: O_20  and  C_21
REMARK   10  A    between atoms: O_22  and  C_23
REMARK   11  A    between atoms: C_27  and  C_30
REMARK   12  A    between atoms: C_33  and  O_38
REMARK   13  A    between atoms: C_34  and  O_36
REMARK   14  A    between atoms: O_36  and  C_37
REMARK   15  A    between atoms: O_38  and  C_39
REMARK                            x       y       z     vdW  Elec       q    Type
REMARK                         _______ _______ _______ _____ _____    ______ ____
ROOT
ATOM      1  C   UNL     1       1.599  -2.369   2.355  0.00  0.00    +0.065 C 
ATOM      2  C   UNL     1       1.490  -3.684   2.609  0.00  0.00    +0.016 C 
ATOM      3  N   UNL     1       1.998  -4.210   3.764  0.00  0.00    -0.321 N 
ATOM      4  C   UNL     1       2.258  -3.406   4.842  0.00  0.00    +0.016 C 
ATOM      5  C   UNL     1       2.403  -2.074   4.682  0.00  0.00    +0.024 C 
ATOM      6  C   UNL     1       2.288  -1.444   3.315  0.00  0.00    +0.093 C 
ATOM      7  C   UNL     1       2.674  -1.237   5.780  0.00  0.00    +0.162 C 
ATOM      8  O   UNL     1       2.783  -0.040   5.604  0.00  0.00    -0.292 OA
ATOM      9  C   UNL     1       2.831  -1.798   7.167  0.00  0.00    +0.088 C 
ATOM     10  C   UNL     1       3.347  -3.237   7.067  0.00  0.00    +0.032 C 
ATOM     11  C   UNL     1       2.374  -4.043   6.204  0.00  0.00    +0.059 C 
ATOM     12  C   UNL     1       0.805  -4.585   1.615  0.00  0.00    +0.061 C 
ATOM     13  H   UNL     1       2.175  -5.162   3.822  0.00  0.00    +0.152 HD
ENDROOT
BRANCH   6  14
ATOM     14  C   UNL     1       3.665  -1.126   2.794  0.00  0.00    -0.018 A 
ATOM     15  C   UNL     1       4.576  -2.146   2.584  0.00  0.00    +0.055 A 
ATOM     16  C   UNL     1       5.843  -1.855   2.105  0.00  0.00    +0.162 A 
ATOM     17  C   UNL     1       6.196  -0.536   1.834  0.00  0.00    +0.163 A 
ATOM     18  C   UNL     1       5.280   0.481   2.046  0.00  0.00    +0.065 A 
ATOM     19  C   UNL     1       4.014   0.184   2.521  0.00  0.00    +0.026 A 
ATOM     20 BR   UNL     1       2.762   1.572   2.802  0.00  0.00    -0.050 Br
BRANCH  17  21
ATOM     21  O   UNL     1       7.439  -0.247   1.364  0.00  0.00    -0.491 OA
ATOM     22  C   UNL     1       7.732   1.128   1.109  0.00  0.00    +0.277 C 
ENDBRANCH  17  21
BRANCH  16  23
ATOM     23  O   UNL     1       6.739  -2.857   1.899  0.00  0.00    -0.491 OA
ATOM     24  C   UNL     1       6.308  -4.186   2.198  0.00  0.00    +0.277 C 
ENDBRANCH  16  23
ENDBRANCH   6  14
BRANCH  10  25
ATOM     25  C   UNL     1       3.429  -3.842   8.445  0.00  0.00    -0.040 A 
ATOM     26  C   UNL     1       2.288  -3.955   9.218  0.00  0.00    +0.008 A 
ATOM     27  C   UNL     1       2.359  -4.510  10.482  0.00  0.00    +0.049 A 
ATOM     28  C   UNL     1       3.574  -4.953  10.978  0.00  0.00    +0.161 A 
ATOM     29  C   UNL     1       4.723  -4.839  10.200  0.00  0.00    +0.162 A 
ATOM     30  C   UNL     1       4.644  -4.287   8.931  0.00  0.00    +0.053 A 
BRANCH  29  31
ATOM     31  O   UNL     1       5.918  -5.273  10.682  0.00  0.00    -0.491 OA
ATOM     32  C   UNL     1       7.054  -5.124   9.828  0.00  0.00    +0.277 C 
ENDBRANCH  29  31
BRANCH  28  33
ATOM     33  O   UNL     1       3.645  -5.498  12.222  0.00  0.00    -0.491 OA
ATOM     34  C   UNL     1       2.426  -5.583  12.963  0.00  0.00    +0.277 C 
ENDBRANCH  28  33
ENDBRANCH  10  25
BRANCH   1  35
ATOM     35  C   UNL     1       1.058  -1.847   1.157  0.00  0.00    +0.338 C 
ATOM     36  O   UNL     1       0.029  -1.198   1.185  0.00  0.00    -0.245 OA
BRANCH  35  37
ATOM     37  O   UNL     1       1.683  -2.069  -0.018  0.00  0.00    -0.462 OA
BRANCH  37  39
ATOM     38  C   UNL     1       1.927  -1.867  -2.414  0.00  0.00    +0.048 C 
ATOM     39  C   UNL     1       1.082  -1.513  -1.189  0.00  0.00    +0.229 C 
ENDBRANCH  37  39
ENDBRANCH  35  37
ENDBRANCH   1  35
TORSDOF 9
