REMARK  Name = ZINC39711148
REMARK  10 active torsions:
REMARK  status: ('A' for Active; 'I' for Inactive)
REMARK    1  A    between atoms: C_1  and  C_2
REMARK    2  A    between atoms: C_4  and  C_43
REMARK    3  A    between atoms: C_7  and  C_14
REMARK    4  A    between atoms: C_14  and  C_16
REMARK    5  A    between atoms: C_14  and  N_28
REMARK    6  A    between atoms: N_21  and  C_22
REMARK    7  A    between atoms: N_28  and  C_29
REMARK    8  A    between atoms: N_28  and  C_36
REMARK    9  A    between atoms: C_29  and  C_30
REMARK   10  A    between atoms: C_36  and  C_37
REMARK                            x       y       z     vdW  Elec       q    Type
REMARK                         _______ _______ _______ _____ _____    ______ ____
ROOT
ATOM      1  C   UNL     1       2.380  -5.787   1.619  0.00  0.00    -0.010 C 
ENDROOT
BRANCH   1   8
ATOM      2  C   UNL     1       3.054  -2.079   8.100  0.00  0.00    +0.044 C 
ATOM      3  C   UNL     1       3.219  -2.629   6.706  0.00  0.00    -0.048 A 
ATOM      4  C   UNL     1       4.500  -2.964   6.266  0.00  0.00    +0.007 A 
ATOM      5  C   UNL     1       4.711  -3.465   5.021  0.00  0.00    -0.042 A 
ATOM      6  C   UNL     1       3.564  -3.653   4.132  0.00  0.00    -0.004 A 
ATOM      7  C   UNL     1       3.728  -4.153   2.875  0.00  0.00    -0.006 C 
ATOM      8  C   UNL     1       2.484  -4.315   2.023  0.00  0.00    +0.088 C 
ATOM      9  C   UNL     1       1.163  -3.909   2.638  0.00  0.00    +0.223 C 
ATOM     10  O   UNL     1       0.134  -4.018   1.999  0.00  0.00    -0.275 OA
ATOM     11  N   UNL     1       1.132  -3.435   3.872  0.00  0.00    -0.285 N 
ATOM     12  C   UNL     1       2.223  -3.291   4.624  0.00  0.00    +0.041 A 
ATOM     13  C   UNL     1       2.113  -2.785   5.932  0.00  0.00    +0.027 A 
ATOM     14  C   UNL     1       6.102  -3.819   4.563  0.00  0.00    +0.044 C 
ATOM     15  H   UNL     1       0.275  -3.181   4.248  0.00  0.00    +0.155 HD
ENDBRANCH   1   8
BRANCH   1  16
ATOM     16  C   UNL     1       1.167  -5.981   0.707  0.00  0.00    +0.183 C 
ATOM     17  N   UNL     1       1.121  -7.360   0.186  0.00  0.00    -0.229 N 
ATOM     18  N   UNL     1       1.224  -7.249  -1.205  0.00  0.00    -0.064 NA
ATOM     19  N   UNL     1       1.321  -6.083  -1.581  0.00  0.00    -0.061 NA
ATOM     20  N   UNL     1       1.299  -5.168  -0.517  0.00  0.00    -0.213 N 
ATOM     21  H   UNL     1       1.036  -8.177   0.703  0.00  0.00    +0.172 HD
BRANCH  20  22
ATOM     22  C   UNL     1       1.389  -3.708  -0.602  0.00  0.00    +0.096 C 
ATOM     23  C   UNL     1       0.303  -3.183  -1.543  0.00  0.00    +0.024 C 
ATOM     24  C   UNL     1       0.398  -1.659  -1.631  0.00  0.00    +0.002 C 
ATOM     25  C   UNL     1       1.774  -1.263  -2.170  0.00  0.00    +0.000 C 
ATOM     26  C   UNL     1       2.860  -1.788  -1.228  0.00  0.00    +0.002 C 
ATOM     27  C   UNL     1       2.766  -3.312  -1.140  0.00  0.00    +0.024 C 
ENDBRANCH  20  22
ENDBRANCH   1  16
BRANCH   1  28
ATOM     28  N   UNL     1       2.225  -6.615   2.822  0.00  0.00    +0.390 N 
ATOM     29  H   UNL     1       2.679  -6.164   3.602  0.00  0.00    -0.080 HD
BRANCH  28  30
ATOM     30  C   UNL     1       2.838  -7.931   2.593  0.00  0.00    -0.042 C 
BRANCH  30  31
ATOM     31  C   UNL     1       4.326  -7.768   2.421  0.00  0.00    -0.064 A 
ATOM     32  C   UNL     1       4.870  -7.689   1.153  0.00  0.00    +0.002 A 
ATOM     33  C   UNL     1       6.236  -7.540   0.994  0.00  0.00    +0.000 A 
ATOM     34  C   UNL     1       7.056  -7.470   2.104  0.00  0.00    +0.000 A 
ATOM     35  C   UNL     1       6.512  -7.548   3.373  0.00  0.00    +0.000 A 
ATOM     36  C   UNL     1       5.146  -7.693   3.531  0.00  0.00    +0.002 A 
ENDBRANCH  30  31
ENDBRANCH  28  30
BRANCH  28  37
ATOM     37  C   UNL     1       0.796  -6.785   3.119  0.00  0.00    -0.040 C 
BRANCH  37  38
ATOM     38  C   UNL     1       0.639  -7.516   4.427  0.00  0.00    -0.046 A 
ATOM     39  C   UNL     1       0.574  -8.902   4.454  0.00  0.00    +0.005 A 
ATOM     40  C   UNL     1       0.429  -9.531   5.680  0.00  0.00    +0.020 A 
ATOM     41  C   UNL     1       0.353  -8.763   6.827  0.00  0.00    +0.111 A 
ATOM     42  N   UNL     1       0.417  -7.448   6.764  0.00  0.00    -0.263 NA
ATOM     43  C   UNL     1       0.562  -6.816   5.615  0.00  0.00    +0.112 A 
ENDBRANCH  37  38
ENDBRANCH  28  37
ENDBRANCH   1  28
TORSDOF 8
