REMARK  Name = ZINC09436885
REMARK  7 active torsions:
REMARK  status: ('A' for Active; 'I' for Inactive)
REMARK    1  A    between atoms: C_1  and  C_2
REMARK    2  A    between atoms: C_2  and  O_3
REMARK    3  A    between atoms: O_3  and  C_4
REMARK    4  A    between atoms: C_7  and  C_11
REMARK    5  A    between atoms: C_8  and  O_10
REMARK    6  A    between atoms: C_12  and  C_18
REMARK    7  A    between atoms: C_13  and  C_17
REMARK                            x       y       z     vdW  Elec       q    Type
REMARK                         _______ _______ _______ _____ _____    ______ ____
ROOT
ATOM      1  C   UNL     1       1.105  -6.037  -1.725  0.00  0.00    +0.077 A 
ATOM      2  C   UNL     1       2.279  -6.751  -1.927  0.00  0.00    +0.030 A 
ATOM      3  C   UNL     1       1.916  -8.083  -2.195  0.00  0.00    +0.068 A 
ATOM      4  N   UNL     1       0.613  -8.175  -2.158  0.00  0.00    -0.178 NA
ATOM      5  N   UNL     1       0.074  -6.918  -1.862  0.00  0.00    -0.276 N 
ATOM      6  H   UNL     1      -0.869  -6.710  -1.772  0.00  0.00    +0.189 HD
ATOM      7  C   UNL     1       2.870  -9.215  -2.477  0.00  0.00    +0.068 C 
ENDROOT
BRANCH   2   8
ATOM      8  C   UNL     1       3.658  -6.210  -1.870  0.00  0.00    -0.014 A 
ATOM      9  C   UNL     1       4.080  -5.271  -2.811  0.00  0.00    +0.010 A 
ATOM     10  C   UNL     1       5.364  -4.771  -2.754  0.00  0.00    +0.020 A 
ATOM     11  C   UNL     1       6.233  -5.199  -1.765  0.00  0.00    +0.041 A 
ATOM     12  C   UNL     1       5.819  -6.130  -0.828  0.00  0.00    +0.020 A 
ATOM     13  C   UNL     1       4.535  -6.634  -0.873  0.00  0.00    +0.010 A 
ATOM     14 CL   UNL     1       7.848  -4.565  -1.699  0.00  0.00    -0.084 Cl
ENDBRANCH   2   8
BRANCH   1  18
ATOM     15  C   UNL     1       0.786  -1.893  -0.830  0.00  0.00    +0.124 A 
ATOM     16  C   UNL     1       0.306  -2.383  -2.038  0.00  0.00    +0.046 A 
ATOM     17  C   UNL     1       0.408  -3.725  -2.332  0.00  0.00    +0.017 A 
ATOM     18  C   UNL     1       0.995  -4.598  -1.414  0.00  0.00    +0.042 A 
ATOM     19  C   UNL     1       1.479  -4.102  -0.196  0.00  0.00    +0.129 A 
ATOM     20  C   UNL     1       1.376  -2.751   0.087  0.00  0.00    +0.091 A 
BRANCH  19  21
ATOM     21  O   UNL     1       2.051  -4.945   0.703  0.00  0.00    -0.506 OA
ATOM     22  H   UNL     1       3.006  -5.048   0.593  0.00  0.00    +0.292 HD
ENDBRANCH  19  21
BRANCH  15  23
ATOM     23  O   UNL     1       0.683  -0.568  -0.547  0.00  0.00    -0.492 OA
BRANCH  23  25
ATOM     24  C   UNL     1       0.039   1.708  -1.042  0.00  0.00    +0.048 C 
ATOM     25  C   UNL     1       0.065   0.259  -1.535  0.00  0.00    +0.225 C 
ENDBRANCH  23  25
ENDBRANCH  15  23
ENDBRANCH   1  18
TORSDOF 5
