REMARK  Name = ZINC38651640
REMARK  9 active torsions:
REMARK  status: ('A' for Active; 'I' for Inactive)
REMARK    1  A    between atoms: C_1  and  O_2
REMARK    2  A    between atoms: O_2  and  C_3
REMARK    3  A    between atoms: C_6  and  C_9
REMARK    4  A    between atoms: C_10  and  C_11
REMARK    5  A    between atoms: C_11  and  O_13
REMARK    6  A    between atoms: O_13  and  C_14
REMARK    7  A    between atoms: C_21  and  N_34
REMARK    8  A    between atoms: C_22  and  C_32
REMARK    9  A    between atoms: C_23  and  C_25
REMARK                            x       y       z     vdW  Elec       q    Type
REMARK                         _______ _______ _______ _____ _____    ______ ____
ROOT
ATOM      1  C   UNL     1       3.777  -6.461  -6.656  0.00  0.00    +0.135 A 
ATOM      2  C   UNL     1       4.395  -5.739  -7.667  0.00  0.00    +0.047 A 
ATOM      3  C   UNL     1       4.966  -6.400  -8.737  0.00  0.00    +0.012 A 
ATOM      4  C   UNL     1       4.924  -7.781  -8.806  0.00  0.00    +0.008 A 
ATOM      5  C   UNL     1       4.308  -8.507  -7.799  0.00  0.00    +0.138 A 
ATOM      6  C   UNL     1       3.738  -7.844  -6.720  0.00  0.00    +0.093 A 
ATOM      7  O   UNL     1       4.256  -9.861  -7.849  0.00  0.00    -0.441 OA
ATOM      8  C   UNL     1       5.107 -10.535  -8.640  0.00  0.00    +0.199 C 
ATOM      9  C   UNL     1       5.755  -9.939  -9.669  0.00  0.00    +0.098 C 
ATOM     10  C   UNL     1       5.552  -8.483  -9.981  0.00  0.00    +0.098 C 
ENDROOT
BRANCH  10  11
ATOM     11  C   UNL     1       4.650  -8.351 -11.181  0.00  0.00    -0.035 A 
ATOM     12  C   UNL     1       3.361  -8.849 -11.136  0.00  0.00    +0.005 A 
ATOM     13  C   UNL     1       2.534  -8.727 -12.236  0.00  0.00    +0.015 A 
ATOM     14  C   UNL     1       2.995  -8.107 -13.383  0.00  0.00    +0.018 A 
ATOM     15  C   UNL     1       4.285  -7.609 -13.429  0.00  0.00    +0.015 A 
ATOM     16  C   UNL     1       5.110  -7.726 -12.326  0.00  0.00    +0.005 A 
ATOM     17 BR   UNL     1       1.864  -7.941 -14.889  0.00  0.00    -0.050 Br
ENDBRANCH  10  11
BRANCH   8  18
ATOM     18  N   UNL     1       5.327 -11.868  -8.398  0.00  0.00    -0.328 N 
ATOM     19  H   UNL     1       4.871 -12.310  -7.665  0.00  0.00    +0.145 HD
ATOM     20  H   UNL     1       5.939 -12.369  -8.960  0.00  0.00    +0.145 HD
ENDBRANCH   8  18
BRANCH   9  21
ATOM     21  C   UNL     1       6.651 -10.711 -10.476  0.00  0.00    +0.101 C 
ATOM     22  N   UNL     1       7.362 -11.324 -11.116  0.00  0.00    -0.191 NA
ENDBRANCH   9  21
BRANCH   1  23
ATOM     23  O   UNL     1       3.214  -5.812  -5.603  0.00  0.00    -0.423 OA
BRANCH  23  24
ATOM     24  C   UNL     1       2.017  -5.218  -5.790  0.00  0.00    +0.337 C 
ATOM     25  O   UNL     1       1.516  -5.197  -6.898  0.00  0.00    -0.245 OA
BRANCH  24  27
ATOM     26  C   UNL     1       0.145  -4.026  -4.883  0.00  0.00    +0.015 C 
ATOM     27  C   UNL     1       1.344  -4.620  -4.695  0.00  0.00    +0.092 C 
BRANCH  26  31
ATOM     28  C   UNL     1      -1.871  -2.237  -1.608  0.00  0.00    +0.120 A 
ATOM     29  C   UNL     1      -2.445  -2.210  -2.874  0.00  0.00    +0.046 A 
ATOM     30  C   UNL     1      -1.795  -2.789  -3.940  0.00  0.00    +0.011 A 
ATOM     31  C   UNL     1      -0.553  -3.406  -3.748  0.00  0.00    -0.025 A 
ATOM     32  C   UNL     1       0.021  -3.430  -2.472  0.00  0.00    +0.011 A 
ATOM     33  C   UNL     1      -0.635  -2.843  -1.413  0.00  0.00    +0.046 A 
BRANCH  28  35
ATOM     34  C   UNL     1      -3.782  -1.059  -0.830  0.00  0.00    +0.277 C 
ATOM     35  O   UNL     1      -2.516  -1.665  -0.560  0.00  0.00    -0.495 OA
ENDBRANCH  28  35
ENDBRANCH  26  31
ENDBRANCH  24  27
ENDBRANCH  23  24
ENDBRANCH   1  23
TORSDOF 8
