REMARK  Name = ZINC35448398
REMARK  11 active torsions:
REMARK  status: ('A' for Active; 'I' for Inactive)
REMARK    1  A    between atoms: C_1  and  C_2
REMARK    2  A    between atoms: C_3  and  C_21
REMARK    3  A    between atoms: N_8  and  C_9
REMARK    4  A    between atoms: C_11  and  C_13
REMARK    5  A    between atoms: C_18  and  O_19
REMARK    6  A    between atoms: O_19  and  C_20
REMARK    7  A    between atoms: C_21  and  C_22
REMARK    8  A    between atoms: C_22  and  C_23
REMARK    9  A    between atoms: N_25  and  C_26
REMARK   10  A    between atoms: C_26  and  C_27
REMARK   11  A    between atoms: C_27  and  C_28
REMARK                            x       y       z     vdW  Elec       q    Type
REMARK                         _______ _______ _______ _____ _____    ______ ____
ROOT
ATOM      1  C   UNL     1       0.037   1.497   0.182  0.00  0.00    +0.064 C 
ATOM      2  C   UNL     1       0.028  -0.007   0.084  0.00  0.00    +0.026 A 
ATOM      3  C   UNL     1      -1.115  -0.693   0.312  0.00  0.00    +0.038 A 
ATOM      4  C   UNL     1      -1.119  -2.099   0.220  0.00  0.00    +0.278 A 
ATOM      5  O   UNL     1      -2.146  -2.721   0.424  0.00  0.00    -0.265 OA
ATOM      6  N   UNL     1       0.016  -2.755  -0.095  0.00  0.00    -0.179 N 
ATOM      7  C   UNL     1       1.167  -2.055  -0.324  0.00  0.00    +0.141 A 
ATOM      8  N   UNL     1       1.171  -0.675  -0.239  0.00  0.00    -0.332 N 
ATOM      9  C   UNL     1       2.407   0.070  -0.492  0.00  0.00    +0.150 C 
ATOM     10  C   UNL     1       2.144  -2.955  -0.617  0.00  0.00    +0.076 A 
ATOM     11  C   UNL     1       1.575  -4.240  -0.565  0.00  0.00    +0.099 A 
ATOM     12  N   UNL     1       0.301  -4.117  -0.253  0.00  0.00    -0.162 NA
ENDROOT
BRANCH  11  13
ATOM     13  C   UNL     1       2.288  -5.516  -0.820  0.00  0.00    +0.044 A 
ATOM     14  C   UNL     1       3.644  -5.509  -1.138  0.00  0.00    +0.014 A 
ATOM     15  C   UNL     1       4.302  -6.699  -1.374  0.00  0.00    +0.001 A 
ATOM     16  C   UNL     1       3.619  -7.900  -1.296  0.00  0.00    +0.004 A 
ATOM     17  C   UNL     1       2.274  -7.919  -0.981  0.00  0.00    +0.046 A 
ATOM     18  C   UNL     1       1.602  -6.732  -0.736  0.00  0.00    +0.129 A 
BRANCH  18  19
ATOM     19  O   UNL     1       0.281  -6.749  -0.422  0.00  0.00    -0.494 OA
ATOM     20  C   UNL     1      -0.354  -8.027  -0.354  0.00  0.00    +0.277 C 
ENDBRANCH  18  19
ENDBRANCH  11  13
BRANCH   3  21
ATOM     21  C   UNL     1      -2.381   0.044   0.664  0.00  0.00    +0.051 C 
BRANCH  21  22
ATOM     22  C   UNL     1      -3.191   0.302  -0.608  0.00  0.00    +0.100 C 
BRANCH  22  23
ATOM     23  C   UNL     1      -4.458   1.040  -0.255  0.00  0.00    +0.213 C 
ATOM     24  O   UNL     1      -4.689   1.330   0.899  0.00  0.00    -0.276 OA
ATOM     25  N   UNL     1      -5.333   1.376  -1.223  0.00  0.00    -0.315 N 
ATOM     26  H   UNL     1      -5.148   1.144  -2.147  0.00  0.00    +0.149 HD
BRANCH  25  27
ATOM     27  C   UNL     1      -6.564   2.093  -0.881  0.00  0.00    +0.108 C 
BRANCH  27  28
ATOM     28  C   UNL     1      -7.374   2.351  -2.153  0.00  0.00    +0.049 C 
BRANCH  28  29
ATOM     29  C   UNL     1      -8.640   3.088  -1.801  0.00  0.00    -0.072 C 
ATOM     30  C   UNL     1      -8.639   4.379  -1.902  0.00  0.00    -0.028 C 
ATOM     31  C   UNL     1      -9.818   5.249  -1.577  0.00  0.00    +0.027 C 
ATOM     32  C   UNL     1     -11.097   4.409  -1.533  0.00  0.00    +0.004 C 
ATOM     33  C   UNL     1     -10.841   3.181  -0.650  0.00  0.00    +0.005 C 
ATOM     34  C   UNL     1      -9.826   2.280  -1.360  0.00  0.00    +0.030 C 
ENDBRANCH  28  29
ENDBRANCH  27  28
ENDBRANCH  25  27
ENDBRANCH  22  23
ENDBRANCH  21  22
ENDBRANCH   3  21
TORSDOF 8
