REMARK  Name = ZINC35965976
REMARK  12 active torsions:
REMARK  status: ('A' for Active; 'I' for Inactive)
REMARK    1  A    between atoms: C_1  and  C_2
REMARK    2  A    between atoms: C_2  and  N_3
REMARK    3  A    between atoms: C_6  and  C_11
REMARK    4  A    between atoms: C_15  and  O_17
REMARK    5  A    between atoms: O_17  and  C_18
REMARK    6  A    between atoms: N_26  and  C_28
REMARK    7  A    between atoms: C_28  and  C_30
REMARK    8  A    between atoms: C_28  and  C_34
REMARK    9  A    between atoms: C_30  and  C_31
REMARK   10  A    between atoms: C_31  and  C_32
REMARK   11  A    between atoms: C_31  and  C_33
REMARK   12  A    between atoms: N_36  and  C_37
REMARK                            x       y       z     vdW  Elec       q    Type
REMARK                         _______ _______ _______ _____ _____    ______ ____
ROOT
ATOM      1  N   UNL     1      -2.042  -1.312  -0.376  0.00  0.00    -0.257 N 
ATOM      2  C   UNL     1      -2.358  -1.158   0.944  0.00  0.00    +0.042 C 
ATOM      3  C   UNL     1      -3.641  -1.107   1.354  0.00  0.00    +0.058 C 
ATOM      4  C   UNL     1      -4.723  -1.228   0.300  0.00  0.00    +0.142 C 
ATOM      5  N   UNL     1      -4.279  -1.391  -1.095  0.00  0.00    -0.288 N 
ATOM      6  C   UNL     1      -2.956  -1.418  -1.349  0.00  0.00    +0.307 C 
ATOM      7  O   UNL     1      -2.580  -1.548  -2.497  0.00  0.00    -0.252 OA
ATOM      8  C   UNL     1      -3.703  -0.945   2.754  0.00  0.00    +0.247 C 
ATOM      9  O   UNL     1      -4.736  -0.869   3.393  0.00  0.00    -0.270 OA
ATOM     10  N   UNL     1      -2.471  -0.885   3.291  0.00  0.00    -0.281 N 
ATOM     11  C   UNL     1      -1.508  -1.015   2.187  0.00  0.00    +0.160 C 
ATOM     12  H   UNL     1      -4.925  -1.473  -1.814  0.00  0.00    +0.151 HD
ENDROOT
BRANCH   4  13
ATOM     13  C   UNL     1      -5.582   0.009   0.372  0.00  0.00    -0.019 A 
ATOM     14  C   UNL     1      -5.157   1.181  -0.227  0.00  0.00    +0.006 A 
ATOM     15  C   UNL     1      -5.943   2.317  -0.163  0.00  0.00    +0.004 A 
ATOM     16  C   UNL     1      -7.154   2.283   0.500  0.00  0.00    +0.046 A 
ATOM     17  C   UNL     1      -7.583   1.109   1.102  0.00  0.00    +0.129 A 
ATOM     18  C   UNL     1      -6.795  -0.031   1.032  0.00  0.00    +0.052 A 
BRANCH  17  19
ATOM     19  O   UNL     1      -8.774   1.074   1.755  0.00  0.00    -0.456 OA
BRANCH  19  20
ATOM     20  C   UNL     1      -9.182  -0.114   2.275  0.00  0.00    +0.128 A 
ATOM     21  C   UNL     1      -8.672  -0.553   3.489  0.00  0.00    +0.046 A 
ATOM     22  C   UNL     1      -9.089  -1.760   4.015  0.00  0.00    +0.004 A 
ATOM     23  C   UNL     1     -10.012  -2.531   3.332  0.00  0.00    +0.000 A 
ATOM     24  C   UNL     1     -10.520  -2.097   2.122  0.00  0.00    +0.004 A 
ATOM     25  C   UNL     1     -10.112  -0.887   1.595  0.00  0.00    +0.046 A 
ENDBRANCH  19  20
ENDBRANCH  17  19
ENDBRANCH   4  13
BRANCH   1  27
ATOM     26  C   UNL     1      -0.129   0.060  -1.038  0.00  0.00    +0.025 C 
ATOM     27  C   UNL     1      -0.626  -1.357  -0.748  0.00  0.00    +0.111 C 
ENDBRANCH   1  27
BRANCH  10  28
ATOM     28  C   UNL     1      -2.148  -0.721   4.710  0.00  0.00    +0.163 C 
BRANCH  28  29
ATOM     29  C   UNL     1      -2.579  -1.950   5.469  0.00  0.00    +0.234 C 
ATOM     30  O   UNL     1      -3.103  -2.872   4.881  0.00  0.00    -0.274 OA
ATOM     31  N   UNL     1      -2.381  -2.024   6.800  0.00  0.00    -0.311 N 
ATOM     32  H   UNL     1      -1.962  -1.286   7.270  0.00  0.00    +0.149 HD
BRANCH  31  33
ATOM     33  C   UNL     1      -2.800  -3.219   7.537  0.00  0.00    +0.073 C 
ATOM     34  C   UNL     1      -3.514  -3.010   8.874  0.00  0.00    +0.024 C 
ATOM     35  C   UNL     1      -2.075  -3.530   8.848  0.00  0.00    +0.024 C 
ENDBRANCH  31  33
ENDBRANCH  28  29
BRANCH  28  36
ATOM     36  C   UNL     1      -2.884   0.502   5.262  0.00  0.00    +0.035 C 
BRANCH  36  37
ATOM     37  C   UNL     1      -2.322   1.770   4.615  0.00  0.00    -0.015 C 
ATOM     38  C   UNL     1      -2.673   1.781   3.126  0.00  0.00    +0.007 C 
ATOM     39  C   UNL     1      -2.929   3.000   5.292  0.00  0.00    +0.007 C 
ENDBRANCH  36  37
ENDBRANCH  28  36
ENDBRANCH  10  28
TORSDOF 9
