REMARK  Name = ZINC05179963
REMARK  8 active torsions:
REMARK  status: ('A' for Active; 'I' for Inactive)
REMARK    1  A    between atoms: C_1  and  C_2
REMARK    2  A    between atoms: C_2  and  C_3
REMARK    3  A    between atoms: C_6  and  C_9
REMARK    4  A    between atoms: C_13  and  S_15
REMARK    5  A    between atoms: S_15  and  C_16
REMARK    6  A    between atoms: C_16  and  C_18
REMARK    7  A    between atoms: C_16  and  C_19
REMARK    8  A    between atoms: C_29  and  C_31
REMARK                            x       y       z     vdW  Elec       q    Type
REMARK                         _______ _______ _______ _____ _____    ______ ____
ROOT
ATOM      1  S   UNL     1       5.585  -2.773  -6.253  0.00  0.00    -0.074 S 
ENDROOT
BRANCH   1   6
ATOM      2  C   UNL     1       2.686  -1.521  -3.995  0.00  0.00    +0.182 A 
ATOM      3  N   UNL     1       1.967  -1.817  -5.054  0.00  0.00    -0.152 NA
ATOM      4  H   UNL     1       2.627  -2.609  -6.920  0.00  0.00    +0.191 HD
ATOM      5  N   UNL     1       2.854  -2.307  -6.026  0.00  0.00    -0.253 N 
ATOM      6  C   UNL     1       4.087  -2.272  -5.473  0.00  0.00    +0.185 A 
ATOM      7  N   UNL     1       3.973  -1.792  -4.254  0.00  0.00    -0.201 NA
BRANCH   2  11
ATOM      8  C   UNL     1       1.177   0.058  -0.346  0.00  0.00    -0.048 A 
ATOM      9  C   UNL     1       0.310  -0.218  -1.388  0.00  0.00    +0.004 A 
ATOM     10  C   UNL     1       0.794  -0.730  -2.575  0.00  0.00    +0.012 A 
ATOM     11  C   UNL     1       2.159  -0.969  -2.722  0.00  0.00    +0.021 A 
ATOM     12  C   UNL     1       3.028  -0.690  -1.669  0.00  0.00    +0.012 A 
ATOM     13  C   UNL     1       2.534  -0.172  -0.489  0.00  0.00    +0.004 A 
BRANCH   8  15
ATOM     14  C   UNL     1       0.635   2.145   0.878  0.00  0.00    +0.009 C 
ATOM     15  C   UNL     1       0.642   0.617   0.947  0.00  0.00    +0.032 C 
ENDBRANCH   8  15
ENDBRANCH   2  11
ENDBRANCH   1   6
BRANCH   1  16
ATOM     16  C   UNL     1       6.856  -2.478  -4.992  0.00  0.00    +0.137 C 
ATOM     17  C   UNL     1       6.955  -0.978  -4.709  0.00  0.00    +0.029 C 
BRANCH  16  18
ATOM     18  C   UNL     1       8.185  -2.984  -5.490  0.00  0.00    +0.233 C 
ATOM     19  O   UNL     1       8.409  -3.031  -6.681  0.00  0.00    -0.274 OA
ATOM     20  N   UNL     1       9.125  -3.386  -4.611  0.00  0.00    -0.267 N 
ATOM     21  C   UNL     1      10.437  -3.735  -4.945  0.00  0.00    +0.040 A 
ATOM     22  C   UNL     1      11.057  -3.752  -6.196  0.00  0.00    +0.024 A 
ATOM     23  C   UNL     1      12.377  -4.133  -6.313  0.00  0.00    +0.002 A 
ATOM     24  C   UNL     1      13.097  -4.501  -5.191  0.00  0.00    +0.000 A 
ATOM     25  C   UNL     1      12.490  -4.486  -3.949  0.00  0.00    +0.005 A 
ATOM     26  C   UNL     1      11.168  -4.105  -3.827  0.00  0.00    -0.024 A 
ATOM     27  C   UNL     1      10.274  -4.000  -2.612  0.00  0.00    +0.059 C 
ATOM     28  C   UNL     1       8.924  -3.515  -3.166  0.00  0.00    +0.083 C 
ATOM     29  C   UNL     1       7.831  -4.544  -2.872  0.00  0.00    +0.029 C 
ENDBRANCH  16  18
ENDBRANCH   1  16
TORSDOF 5
