REMARK  Name = ZINC44714144
REMARK  9 active torsions:
REMARK  status: ('A' for Active; 'I' for Inactive)
REMARK    1  A    between atoms: C_1  and  C_2
REMARK    2  A    between atoms: C_4  and  C_11
REMARK    3  A    between atoms: C_5  and  C_7
REMARK    4  A    between atoms: C_15  and  C_24
REMARK    5  A    between atoms: N_26  and  C_27
REMARK    6  A    between atoms: C_27  and  C_29
REMARK    7  A    between atoms: C_27  and  C_30
REMARK    8  A    between atoms: C_31  and  C_37
REMARK    9  A    between atoms: C_35  and  C_36
REMARK                            x       y       z     vdW  Elec       q    Type
REMARK                         _______ _______ _______ _____ _____    ______ ____
ROOT
ATOM      1  C   UNL     1      -1.378  -3.396   0.035  0.00  0.00    +0.250 C 
ATOM      2  O   UNL     1      -0.806  -4.463  -0.082  0.00  0.00    -0.270 OA
ATOM      3  N   UNL     1      -2.721  -3.358   0.130  0.00  0.00    -0.296 N 
ATOM      4  C   UNL     1      -3.598  -2.163   0.149  0.00  0.00    +0.121 C 
ATOM      5  C   UNL     1      -4.825  -2.566  -0.699  0.00  0.00    +0.100 C 
ATOM      6  C   UNL     1      -4.860  -4.102  -0.635  0.00  0.00    -0.004 C 
ATOM      7  C   UNL     1      -3.657  -4.503   0.232  0.00  0.00    +0.115 C 
ATOM      8  C   UNL     1      -4.715  -4.692  -2.034  0.00  0.00    -0.010 C 
ATOM      9  C   UNL     1      -4.809  -6.218  -1.951  0.00  0.00    -0.082 C 
ATOM     10  N   UNL     1      -6.102  -6.600  -1.369  0.00  0.00    +0.379 N 
ATOM     11  C   UNL     1      -6.195  -6.106   0.010  0.00  0.00    -0.082 C 
ATOM     12  C   UNL     1      -6.159  -4.575   0.011  0.00  0.00    -0.010 C 
ATOM     13  H   UNL     1      -6.848  -6.200  -1.919  0.00  0.00    -0.086 HD
ATOM     14  H   UNL     1      -6.187  -7.605  -1.372  0.00  0.00    -0.086 HD
ENDROOT
BRANCH   1  18
ATOM     15  C   UNL     1       0.078   1.409   0.942  0.00  0.00    +0.086 C 
ATOM     16  C   UNL     1       0.023  -0.025   0.482  0.00  0.00    +0.103 A 
ATOM     17  C   UNL     1      -0.993  -0.873   0.701  0.00  0.00    +0.058 A 
ATOM     18  C   UNL     1      -0.601  -2.143   0.073  0.00  0.00    +0.087 A 
ATOM     19  C   UNL     1       0.631  -1.921  -0.468  0.00  0.00    +0.220 A 
ATOM     20  O   UNL     1       0.980  -0.655  -0.217  0.00  0.00    -0.455 OA
BRANCH  19  21
ATOM     21  C   UNL     1       1.458  -2.929  -1.224  0.00  0.00    +0.451 C 
ATOM     22  F   UNL     1       1.149  -2.857  -2.587  0.00  0.00    -0.163 F 
ATOM     23  F   UNL     1       2.816  -2.652  -1.038  0.00  0.00    -0.163 F 
ATOM     24  F   UNL     1       1.175  -4.214  -0.749  0.00  0.00    -0.163 F 
ENDBRANCH  19  21
ENDBRANCH   1  18
BRANCH   5  25
ATOM     25  C   UNL     1      -4.655  -2.101  -2.122  0.00  0.00    +0.219 C 
ATOM     26  O   UNL     1      -3.554  -2.092  -2.629  0.00  0.00    -0.275 OA
ATOM     27  N   UNL     1      -5.727  -1.696  -2.831  0.00  0.00    -0.308 N 
ATOM     28  H   UNL     1      -6.608  -1.704  -2.426  0.00  0.00    +0.149 HD
BRANCH  27  29
ATOM     29  C   UNL     1      -5.562  -1.244  -4.215  0.00  0.00    +0.104 C 
ATOM     30  C   UNL     1      -5.262   0.256  -4.229  0.00  0.00    +0.033 C 
BRANCH  29  31
ATOM     31  C   UNL     1      -6.830  -1.511  -4.985  0.00  0.00    +0.015 A 
ATOM     32  C   UNL     1      -6.918  -2.146  -6.177  0.00  0.00    +0.038 A 
ATOM     33  N   UNL     1      -8.221  -2.181  -6.528  0.00  0.00    -0.281 N 
ATOM     34  H   UNL     1      -8.584  -2.576  -7.336  0.00  0.00    +0.189 HD
ATOM     35  N   UNL     1      -8.957  -1.546  -5.519  0.00  0.00    -0.179 NA
ATOM     36  C   UNL     1      -8.123  -1.151  -4.592  0.00  0.00    +0.065 A 
ATOM     37  C   UNL     1      -8.491  -0.427  -3.322  0.00  0.00    +0.068 C 
ATOM     38  C   UNL     1      -5.769  -2.712  -6.970  0.00  0.00    +0.065 C 
ENDBRANCH  29  31
ENDBRANCH  27  29
ENDBRANCH   5  25
TORSDOF 5
