REMARK  Name = ZINC08897090
REMARK  12 active torsions:
REMARK  status: ('A' for Active; 'I' for Inactive)
REMARK    1  A    between atoms: C_1  and  C_2
REMARK    2  A    between atoms: C_9  and  N_13
REMARK    3  A    between atoms: C_10  and  C_11
REMARK    4  A    between atoms: C_14  and  C_16
REMARK    5  A    between atoms: C_16  and  S_17
REMARK    6  A    between atoms: S_17  and  C_18
REMARK    7  A    between atoms: C_21  and  C_30
REMARK    8  A    between atoms: N_22  and  C_23
REMARK    9  A    between atoms: C_30  and  C_32
REMARK   10  A    between atoms: C_30  and  N_61
REMARK   11  A    between atoms: C_33  and  N_61
REMARK   12  A    between atoms: C_34  and  N_61
REMARK                            x       y       z     vdW  Elec       q    Type
REMARK                         _______ _______ _______ _____ _____    ______ ____
ROOT
ATOM      1  S   UNL     1       2.939  -7.538  -5.217  0.00  0.00    -0.076 S 
ENDROOT
BRANCH   1   2
ATOM      2  C   UNL     1       3.329  -9.244  -5.426  0.00  0.00    +0.197 A 
ATOM      3  N   UNL     1       3.341 -10.163  -4.488  0.00  0.00    -0.122 NA
ATOM      4  N   UNL     1       3.669 -11.298  -4.993  0.00  0.00    -0.135 NA
ATOM      5  C   UNL     1       3.886 -11.175  -6.272  0.00  0.00    +0.125 A 
ATOM      6  N   UNL     1       3.672  -9.862  -6.597  0.00  0.00    -0.275 N 
BRANCH   6   7
ATOM      7  C   UNL     1       3.785  -9.274  -7.865  0.00  0.00    +0.050 A 
ATOM      8  C   UNL     1       2.924  -9.652  -8.886  0.00  0.00    +0.029 A 
ATOM      9  C   UNL     1       3.032  -9.067 -10.132  0.00  0.00    +0.040 A 
ATOM     10  C   UNL     1       4.007  -8.112 -10.368  0.00  0.00    +0.124 A 
ATOM     11  C   UNL     1       4.871  -7.738  -9.352  0.00  0.00    +0.040 A 
ATOM     12  C   UNL     1       4.762  -8.316  -8.103  0.00  0.00    +0.029 A 
ATOM     13  F   UNL     1       4.116  -7.546 -11.589  0.00  0.00    -0.205 F 
ENDBRANCH   6   7
BRANCH   5  14
ATOM     14  C   UNL     1       4.291 -12.276  -7.219  0.00  0.00    -0.003 C 
ATOM     15  C   UNL     1       3.083 -13.168  -7.510  0.00  0.00    -0.005 C 
BRANCH  14  18
ATOM     16  C   UNL     1       4.864 -13.800  -5.426  0.00  0.00    -0.096 C 
ATOM     17  C   UNL     1       5.942 -14.009  -7.584  0.00  0.00    -0.096 C 
ATOM     18  N   UNL     1       5.379 -13.062  -6.599  0.00  0.00    +0.382 N 
ATOM     19  H   UNL     1       6.119 -12.421  -6.291  0.00  0.00    -0.082 HD
ENDBRANCH  14  18
ENDBRANCH   5  14
ENDBRANCH   1   2
BRANCH   1  20
ATOM     20  C   UNL     1       2.596  -7.510  -3.440  0.00  0.00    +0.173 C 
BRANCH  20  22
ATOM     21  N   UNL     1       1.931  -5.847  -1.734  0.00  0.00    -0.278 N 
ATOM     22  C   UNL     1       2.229  -6.109  -3.022  0.00  0.00    +0.228 C 
ATOM     23  O   UNL     1       2.201  -5.218  -3.844  0.00  0.00    -0.275 OA
ATOM     24  H   UNL     1       1.953  -6.559  -1.076  0.00  0.00    +0.155 HD
BRANCH  21  32
ATOM     25  C   UNL     1      -0.019   1.526   0.010  0.00  0.00    +0.008 C 
ATOM     26  C   UNL     1       0.002  -0.004   0.002  0.00  0.00    -0.009 C 
ATOM     27  C   UNL     1       0.742  -0.514   1.242  0.00  0.00    +0.008 C 
ATOM     28  C   UNL     1       0.556  -2.027   1.373  0.00  0.00    +0.037 C 
ATOM     29  C   UNL     1       0.941  -2.684   0.054  0.00  0.00    -0.018 A 
ATOM     30  C   UNL     1       1.008  -1.965  -1.089  0.00  0.00    -0.004 A 
ATOM     31  S   UNL     1       1.485  -3.134  -2.331  0.00  0.00    -0.077 S 
ATOM     32  C   UNL     1       1.593  -4.557  -1.349  0.00  0.00    +0.090 A 
ATOM     33  C   UNL     1       1.258  -4.095  -0.084  0.00  0.00    +0.084 A 
ATOM     34  C   UNL     1       0.736  -0.502  -1.252  0.00  0.00    +0.046 C 
BRANCH  33  35
ATOM     35  C   UNL     1       1.226  -4.977   1.044  0.00  0.00    +0.102 C 
ATOM     36  N   UNL     1       1.200  -5.676   1.938  0.00  0.00    -0.191 NA
ENDBRANCH  33  35
ENDBRANCH  21  32
ENDBRANCH  20  22
ENDBRANCH   1  20
TORSDOF 8
