REMARK  Name = ZINC58248201
REMARK  5 active torsions:
REMARK  status: ('A' for Active; 'I' for Inactive)
REMARK    1  A    between atoms: C_1  and  C_2
REMARK    2  A    between atoms: C_5  and  C_25
REMARK    3  A    between atoms: C_7  and  N_8
REMARK    4  A    between atoms: N_8  and  S_9
REMARK    5  A    between atoms: S_9  and  C_12
REMARK                            x       y       z     vdW  Elec       q    Type
REMARK                         _______ _______ _______ _____ _____    ______ ____
ROOT
ATOM      1  S   UNL     1       0.764  -0.667   3.744  0.00  0.00    +0.073 S 
ATOM      2  O   UNL     1       2.122  -0.974   3.459  0.00  0.00    -0.150 OA
ATOM      3  O   UNL     1       0.387   0.226   4.782  0.00  0.00    -0.150 OA
ENDROOT
BRANCH   1   4
ATOM      4  C   UNL     1      -0.039  -2.199   4.081  0.00  0.00    +0.116 A 
ATOM      5  C   UNL     1       0.664  -3.374   4.074  0.00  0.00    +0.031 A 
ATOM      6  C   UNL     1       0.082  -4.614   4.334  0.00  0.00    +0.026 A 
ATOM      7  C   UNL     1      -1.269  -4.698   4.617  0.00  0.00    +0.042 A 
ATOM      8  C   UNL     1      -1.969  -3.497   4.621  0.00  0.00    +0.017 A 
ATOM      9  C   UNL     1      -1.413  -2.242   4.370  0.00  0.00    +0.011 A 
ATOM     10  C   UNL     1      -2.276  -1.134   4.425  0.00  0.00    +0.010 A 
ATOM     11  C   UNL     1      -3.597  -1.337   4.721  0.00  0.00    +0.001 A 
ATOM     12  C   UNL     1      -4.136  -2.598   4.975  0.00  0.00    +0.014 A 
ATOM     13  C   UNL     1      -3.322  -3.716   4.921  0.00  0.00    +0.047 A 
ATOM     14  C   UNL     1      -3.420  -5.168   5.107  0.00  0.00    +0.249 C 
ATOM     15  O   UNL     1      -4.430  -5.788   5.382  0.00  0.00    -0.270 OA
ATOM     16  N   UNL     1      -2.183  -5.700   4.917  0.00  0.00    -0.281 N 
ATOM     17  H   UNL     1      -1.970  -6.644   4.981  0.00  0.00    +0.155 HD
ENDBRANCH   1   4
BRANCH   1  18
ATOM     18  N   UNL     1       0.110  -0.070   2.345  0.00  0.00    -0.216 N 
ATOM     19  H   UNL     1      -0.434   0.733   2.368  0.00  0.00    +0.174 HD
BRANCH  18  26
ATOM     20  C   UNL     1       0.383   1.518   0.004  0.00  0.00    +0.046 C 
ATOM     21  C   UNL     1       0.482   0.015  -0.039  0.00  0.00    -0.028 A 
ATOM     22  C   UNL     1       0.717  -0.626  -1.240  0.00  0.00    +0.006 A 
ATOM     23  C   UNL     1       0.809  -2.003  -1.286  0.00  0.00    +0.009 A 
ATOM     24  C   UNL     1       0.664  -2.751  -0.118  0.00  0.00    -0.016 A 
ATOM     25  C   UNL     1       0.427  -2.106   1.092  0.00  0.00    +0.033 A 
ATOM     26  C   UNL     1       0.342  -0.722   1.131  0.00  0.00    +0.052 A 
BRANCH  24  27
ATOM     27  C   UNL     1       0.761  -4.231  -0.166  0.00  0.00    -0.015 A 
ATOM     28  C   UNL     1       0.613  -4.998   0.993  0.00  0.00    +0.028 A 
ATOM     29  C   UNL     1       0.711  -6.372   0.903  0.00  0.00    +0.111 A 
ATOM     30  N   UNL     1       0.941  -6.960  -0.255  0.00  0.00    -0.263 NA
ATOM     31  C   UNL     1       1.087  -6.273  -1.371  0.00  0.00    +0.111 A 
ATOM     32  C   UNL     1       0.998  -4.896  -1.373  0.00  0.00    +0.028 A 
ENDBRANCH  24  27
ENDBRANCH  18  26
ENDBRANCH   1  18
TORSDOF 4
