REMARK  Name = ZINC45731504
REMARK  10 active torsions:
REMARK  status: ('A' for Active; 'I' for Inactive)
REMARK    1  A    between atoms: C_1  and  C_2
REMARK    2  A    between atoms: C_5  and  C_7
REMARK    3  A    between atoms: C_9  and  C_19
REMARK    4  A    between atoms: N_13  and  C_16
REMARK    5  A    between atoms: C_16  and  C_17
REMARK    6  A    between atoms: C_16  and  C_18
REMARK    7  A    between atoms: N_21  and  C_22
REMARK    8  A    between atoms: C_22  and  C_23
REMARK    9  A    between atoms: C_23  and  C_24
REMARK   10  A    between atoms: C_24  and  N_25
REMARK                            x       y       z     vdW  Elec       q    Type
REMARK                         _______ _______ _______ _____ _____    ______ ____
ROOT
ATOM      1  C   UNL     1       4.373  -5.796  -0.036  0.00  0.00    +0.245 C 
ATOM      2  O   UNL     1       4.785  -6.940  -0.043  0.00  0.00    -0.270 OA
ATOM      3  N   UNL     1       5.243  -4.767  -0.030  0.00  0.00    -0.311 N 
ATOM      4  H   UNL     1       4.914  -3.854  -0.024  0.00  0.00    +0.149 HD
ENDROOT
BRANCH   1   7
ATOM      5  C   UNL     1       1.038  -4.032  -0.024  0.00  0.00    +0.081 A 
ATOM      6  C   UNL     1       2.424  -4.237  -0.025  0.00  0.00    +0.042 A 
ATOM      7  C   UNL     1       2.918  -5.535  -0.034  0.00  0.00    +0.051 A 
ATOM      8  C   UNL     1       1.986  -6.600  -0.040  0.00  0.00    +0.051 A 
ATOM      9  C   UNL     1       2.112  -8.005  -0.049  0.00  0.00    +0.145 A 
ATOM     10  N   UNL     1       0.919  -8.529  -0.053  0.00  0.00    -0.177 NA
ATOM     11  N   UNL     1      -0.044  -7.513  -0.046  0.00  0.00    -0.244 N 
ATOM     12  C   UNL     1       0.607  -6.307  -0.038  0.00  0.00    +0.160 A 
ATOM     13  N   UNL     1       0.190  -5.050  -0.025  0.00  0.00    -0.227 NA
BRANCH   5  18
ATOM     14  C   UNL     1      -0.018   1.503   0.010  0.00  0.00    +0.051 C 
ATOM     15  C   UNL     1       0.002  -0.004   0.002  0.00  0.00    -0.013 A 
ATOM     16  C   UNL     1      -1.043  -0.873   0.002  0.00  0.00    +0.011 A 
ATOM     17  C   UNL     1      -0.791  -2.225  -0.007  0.00  0.00    +0.018 A 
ATOM     18  C   UNL     1       0.511  -2.653  -0.015  0.00  0.00    +0.038 A 
ATOM     19  S   UNL     1       1.405  -1.107  -0.018  0.00  0.00    -0.092 S 
ENDBRANCH   5  18
BRANCH  11  20
ATOM     20  C   UNL     1      -1.496  -7.706  -0.048  0.00  0.00    +0.103 C 
ATOM     21  C   UNL     1      -1.907  -8.480  -1.302  0.00  0.00    +0.032 C 
ATOM     22  C   UNL     1      -1.908  -8.496   1.196  0.00  0.00    +0.032 C 
ENDBRANCH  11  20
ENDBRANCH   1   7
BRANCH   3  23
ATOM     23  C   UNL     1       6.685  -5.026  -0.032  0.00  0.00    +0.106 C 
BRANCH  23  24
ATOM     24  C   UNL     1       7.442  -3.696  -0.024  0.00  0.00    +0.038 C 
BRANCH  24  25
ATOM     25  C   UNL     1       8.947  -3.966  -0.026  0.00  0.00    +0.119 C 
BRANCH  25  26
ATOM     26  N   UNL     1       9.672  -2.693  -0.018  0.00  0.00    -0.224 N 
ATOM     27  C   UNL     1      10.043  -2.023  -1.131  0.00  0.00    +0.246 C 
ATOM     28  O   UNL     1       9.848  -2.347  -2.283  0.00  0.00    -0.273 OA
ATOM     29  C   UNL     1      10.750  -0.788  -0.635  0.00  0.00    +0.113 C 
ATOM     30  C   UNL     1      10.042   0.484  -1.119  0.00  0.00    +0.035 C 
ATOM     31  C   UNL     1      11.199   1.488  -1.362  0.00  0.00    +0.003 C 
ATOM     32  C   UNL     1      12.322   0.587  -1.936  0.00  0.00    +0.003 C 
ATOM     33  C   UNL     1      12.193  -0.732  -1.143  0.00  0.00    +0.035 C 
ATOM     34  N   UNL     1      10.701  -0.898   0.824  0.00  0.00    -0.285 N 
ATOM     35  C   UNL     1      10.045  -2.045   1.093  0.00  0.00    +0.309 C 
ATOM     36  O   UNL     1       9.820  -2.448   2.218  0.00  0.00    -0.252 OA
ATOM     37  H   UNL     1      11.064  -0.271   1.468  0.00  0.00    +0.151 HD
ENDBRANCH  25  26
ENDBRANCH  24  25
ENDBRANCH  23  24
ENDBRANCH   3  23
TORSDOF 7
