REMARK  Name = ZINC10395771
REMARK  4 active torsions:
REMARK  status: ('A' for Active; 'I' for Inactive)
REMARK    1  A    between atoms: C_4  and  C_7
REMARK    2  A    between atoms: C_10  and  S_12
REMARK    3  A    between atoms: S_12  and  C_13
REMARK    4  A    between atoms: C_13  and  C_14
REMARK                            x       y       z     vdW  Elec       q    Type
REMARK                         _______ _______ _______ _____ _____    ______ ____
ROOT
ATOM      1  C   UNL     1       1.113   2.306   4.949  0.00  0.00    +0.143 A 
ATOM      2  N   UNL     1       1.886   1.892   3.961  0.00  0.00    -0.216 NA
ATOM      3  C   UNL     1       1.396   1.533   2.785  0.00  0.00    +0.128 A 
ATOM      4  C   UNL     1      -0.010   1.594   2.575  0.00  0.00    +0.051 A 
ATOM      5  C   UNL     1      -0.771   1.244   1.367  0.00  0.00    -0.025 A 
ATOM      6  C   UNL     1      -2.105   1.407   1.426  0.00  0.00    -0.004 A 
ATOM      7  S   UNL     1      -2.433   1.997   3.067  0.00  0.00    -0.073 S 
ATOM      8  C   UNL     1      -0.768   2.045   3.672  0.00  0.00    +0.114 A 
ATOM      9  N   UNL     1      -0.197   2.383   4.812  0.00  0.00    -0.224 NA
ATOM     10  C   UNL     1      -3.107   1.150   0.343  0.00  0.00    +0.043 C 
ATOM     11  C   UNL     1      -2.857  -0.237  -0.263  0.00  0.00    +0.005 C 
ATOM     12  C   UNL     1      -1.872  -0.085  -1.417  0.00  0.00    +0.001 C 
ATOM     13  C   UNL     1      -0.888   1.045  -1.120  0.00  0.00    +0.005 C 
ATOM     14  C   UNL     1      -0.064   0.721   0.120  0.00  0.00    +0.037 C 
ATOM     15  N   UNL     1       2.239   1.105   1.775  0.00  0.00    -0.343 N 
ATOM     16  H   UNL     1       1.911   0.493   1.098  0.00  0.00    +0.144 HD
ATOM     17  H   UNL     1       3.157   1.416   1.745  0.00  0.00    +0.144 HD
ENDROOT
BRANCH   1  18
ATOM     18  C   UNL     1       1.741   2.699   6.261  0.00  0.00    +0.155 C 
BRANCH  18  19
ATOM     19  S   UNL     1       1.840   1.249   7.341  0.00  0.00    -0.058 S 
BRANCH  19  23
ATOM     20  C   UNL     1       3.458   2.274  10.714  0.00  0.00    +0.249 A 
ATOM     21  N   UNL     1       3.459   3.410  10.060  0.00  0.00    -0.106 NA
ATOM     22  N   UNL     1       2.942   3.233   8.895  0.00  0.00    -0.101 NA
ATOM     23  C   UNL     1       2.590   1.975   8.760  0.00  0.00    +0.278 A 
ATOM     24  O   UNL     1       2.903   1.343   9.907  0.00  0.00    -0.411 OA
BRANCH  20  28
ATOM     25  C   UNL     1       4.915   1.641  14.653  0.00  0.00    +0.000 A 
ATOM     26  C   UNL     1       4.982   2.903  14.088  0.00  0.00    +0.001 A 
ATOM     27  C   UNL     1       4.511   3.115  12.809  0.00  0.00    +0.013 A 
ATOM     28  C   UNL     1       3.965   2.054  12.084  0.00  0.00    +0.039 A 
ATOM     29  C   UNL     1       3.896   0.785  12.662  0.00  0.00    +0.013 A 
ATOM     30  C   UNL     1       4.375   0.585  13.940  0.00  0.00    +0.001 A 
ENDBRANCH  20  28
ENDBRANCH  19  23
ENDBRANCH  18  19
ENDBRANCH   1  18
TORSDOF 4
