REMARK  Name = ZINC13804939
REMARK  7 active torsions:
REMARK  status: ('A' for Active; 'I' for Inactive)
REMARK    1  A    between atoms: C_2  and  C_3
REMARK    2  A    between atoms: C_3  and  O_4
REMARK    3  A    between atoms: O_4  and  C_5
REMARK    4  A    between atoms: C_8  and  C_11
REMARK    5  A    between atoms: C_16  and  N_18
REMARK    6  A    between atoms: N_18  and  C_19
REMARK    7  A    between atoms: C_24  and  C_25
REMARK                            x       y       z     vdW  Elec       q    Type
REMARK                         _______ _______ _______ _____ _____    ______ ____
ROOT
ATOM      1  C   UNL     1       5.914  -4.873   1.493  0.00  0.00    +0.028 C 
ATOM      2  C   UNL     1       5.961  -5.880   2.401  0.00  0.00    +0.079 C 
ATOM      3  C   UNL     1       7.045  -6.848   2.689  0.00  0.00    +0.276 C 
ATOM      4  O   UNL     1       8.103  -6.831   2.080  0.00  0.00    -0.267 OA
ATOM      5  N   UNL     1       6.806  -7.726   3.638  0.00  0.00    -0.152 NA
ATOM      6  C   UNL     1       5.664  -7.755   4.307  0.00  0.00    +0.175 C 
ATOM      7  S   UNL     1       4.735  -6.408   3.591  0.00  0.00    -0.050 S 
ENDROOT
BRANCH   1  11
ATOM      8  C   UNL     1       2.670  -2.143   1.521  0.00  0.00    +0.121 A 
ATOM      9  C   UNL     1       2.809  -3.064   2.554  0.00  0.00    +0.046 A 
ATOM     10  C   UNL     1       3.861  -3.952   2.549  0.00  0.00    +0.011 A 
ATOM     11  C   UNL     1       4.790  -3.928   1.502  0.00  0.00    -0.024 A 
ATOM     12  C   UNL     1       4.645  -2.998   0.465  0.00  0.00    +0.011 A 
ATOM     13  C   UNL     1       3.587  -2.118   0.477  0.00  0.00    +0.046 A 
BRANCH   8  14
ATOM     14  O   UNL     1       1.631  -1.269   1.531  0.00  0.00    -0.488 OA
BRANCH  14  15
ATOM     15  C   UNL     1       0.726  -1.349   2.633  0.00  0.00    +0.256 C 
BRANCH  15  17
ATOM     16  C   UNL     1      -1.607  -0.629   2.684  0.00  0.00    +0.007 C 
ATOM     17  C   UNL     1      -0.354  -0.310   2.473  0.00  0.00    +0.006 C 
ENDBRANCH  15  17
ENDBRANCH  14  15
ENDBRANCH   8  14
ENDBRANCH   1  11
BRANCH   6  18
ATOM     18  N   UNL     1       5.287  -8.610   5.311  0.00  0.00    -0.191 NA
BRANCH  18  19
ATOM     19  C   UNL     1       6.231  -9.458   5.898  0.00  0.00    +0.067 A 
ATOM     20  C   UNL     1       7.580  -9.126   5.868  0.00  0.00    +0.027 A 
ATOM     21  C   UNL     1       8.510  -9.965   6.449  0.00  0.00    +0.022 A 
ATOM     22  C   UNL     1       8.100 -11.137   7.060  0.00  0.00    +0.042 A 
ATOM     23  C   UNL     1       6.757 -11.471   7.091  0.00  0.00    +0.034 A 
ATOM     24  C   UNL     1       5.822 -10.632   6.516  0.00  0.00    +0.079 A 
ATOM     25 CL   UNL     1       9.271 -12.191   7.788  0.00  0.00    -0.084 Cl
BRANCH  24  26
ATOM     26  C   UNL     1       4.359 -10.994   6.556  0.00  0.00    +0.419 C 
ATOM     27  F   UNL     1       4.198 -12.211   7.227  0.00  0.00    -0.166 F 
ATOM     28  F   UNL     1       3.650  -9.993   7.227  0.00  0.00    -0.166 F 
ATOM     29  F   UNL     1       3.874 -11.114   5.249  0.00  0.00    -0.166 F 
ENDBRANCH  24  26
ENDBRANCH  18  19
ENDBRANCH   6  18
TORSDOF 7
