REMARK  Name = ZINC41152020
REMARK  4 active torsions:
REMARK  status: ('A' for Active; 'I' for Inactive)
REMARK    1  A    between atoms: C_5  and  C_7
REMARK    2  A    between atoms: C_9  and  C_12
REMARK    3  A    between atoms: C_12  and  N_13
REMARK    4  A    between atoms: C_14  and  C_16
REMARK                            x       y       z     vdW  Elec       q    Type
REMARK                         _______ _______ _______ _____ _____    ______ ____
ROOT
ATOM      1  C   UNL     1       1.245  -2.166  -0.022  0.00  0.00    +0.205 A 
ATOM      2  N   UNL     1       0.167  -2.970  -0.021  0.00  0.00    -0.190 NA
ATOM      3  C   UNL     1       0.540  -4.217  -0.030  0.00  0.00    +0.245 A 
ATOM      4  O   UNL     1       1.879  -4.260  -0.037  0.00  0.00    -0.336 OA
ATOM      5  N   UNL     1       2.323  -2.911  -0.037  0.00  0.00    -0.056 NA
ENDROOT
BRANCH   1  10
ATOM      6  C   UNL     1      -0.017   1.376   0.010  0.00  0.00    +0.001 A 
ATOM      7  C   UNL     1       1.170   2.087   0.002  0.00  0.00    +0.003 A 
ATOM      8  C   UNL     1       2.382   1.422  -0.013  0.00  0.00    +0.039 A 
ATOM      9  C   UNL     1       2.413   0.040  -0.021  0.00  0.00    +0.134 A 
ATOM     10  C   UNL     1       1.219  -0.682  -0.013  0.00  0.00    +0.058 A 
ATOM     11  C   UNL     1       0.002  -0.004   0.002  0.00  0.00    +0.014 A 
ATOM     12  F   UNL     1       3.598  -0.611  -0.036  0.00  0.00    -0.205 F 
ENDBRANCH   1  10
BRANCH   3  13
ATOM     13  C   UNL     1      -0.379  -5.412  -0.033  0.00  0.00    +0.203 C 
BRANCH  13  14
ATOM     14  N   UNL     1      -0.683  -5.791  -1.414  0.00  0.00    -0.303 N 
ATOM     15  C   UNL     1      -1.493  -6.840  -1.662  0.00  0.00    +0.244 C 
ATOM     16  O   UNL     1      -1.970  -7.471  -0.740  0.00  0.00    -0.270 OA
ATOM     17  H   UNL     1      -0.303  -5.287  -2.151  0.00  0.00    +0.150 HD
BRANCH  15  18
ATOM     18  C   UNL     1      -1.800  -7.222  -3.056  0.00  0.00    +0.037 A 
ATOM     19  C   UNL     1      -1.249  -6.502  -4.118  0.00  0.00    +0.016 A 
ATOM     20  C   UNL     1      -1.539  -6.863  -5.416  0.00  0.00    +0.039 A 
ATOM     21  C   UNL     1      -2.377  -7.938  -5.668  0.00  0.00    +0.123 A 
ATOM     22  C   UNL     1      -2.927  -8.657  -4.618  0.00  0.00    +0.039 A 
ATOM     23  C   UNL     1      -2.639  -8.308  -3.316  0.00  0.00    +0.016 A 
ATOM     24  F   UNL     1      -2.659  -8.287  -6.943  0.00  0.00    -0.205 F 
ENDBRANCH  15  18
ENDBRANCH  13  14
ENDBRANCH   3  13
TORSDOF 4
