REMARK  Name = ZINC58667735
REMARK  7 active torsions:
REMARK  status: ('A' for Active; 'I' for Inactive)
REMARK    1  A    between atoms: C_1  and  C_2
REMARK    2  A    between atoms: C_3  and  C_25
REMARK    3  A    between atoms: C_4  and  C_22
REMARK    4  A    between atoms: C_5  and  N_7
REMARK    5  A    between atoms: C_8  and  C_10
REMARK    6  A    between atoms: C_10  and  C_11
REMARK    7  A    between atoms: C_11  and  N_12
REMARK                            x       y       z     vdW  Elec       q    Type
REMARK                         _______ _______ _______ _____ _____    ______ ____
ROOT
ATOM      1  C   UNL     1      -0.018   1.503   0.010  0.00  0.00    +0.052 C 
ATOM      2  C   UNL     1       0.002  -0.004   0.002  0.00  0.00    -0.003 A 
ATOM      3  C   UNL     1      -1.052  -0.862   0.002  0.00  0.00    +0.006 A 
ATOM      4  C   UNL     1      -0.707  -2.272  -0.008  0.00  0.00    +0.073 A 
ATOM      5  C   UNL     1       0.643  -2.580  -0.016  0.00  0.00    +0.085 A 
ATOM      6  S   UNL     1       1.412  -1.089  -0.018  0.00  0.00    -0.077 S 
ENDROOT
BRANCH   3   7
ATOM      7  C   UNL     1      -2.457  -0.390   0.011  0.00  0.00    -0.016 A 
ATOM      8  C   UNL     1      -3.275  -0.651   1.109  0.00  0.00    +0.008 A 
ATOM      9  C   UNL     1      -4.583  -0.209   1.113  0.00  0.00    +0.001 A 
ATOM     10  C   UNL     1      -5.082   0.491   0.029  0.00  0.00    +0.000 A 
ATOM     11  C   UNL     1      -4.274   0.753  -1.063  0.00  0.00    +0.001 A 
ATOM     12  C   UNL     1      -2.963   0.322  -1.075  0.00  0.00    +0.008 A 
ENDBRANCH   3   7
BRANCH   4  13
ATOM     13  C   UNL     1      -1.735  -3.316  -0.009  0.00  0.00    +0.244 C 
ATOM     14  O   UNL     1      -2.167  -3.743  -1.063  0.00  0.00    -0.270 OA
ATOM     15  N   UNL     1      -2.202  -3.802   1.158  0.00  0.00    -0.325 N 
ATOM     16  H   UNL     1      -1.857  -3.462   1.998  0.00  0.00    +0.145 HD
ATOM     17  H   UNL     1      -2.882  -4.494   1.158  0.00  0.00    +0.145 HD
ENDBRANCH   4  13
BRANCH   5  18
ATOM     18  N   UNL     1       1.228  -3.837  -0.025  0.00  0.00    -0.279 N 
ATOM     19  C   UNL     1       2.570  -3.956  -0.032  0.00  0.00    +0.219 C 
ATOM     20  O   UNL     1       3.267  -2.963  -0.030  0.00  0.00    -0.275 OA
ATOM     21  H   UNL     1       0.670  -4.631  -0.028  0.00  0.00    +0.155 HD
BRANCH  19  22
ATOM     22  C   UNL     1       3.206  -5.322  -0.043  0.00  0.00    +0.118 C 
BRANCH  22  23
ATOM     23  C   UNL     1       4.729  -5.177  -0.049  0.00  0.00    +0.138 C 
BRANCH  23  24
ATOM     24  N   UNL     1       5.346  -6.505  -0.060  0.00  0.00    -0.274 N 
ATOM     25  C   UNL     1       5.694  -7.262   1.059  0.00  0.00    +0.090 A 
ATOM     26  C   UNL     1       5.589  -7.046   2.424  0.00  0.00    +0.030 A 
ATOM     27  C   UNL     1       6.034  -8.009   3.308  0.00  0.00    +0.002 A 
ATOM     28  C   UNL     1       6.584  -9.187   2.835  0.00  0.00    +0.004 A 
ATOM     29  C   UNL     1       6.692  -9.410   1.476  0.00  0.00    +0.048 A 
ATOM     30  C   UNL     1       6.248  -8.449   0.581  0.00  0.00    +0.157 A 
ATOM     31  O   UNL     1       6.224  -8.387  -0.773  0.00  0.00    -0.407 OA
ATOM     32  C   UNL     1       5.677  -7.222  -1.152  0.00  0.00    +0.421 A 
ATOM     33  O   UNL     1       5.509  -6.866  -2.303  0.00  0.00    -0.223 OA
ENDBRANCH  23  24
ENDBRANCH  22  23
ENDBRANCH  19  22
ENDBRANCH   5  18
TORSDOF 6
