REMARK  Name = ZINC39664891
REMARK  13 active torsions:
REMARK  status: ('A' for Active; 'I' for Inactive)
REMARK    1  A    between atoms: C_1  and  C_2
REMARK    2  A    between atoms: C_2  and  C_3
REMARK    3  A    between atoms: C_2  and  C_4
REMARK    4  A    between atoms: C_4  and  C_6
REMARK    5  A    between atoms: C_4  and  O_34
REMARK    6  A    between atoms: C_10  and  C_19
REMARK    7  A    between atoms: N_21  and  C_22
REMARK    8  A    between atoms: C_22  and  C_24
REMARK    9  A    between atoms: C_22  and  C_28
REMARK   10  A    between atoms: C_24  and  N_25
REMARK   11  A    between atoms: N_25  and  C_26
REMARK   12  A    between atoms: N_25  and  C_27
REMARK   13  A    between atoms: O_34  and  C_35
REMARK                            x       y       z     vdW  Elec       q    Type
REMARK                         _______ _______ _______ _____ _____    ______ ____
ROOT
ATOM      1  C   UNL     1      -1.695  -0.835  -2.088  0.00  0.00    +0.257 C 
ATOM      2  O   UNL     1      -2.279  -1.431  -2.968  0.00  0.00    -0.272 OA
ATOM      3  N   UNL     1      -1.773   0.509  -2.019  0.00  0.00    -0.297 N 
ATOM      4  C   UNL     1      -1.068   1.413  -1.079  0.00  0.00    +0.121 C 
ATOM      5  C   UNL     1      -0.674   2.636  -1.936  0.00  0.00    +0.100 C 
ATOM      6  C   UNL     1      -1.673   2.635  -3.105  0.00  0.00    -0.004 C 
ATOM      7  C   UNL     1      -2.579   1.417  -2.869  0.00  0.00    +0.115 C 
ATOM      8  C   UNL     1      -0.934   2.486  -4.432  0.00  0.00    -0.010 C 
ATOM      9  C   UNL     1      -1.944   2.545  -5.582  0.00  0.00    -0.082 C 
ATOM     10  N   UNL     1      -2.662   3.824  -5.540  0.00  0.00    +0.379 N 
ATOM     11  C   UNL     1      -3.444   3.919  -4.302  0.00  0.00    -0.082 C 
ATOM     12  C   UNL     1      -2.499   3.918  -3.097  0.00  0.00    -0.010 C 
ATOM     13  H   UNL     1      -1.998   4.583  -5.576  0.00  0.00    -0.086 HD
ATOM     14  H   UNL     1      -3.283   3.886  -6.334  0.00  0.00    -0.086 HD
ENDROOT
BRANCH   5  15
ATOM     15  C   UNL     1      -0.806   3.904  -1.132  0.00  0.00    +0.219 C 
ATOM     16  O   UNL     1      -1.576   3.952  -0.197  0.00  0.00    -0.275 OA
ATOM     17  N   UNL     1      -0.067   4.985  -1.452  0.00  0.00    -0.310 N 
ATOM     18  H   UNL     1       0.495   4.972  -2.243  0.00  0.00    +0.149 HD
BRANCH  17  19
ATOM     19  C   UNL     1      -0.113   6.180  -0.606  0.00  0.00    +0.087 C 
BRANCH  19  20
ATOM     20  C   UNL     1       0.158   7.401  -1.447  0.00  0.00    -0.029 A 
ATOM     21  C   UNL     1       1.120   7.359  -2.439  0.00  0.00    +0.005 A 
ATOM     22  C   UNL     1       1.368   8.479  -3.210  0.00  0.00    +0.000 A 
ATOM     23  C   UNL     1       0.653   9.642  -2.990  0.00  0.00    +0.000 A 
ATOM     24  C   UNL     1      -0.309   9.684  -1.999  0.00  0.00    +0.000 A 
ATOM     25  C   UNL     1      -0.560   8.563  -1.230  0.00  0.00    +0.005 A 
ENDBRANCH  19  20
BRANCH  19  26
ATOM     26  C   UNL     1       0.949   6.070   0.489  0.00  0.00    -0.052 C 
BRANCH  26  27
ATOM     27  N   UNL     1       0.828   7.212   1.406  0.00  0.00    +0.377 N 
ATOM     28  C   UNL     1      -0.449   7.128   2.127  0.00  0.00    -0.097 C 
ATOM     29  C   UNL     1       1.937   7.188   2.368  0.00  0.00    -0.097 C 
ATOM     30  H   UNL     1       0.859   8.072   0.878  0.00  0.00    -0.083 HD
ENDBRANCH  26  27
ENDBRANCH  19  26
ENDBRANCH  17  19
ENDBRANCH   5  15
BRANCH   1  31
ATOM     31  C   UNL     1      -0.882  -1.596  -1.073  0.00  0.00    +0.261 C 
BRANCH  31  33
ATOM     32  C   UNL     1       1.231  -0.457  -1.767  0.00  0.00    +0.011 C 
ATOM     33  C   UNL     1       0.534  -1.810  -1.611  0.00  0.00    +0.033 C 
ATOM     34  C   UNL     1       1.325  -2.681  -0.632  0.00  0.00    +0.011 C 
ENDBRANCH  31  33
BRANCH  31  35
ATOM     35  O   UNL     1      -1.494  -2.863  -0.825  0.00  0.00    -0.479 OA
BRANCH  35  36
ATOM     36  C   UNL     1      -1.384  -3.366   0.433  0.00  0.00    +0.122 A 
ATOM     37  C   UNL     1      -0.689  -2.661   1.405  0.00  0.00    +0.045 A 
ATOM     38  C   UNL     1      -0.579  -3.174   2.682  0.00  0.00    +0.004 A 
ATOM     39  C   UNL     1      -1.160  -4.389   2.993  0.00  0.00    +0.000 A 
ATOM     40  C   UNL     1      -1.853  -5.094   2.026  0.00  0.00    +0.004 A 
ATOM     41  C   UNL     1      -1.972  -4.582   0.748  0.00  0.00    +0.045 A 
ENDBRANCH  35  36
ENDBRANCH  31  35
ENDBRANCH   1  31
TORSDOF 9
