REMARK  Name = ZINC59197909
REMARK  8 active torsions:
REMARK  status: ('A' for Active; 'I' for Inactive)
REMARK    1  A    between atoms: C_1  and  C_2
REMARK    2  A    between atoms: C_5  and  C_23
REMARK    3  A    between atoms: C_7  and  C_8
REMARK    4  A    between atoms: C_11  and  C_13
REMARK    5  A    between atoms: N_14  and  N_15
REMARK    6  A    between atoms: C_16  and  C_18
REMARK    7  A    between atoms: C_23  and  O_25
REMARK    8  A    between atoms: O_25  and  C_26
REMARK                            x       y       z     vdW  Elec       q    Type
REMARK                         _______ _______ _______ _____ _____    ______ ____
ROOT
ATOM      1  C   UNL     1       0.025   0.023   2.492  0.00  0.00    +0.136 A 
ATOM      2  C   UNL     1      -0.806  -0.217   3.545  0.00  0.00    +0.050 A 
ATOM      3  C   UNL     1      -0.468   0.696   4.553  0.00  0.00    +0.051 A 
ATOM      4  C   UNL     1       0.568   1.462   4.065  0.00  0.00    +0.148 A 
ATOM      5  O   UNL     1       0.853   1.034   2.818  0.00  0.00    -0.454 OA
ENDROOT
BRANCH   1  12
ATOM      6  C   UNL     1      -0.018   1.503   0.010  0.00  0.00    +0.044 C 
ATOM      7  C   UNL     1       0.002  -0.004   0.002  0.00  0.00    -0.040 A 
ATOM      8  C   UNL     1       0.006  -0.686  -1.198  0.00  0.00    +0.005 A 
ATOM      9  C   UNL     1       0.024  -2.067  -1.215  0.00  0.00    +0.015 A 
ATOM     10  C   UNL     1       0.040  -2.784  -0.016  0.00  0.00    +0.060 A 
ATOM     11  C   UNL     1       0.037  -2.102   1.200  0.00  0.00    +0.026 A 
ATOM     12  C   UNL     1       0.023  -0.708   1.209  0.00  0.00    +0.021 A 
BRANCH  10  13
ATOM     13  C   UNL     1       0.059  -4.261  -0.036  0.00  0.00    +0.339 C 
ATOM     14  O   UNL     1       0.072  -4.883   1.007  0.00  0.00    -0.245 OA
BRANCH  13  15
ATOM     15  O   UNL     1       0.061  -4.918  -1.212  0.00  0.00    -0.464 OA
ATOM     16  C   UNL     1       0.080  -6.346  -1.157  0.00  0.00    +0.280 C 
ENDBRANCH  13  15
ENDBRANCH  10  13
ENDBRANCH   1  12
BRANCH   4  17
ATOM     17  C   UNL     1       1.244   2.547   4.777  0.00  0.00    +0.176 C 
ATOM     18  N   UNL     1       2.214   3.198   4.203  0.00  0.00    -0.184 NA
BRANCH  18  19
ATOM     19  N   UNL     1       2.861   4.237   4.884  0.00  0.00    -0.202 N 
ATOM     20  C   UNL     1       3.866   4.910   4.289  0.00  0.00    +0.270 C 
ATOM     21  O   UNL     1       4.211   4.616   3.159  0.00  0.00    -0.268 OA
ATOM     22  H   UNL     1       2.587   4.471   5.785  0.00  0.00    +0.178 HD
BRANCH  20  23
ATOM     23  C   UNL     1       4.543   5.997   5.002  0.00  0.00    +0.075 A 
ATOM     24  C   UNL     1       5.582   6.809   4.574  0.00  0.00    +0.021 A 
ATOM     25  C   UNL     1       6.012   7.753   5.476  0.00  0.00    +0.008 A 
ATOM     26  C   UNL     1       5.411   7.827   6.689  0.00  0.00    +0.046 A 
ATOM     27  S   UNL     1       4.240   6.624   6.643  0.00  0.00    -0.092 S 
ENDBRANCH  20  23
ENDBRANCH  18  19
ENDBRANCH   4  17
TORSDOF 6
