REMARK  Name = ZINC46583185
REMARK  7 active torsions:
REMARK  status: ('A' for Active; 'I' for Inactive)
REMARK    1  A    between atoms: C_3  and  C_25
REMARK    2  A    between atoms: C_6  and  C_7
REMARK    3  A    between atoms: C_7  and  N_8
REMARK    4  A    between atoms: N_8  and  C_9
REMARK    5  A    between atoms: N_8  and  C_22
REMARK    6  A    between atoms: C_9  and  C_10
REMARK    7  A    between atoms: C_12  and  C_15
REMARK                            x       y       z     vdW  Elec       q    Type
REMARK                         _______ _______ _______ _____ _____    ______ ____
ROOT
ATOM      1  N   UNL     1      -1.753  -0.972  -1.375  0.00  0.00    +0.390 N 
ATOM      2  H   UNL     1      -1.924  -0.079  -1.812  0.00  0.00    -0.080 HD
ENDROOT
BRANCH   1   3
ATOM      3  C   UNL     1      -0.723  -1.698  -2.131  0.00  0.00    -0.068 C 
ATOM      4  C   UNL     1       0.126  -0.894  -3.118  0.00  0.00    -0.017 C 
ATOM      5  C   UNL     1      -0.938  -1.865  -3.636  0.00  0.00    -0.017 C 
ENDBRANCH   1   3
BRANCH   1   6
ATOM      6  C   UNL     1      -1.292  -0.763   0.004  0.00  0.00    -0.042 C 
BRANCH   6  12
ATOM      7  C   UNL     1      -0.255   1.513   0.092  0.00  0.00    +0.002 A 
ATOM      8  C   UNL     1       0.849   2.345   0.088  0.00  0.00    +0.012 A 
ATOM      9  C   UNL     1       2.119   1.808  -0.009  0.00  0.00    +0.055 A 
ATOM     10  C   UNL     1       2.285   0.439  -0.101  0.00  0.00    +0.012 A 
ATOM     11  C   UNL     1       1.182  -0.393  -0.096  0.00  0.00    +0.002 A 
ATOM     12  C   UNL     1      -0.088   0.144  -0.001  0.00  0.00    -0.064 A 
BRANCH   9  13
ATOM     13  C   UNL     1       3.323   2.715  -0.015  0.00  0.00    +0.417 C 
ATOM     14  F   UNL     1       3.762   2.916   1.299  0.00  0.00    -0.166 F 
ATOM     15  F   UNL     1       4.347   2.127  -0.764  0.00  0.00    -0.166 F 
ATOM     16  F   UNL     1       2.977   3.946  -0.584  0.00  0.00    -0.166 F 
ENDBRANCH   9  13
ENDBRANCH   6  12
ENDBRANCH   1   6
BRANCH   1  17
ATOM     17  C   UNL     1      -2.994  -1.758  -1.362  0.00  0.00    +0.022 C 
BRANCH  17  18
ATOM     18  C   UNL     1      -3.558  -1.829  -2.758  0.00  0.00    +0.211 A 
ATOM     19  N   UNL     1      -3.394  -2.813  -3.595  0.00  0.00    -0.193 NA
ATOM     20  C   UNL     1      -4.033  -2.548  -4.749  0.00  0.00    +0.202 A 
ATOM     21  N   UNL     1      -4.612  -1.377  -4.647  0.00  0.00    -0.056 NA
ATOM     22  O   UNL     1      -4.316  -0.894  -3.345  0.00  0.00    -0.340 OA
BRANCH  20  23
ATOM     23  C   UNL     1      -4.074  -3.433  -5.939  0.00  0.00    +0.023 A 
ATOM     24  C   UNL     1      -3.417  -4.662  -5.919  0.00  0.00    +0.014 A 
ATOM     25  C   UNL     1      -3.458  -5.482  -7.028  0.00  0.00    +0.039 A 
ATOM     26  C   UNL     1      -4.151  -5.085  -8.160  0.00  0.00    +0.123 A 
ATOM     27  C   UNL     1      -4.805  -3.864  -8.185  0.00  0.00    +0.039 A 
ATOM     28  C   UNL     1      -4.774  -3.040  -7.078  0.00  0.00    +0.014 A 
ATOM     29  F   UNL     1      -4.189  -5.891  -9.244  0.00  0.00    -0.205 F 
ENDBRANCH  20  23
ENDBRANCH  17  18
ENDBRANCH   1  17
TORSDOF 7
