REMARK  Name = ZINC03447642
REMARK  11 active torsions:
REMARK  status: ('A' for Active; 'I' for Inactive)
REMARK    1  A    between atoms: C_1  and  C_2
REMARK    2  A    between atoms: C_2  and  C_36
REMARK    3  A    between atoms: C_3  and  C_4
REMARK    4  A    between atoms: N_6  and  C_7
REMARK    5  A    between atoms: C_8  and  C_18
REMARK    6  A    between atoms: C_9  and  C_12
REMARK    7  A    between atoms: C_18  and  O_20
REMARK    8  A    between atoms: O_20  and  C_21
REMARK    9  A    between atoms: C_21  and  C_22
REMARK   10  A    between atoms: C_22  and  C_24
REMARK   11  A    between atoms: C_24  and  C_34
REMARK                            x       y       z     vdW  Elec       q    Type
REMARK                         _______ _______ _______ _____ _____    ______ ____
ROOT
ATOM      1  C   UNL     1      -0.249   2.224   0.165  0.00  0.00    +0.343 C 
ATOM      2  O   UNL     1       0.805   1.739  -0.201  0.00  0.00    -0.245 OA
ENDROOT
BRANCH   1   4
ATOM      3  C   UNL     1      -0.098   4.365   1.427  0.00  0.00    +0.087 A 
ATOM      4  C   UNL     1      -0.394   3.676   0.257  0.00  0.00    +0.095 A 
ATOM      5  C   UNL     1      -0.859   4.468  -0.866  0.00  0.00    +0.005 A 
ATOM      6  C   UNL     1      -0.956   5.808  -0.670  0.00  0.00    +0.056 A 
ATOM      7  S   UNL     1      -0.425   6.015   1.017  0.00  0.00    -0.080 S 
BRANCH   5   8
ATOM      8  C   UNL     1      -1.210   3.845  -2.164  0.00  0.00    -0.017 A 
ATOM      9  C   UNL     1      -0.323   2.963  -2.780  0.00  0.00    +0.008 A 
ATOM     10  C   UNL     1      -0.659   2.381  -3.985  0.00  0.00    +0.001 A 
ATOM     11  C   UNL     1      -1.867   2.681  -4.589  0.00  0.00    +0.000 A 
ATOM     12  C   UNL     1      -2.748   3.560  -3.985  0.00  0.00    +0.001 A 
ATOM     13  C   UNL     1      -2.426   4.143  -2.777  0.00  0.00    +0.008 A 
ENDBRANCH   5   8
BRANCH   3  16
ATOM     14  C   UNL     1       0.590   4.682   3.668  0.00  0.00    +0.241 C 
ATOM     15  O   UNL     1       0.407   5.878   3.545  0.00  0.00    -0.270 OA
ATOM     16  N   UNL     1       0.354   3.854   2.631  0.00  0.00    -0.276 N 
ATOM     17  H   UNL     1       0.500   2.900   2.729  0.00  0.00    +0.156 HD
BRANCH  14  20
ATOM     18  C   UNL     1       1.473   6.450   5.685  0.00  0.00    +0.039 C 
ATOM     19  C   UNL     1       1.416   4.964   5.932  0.00  0.00    -0.071 C 
ATOM     20  C   UNL     1       1.069   4.139   4.948  0.00  0.00    +0.066 C 
ATOM     21  C   UNL     1       1.752   4.413   7.294  0.00  0.00    +0.039 C 
ENDBRANCH  14  20
ENDBRANCH   3  16
ENDBRANCH   1   4
BRANCH   1  22
ATOM     22  O   UNL     1      -1.285   1.421   0.485  0.00  0.00    -0.453 OA
BRANCH  22  23
ATOM     23  C   UNL     1      -1.071  -0.010   0.369  0.00  0.00    +0.312 C 
BRANCH  23  24
ATOM     24  C   UNL     1      -2.328  -0.740   0.766  0.00  0.00    +0.214 C 
ATOM     25  O   UNL     1      -3.311  -0.114   1.112  0.00  0.00    -0.288 OA
BRANCH  24  26
ATOM     26  C   UNL     1      -2.364  -2.144   0.735  0.00  0.00    +0.133 C 
ATOM     27  C   UNL     1      -3.538  -2.826   1.105  0.00  0.00    +0.114 C 
ATOM     28  N   UNL     1      -4.692  -2.239   1.513  0.00  0.00    -0.300 N 
ATOM     29  C   UNL     1      -5.618  -3.240   1.785  0.00  0.00    +0.054 A 
ATOM     30  C   UNL     1      -6.934  -3.220   2.226  0.00  0.00    +0.025 A 
ATOM     31  C   UNL     1      -7.614  -4.406   2.416  0.00  0.00    +0.002 A 
ATOM     32  C   UNL     1      -6.988  -5.617   2.170  0.00  0.00    +0.002 A 
ATOM     33  C   UNL     1      -5.679  -5.648   1.733  0.00  0.00    +0.025 A 
ATOM     34  C   UNL     1      -4.987  -4.461   1.538  0.00  0.00    +0.054 A 
ATOM     35  N   UNL     1      -3.694  -4.175   1.115  0.00  0.00    -0.300 N 
ATOM     36  H   UNL     1      -4.846  -1.285   1.599  0.00  0.00    +0.153 HD
ATOM     37  H   UNL     1      -3.019  -4.827   0.870  0.00  0.00    +0.153 HD
BRANCH  26  38
ATOM     38  C   UNL     1      -1.207  -2.882   0.327  0.00  0.00    +0.106 C 
ATOM     39  N   UNL     1      -0.288  -3.467   0.003  0.00  0.00    -0.191 NA
ENDBRANCH  26  38
ENDBRANCH  24  26
ENDBRANCH  23  24
ENDBRANCH  22  23
ENDBRANCH   1  22
TORSDOF 9
