REMARK  Name = ZINC39197166
REMARK  7 active torsions:
REMARK  status: ('A' for Active; 'I' for Inactive)
REMARK    1  A    between atoms: C_1  and  C_2
REMARK    2  A    between atoms: C_2  and  C_3
REMARK    3  A    between atoms: C_8  and  N_9
REMARK    4  A    between atoms: C_10  and  C_28
REMARK    5  A    between atoms: C_12  and  C_14
REMARK    6  A    between atoms: N_16  and  N_17
REMARK    7  A    between atoms: C_22  and  C_24
REMARK                            x       y       z     vdW  Elec       q    Type
REMARK                         _______ _______ _______ _____ _____    ______ ____
ROOT
ATOM      1  N   UNL     1      -1.621  -0.431  -2.516  0.00  0.00    -0.231 N 
ATOM      2  C   UNL     1      -2.394  -0.149  -3.607  0.00  0.00    +0.075 A 
ATOM      3  C   UNL     1      -1.592   0.503  -4.501  0.00  0.00    +0.063 A 
ATOM      4  C   UNL     1      -0.326   0.584  -3.881  0.00  0.00    +0.149 A 
ATOM      5  N   UNL     1      -0.428   0.009  -2.699  0.00  0.00    -0.161 NA
ENDROOT
BRANCH   2   6
ATOM      6  C   UNL     1      -3.824  -0.484  -3.785  0.00  0.00    +0.001 A 
ATOM      7  C   UNL     1      -4.639  -0.707  -2.674  0.00  0.00    +0.010 A 
ATOM      8  C   UNL     1      -5.966  -1.021  -2.856  0.00  0.00    +0.004 A 
ATOM      9  C   UNL     1      -6.506  -1.117  -4.134  0.00  0.00    -0.044 A 
ATOM     10  C   UNL     1      -5.708  -0.892  -5.235  0.00  0.00    -0.044 A 
ATOM     11  C   UNL     1      -4.370  -0.574  -5.063  0.00  0.00    +0.014 A 
ATOM     12  C   UNL     1      -6.234  -0.964  -6.645  0.00  0.00    +0.035 C 
ATOM     13  C   UNL     1      -7.560  -1.721  -6.686  0.00  0.00    +0.005 C 
ATOM     14  C   UNL     1      -8.497  -1.112  -5.637  0.00  0.00    +0.005 C 
ATOM     15  C   UNL     1      -7.966  -1.472  -4.251  0.00  0.00    +0.035 C 
ENDBRANCH   2   6
BRANCH   1  21
ATOM     16  C   UNL     1      -1.962  -0.483  -0.124  0.00  0.00    -0.022 A 
ATOM     17  C   UNL     1      -2.406  -1.139   1.007  0.00  0.00    +0.006 A 
ATOM     18  C   UNL     1      -2.949  -2.407   0.905  0.00  0.00    +0.000 A 
ATOM     19  C   UNL     1      -3.049  -3.022  -0.330  0.00  0.00    +0.002 A 
ATOM     20  C   UNL     1      -2.606  -2.371  -1.465  0.00  0.00    +0.028 A 
ATOM     21  C   UNL     1      -2.066  -1.096  -1.366  0.00  0.00    +0.069 A 
BRANCH  16  23
ATOM     22  C   UNL     1      -2.432   1.938  -0.380  0.00  0.00    +0.009 C 
ATOM     23  C   UNL     1      -1.371   0.899  -0.012  0.00  0.00    +0.034 C 
ENDBRANCH  16  23
ENDBRANCH   1  21
BRANCH   4  24
ATOM     24  C   UNL     1       0.888   1.205  -4.450  0.00  0.00    +0.280 C 
ATOM     25  O   UNL     1       0.852   1.709  -5.555  0.00  0.00    -0.267 OA
ATOM     26  N   UNL     1       2.035   1.211  -3.743  0.00  0.00    -0.229 N 
ATOM     27  H   UNL     1       2.064   0.809  -2.861  0.00  0.00    +0.173 HD
BRANCH  26  28
ATOM     28  N   UNL     1       3.187   1.800  -4.282  0.00  0.00    -0.232 N 
ATOM     29  C   UNL     1       4.365   1.807  -3.557  0.00  0.00    +0.232 A 
ATOM     30  N   UNL     1       4.389   1.248  -2.356  0.00  0.00    -0.222 NA
ATOM     31  C   UNL     1       5.498   1.237  -1.636  0.00  0.00    +0.116 A 
ATOM     32  C   UNL     1       6.645   1.819  -2.153  0.00  0.00    +0.052 A 
ATOM     33  C   UNL     1       6.586   2.395  -3.413  0.00  0.00    +0.149 A 
ATOM     34  N   UNL     1       5.445   2.367  -4.082  0.00  0.00    -0.209 NA
ATOM     35  H   UNL     1       3.158   2.202  -5.165  0.00  0.00    +0.173 HD
BRANCH  33  36
ATOM     36  C   UNL     1       7.808   3.040  -4.015  0.00  0.00    +0.434 C 
ATOM     37  F   UNL     1       8.526   2.087  -4.744  0.00  0.00    -0.164 F 
ATOM     38  F   UNL     1       7.415   4.079  -4.865  0.00  0.00    -0.164 F 
ATOM     39  F   UNL     1       8.615   3.552  -2.994  0.00  0.00    -0.164 F 
ENDBRANCH  33  36
ENDBRANCH  26  28
ENDBRANCH   4  24
TORSDOF 6
