REMARK  Name = ZINC02133108
REMARK  8 active torsions:
REMARK  status: ('A' for Active; 'I' for Inactive)
REMARK    1  A    between atoms: C_1  and  N_50
REMARK    2  A    between atoms: C_8  and  O_23
REMARK    3  A    between atoms: C_10  and  C_12
REMARK    4  A    between atoms: C_12  and  N_13
REMARK    5  A    between atoms: N_13  and  C_14
REMARK    6  A    between atoms: C_14  and  N_16
REMARK    7  A    between atoms: N_16  and  C_17
REMARK    8  A    between atoms: O_23  and  C_24
REMARK                            x       y       z     vdW  Elec       q    Type
REMARK                         _______ _______ _______ _____ _____    ______ ____
ROOT
ATOM      1  C   UNL     1      -5.287  -1.012  -1.410  0.00  0.00    -0.095 C 
ATOM      2  C   UNL     1      -7.646  -1.337  -1.864  0.00  0.00    -0.074 C 
ATOM      3  C   UNL     1      -8.915  -0.554  -2.199  0.00  0.00    +0.017 C 
ATOM      4  C   UNL     1      -9.271   0.365  -1.058  0.00  0.00    -0.040 A 
ATOM      5  C   UNL     1     -10.553   0.891  -1.010  0.00  0.00    +0.053 A 
ATOM      6  C   UNL     1     -10.926   1.742   0.016  0.00  0.00    +0.170 A 
ATOM      7  C   UNL     1     -10.006   2.071   1.007  0.00  0.00    +0.208 A 
ATOM      8  C   UNL     1      -8.725   1.542   0.957  0.00  0.00    +0.167 A 
ATOM      9  C   UNL     1      -8.357   0.686  -0.078  0.00  0.00    -0.011 A 
ATOM     10  C   UNL     1      -6.955   0.136  -0.086  0.00  0.00    -0.017 C 
ATOM     11  O   UNL     1     -10.606   2.917   1.897  0.00  0.00    -0.449 OA
ATOM     12  C   UNL     1     -11.771   3.424   1.219  0.00  0.00    +0.467 C 
ATOM     13  O   UNL     1     -12.103   2.381   0.284  0.00  0.00    -0.452 OA
ATOM     14  N   UNL     1      -6.619  -0.367  -1.428  0.00  0.00    +0.384 N 
ATOM     15  H   UNL     1      -6.600   0.420  -2.087  0.00  0.00    -0.081 HD
ENDROOT
BRANCH   8  16
ATOM     16  O   UNL     1      -7.823   1.860   1.924  0.00  0.00    -0.491 OA
ATOM     17  C   UNL     1      -7.779   1.014   3.074  0.00  0.00    +0.277 C 
ENDBRANCH   8  16
BRANCH  10  18
ATOM     18  C   UNL     1      -5.973   1.249   0.285  0.00  0.00    +0.092 C 
BRANCH  18  19
ATOM     19  N   UNL     1      -6.055   2.323  -0.709  0.00  0.00    -0.328 N 
ATOM     20  H   UNL     1      -6.701   2.268  -1.430  0.00  0.00    +0.148 HD
BRANCH  19  21
ATOM     21  C   UNL     1      -5.232   3.386  -0.621  0.00  0.00    +0.134 C 
ATOM     22  S   UNL     1      -4.091   3.483   0.652  0.00  0.00    -0.019 S 
BRANCH  21  23
ATOM     23  N   UNL     1      -5.307   4.374  -1.535  0.00  0.00    -0.297 N 
ATOM     24  H   UNL     1      -6.002   4.357  -2.212  0.00  0.00    +0.154 HD
BRANCH  23  25
ATOM     25  C   UNL     1      -4.383   5.424  -1.507  0.00  0.00    +0.033 A 
ATOM     26  C   UNL     1      -4.804   6.727  -1.739  0.00  0.00    +0.023 A 
ATOM     27  C   UNL     1      -3.890   7.762  -1.705  0.00  0.00    +0.002 A 
ATOM     28  C   UNL     1      -2.557   7.502  -1.447  0.00  0.00    +0.000 A 
ATOM     29  C   UNL     1      -2.134   6.205  -1.222  0.00  0.00    +0.002 A 
ATOM     30  C   UNL     1      -3.042   5.165  -1.255  0.00  0.00    +0.023 A 
ENDBRANCH  23  25
ENDBRANCH  21  23
ENDBRANCH  19  21
ENDBRANCH  18  19
ENDBRANCH  10  18
TORSDOF 6
