REMARK  Name = ZINC65521569
REMARK  5 active torsions:
REMARK  status: ('A' for Active; 'I' for Inactive)
REMARK    1  A    between atoms: C_4  and  N_7
REMARK    2  A    between atoms: C_8  and  C_27
REMARK    3  A    between atoms: C_11  and  C_13
REMARK    4  A    between atoms: N_15  and  C_16
REMARK    5  A    between atoms: C_16  and  C_20
REMARK                            x       y       z     vdW  Elec       q    Type
REMARK                         _______ _______ _______ _____ _____    ______ ____
ROOT
ATOM      1  N   UNL     1       3.606  -0.606  -0.013  0.00  0.00    -0.212 N 
ATOM      2  C   UNL     1       3.759  -2.069  -0.068  0.00  0.00    +0.189 C 
ATOM      3  C   UNL     1       5.285  -2.274  -0.108  0.00  0.00    +0.096 C 
ATOM      4  C   UNL     1       5.844  -0.870  -0.071  0.00  0.00    +0.123 C 
ATOM      5  N   UNL     1       4.870  -0.019  -0.025  0.00  0.00    -0.178 NA
ENDROOT
BRANCH   1   9
ATOM      6  C   UNL     1      -0.014   1.445   0.136  0.00  0.00    +0.000 A 
ATOM      7  C   UNL     1       1.178   2.148   0.130  0.00  0.00    +0.002 A 
ATOM      8  C   UNL     1       2.380   1.471   0.081  0.00  0.00    +0.025 A 
ATOM      9  C   UNL     1       2.392   0.082   0.037  0.00  0.00    +0.052 A 
ATOM     10  C   UNL     1       1.193  -0.621   0.043  0.00  0.00    +0.025 A 
ATOM     11  C   UNL     1      -0.005   0.063   0.092  0.00  0.00    +0.002 A 
ENDBRANCH   1   9
BRANCH   2  12
ATOM     12  C   UNL     1       3.113  -2.622  -1.312  0.00  0.00    +0.233 C 
ATOM     13  O   UNL     1       2.871  -1.889  -2.248  0.00  0.00    -0.274 OA
ATOM     14  N   UNL     1       2.805  -3.932  -1.386  0.00  0.00    -0.328 N 
ATOM     15  H   UNL     1       2.999  -4.519  -0.638  0.00  0.00    +0.145 HD
ATOM     16  H   UNL     1       2.390  -4.288  -2.187  0.00  0.00    +0.145 HD
ENDBRANCH   2  12
BRANCH   4  17
ATOM     17  C   UNL     1       7.266  -0.525  -0.089  0.00  0.00    +0.261 C 
ATOM     18  O   UNL     1       8.105  -1.406  -0.139  0.00  0.00    -0.269 OA
ATOM     19  N   UNL     1       7.647   0.767  -0.052  0.00  0.00    -0.301 N 
ATOM     20  H   UNL     1       6.980   1.470  -0.089  0.00  0.00    +0.150 HD
BRANCH  19  21
ATOM     21  C   UNL     1       9.068   1.109   0.045  0.00  0.00    +0.060 C 
ATOM     22  C   UNL     1       9.385   2.551  -0.385  0.00  0.00    +0.030 C 
ATOM     23  C   UNL     1       9.559   2.004  -1.811  0.00  0.00    +0.005 C 
ATOM     24  C   UNL     1       9.896   0.650  -1.166  0.00  0.00    +0.030 C 
BRANCH  21  25
ATOM     25  C   UNL     1       9.673   0.726   1.371  0.00  0.00    -0.024 A 
ATOM     26  C   UNL     1      11.047   0.701   1.522  0.00  0.00    +0.008 A 
ATOM     27  C   UNL     1      11.603   0.350   2.737  0.00  0.00    +0.038 A 
ATOM     28  C   UNL     1      10.784   0.023   3.804  0.00  0.00    +0.123 A 
ATOM     29  C   UNL     1       9.408   0.049   3.652  0.00  0.00    +0.038 A 
ATOM     30  C   UNL     1       8.854   0.405   2.437  0.00  0.00    +0.008 A 
ATOM     31  F   UNL     1      11.326  -0.320   4.993  0.00  0.00    -0.205 F 
ENDBRANCH  21  25
ENDBRANCH  19  21
ENDBRANCH   4  17
TORSDOF 5
