REMARK  Name = ZINC13221728
REMARK  8 active torsions:
REMARK  status: ('A' for Active; 'I' for Inactive)
REMARK    1  A    between atoms: C_1  and  C_2
REMARK    2  A    between atoms: C_3  and  C_24
REMARK    3  A    between atoms: C_4  and  C_23
REMARK    4  A    between atoms: C_9  and  S_11
REMARK    5  A    between atoms: S_11  and  C_12
REMARK    6  A    between atoms: C_12  and  C_13
REMARK    7  A    between atoms: N_15  and  C_16
REMARK    8  A    between atoms: C_24  and  C_25
REMARK                            x       y       z     vdW  Elec       q    Type
REMARK                         _______ _______ _______ _____ _____    ______ ____
ROOT
ATOM      1  C   UNL     1      -1.295  -0.772   0.011  0.00  0.00    +0.066 C 
ATOM      2  C   UNL     1       0.002  -0.004   0.002  0.00  0.00    +0.047 A 
ATOM      3  C   UNL     1       1.220  -0.693  -0.013  0.00  0.00    +0.006 A 
ATOM      4  C   UNL     1       2.381   0.012  -0.021  0.00  0.00    +0.049 A 
ATOM      5  N   UNL     1       2.329   1.369  -0.013  0.00  0.00    -0.200 N 
ATOM      6  C   UNL     1       1.123   2.012   0.002  0.00  0.00    +0.254 A 
ATOM      7  N   UNL     1      -0.016   1.310   0.009  0.00  0.00    -0.216 NA
ATOM      8  N   UNL     1       1.370   3.318   0.007  0.00  0.00    -0.183 NA
ATOM      9  C   UNL     1       2.685   3.526  -0.004  0.00  0.00    +0.211 A 
ATOM     10  N   UNL     1       3.312   2.367  -0.017  0.00  0.00    -0.137 NA
ATOM     11  C   UNL     1       3.709  -0.702  -0.038  0.00  0.00    +0.066 C 
ENDROOT
BRANCH   9  12
ATOM     12  S   UNL     1       3.465   5.106  -0.002  0.00  0.00    -0.075 S 
BRANCH  12  13
ATOM     13  C   UNL     1       2.081   6.279   0.017  0.00  0.00    +0.173 C 
BRANCH  13  14
ATOM     14  C   UNL     1       2.616   7.688   0.020  0.00  0.00    +0.224 C 
ATOM     15  O   UNL     1       3.814   7.881   0.010  0.00  0.00    -0.275 OA
ATOM     16  N   UNL     1       1.765   8.732   0.034  0.00  0.00    -0.312 N 
ATOM     17  H   UNL     1       0.807   8.577   0.043  0.00  0.00    +0.149 HD
BRANCH  16  18
ATOM     18  C   UNL     1       2.285  10.101   0.037  0.00  0.00    +0.073 C 
ATOM     19  C   UNL     1       2.663  10.489   1.481  0.00  0.00    +0.022 C 
ATOM     20  C   UNL     1       3.637  11.636   1.429  0.00  0.00    +0.002 C 
ATOM     21  C   UNL     1       2.942  13.005   1.548  0.00  0.00    +0.000 C 
ATOM     22  C   UNL     1       1.640  13.088   0.728  0.00  0.00    +0.000 C 
ATOM     23  C   UNL     1       1.772  12.447  -0.627  0.00  0.00    +0.002 C 
ATOM     24  C   UNL     1       1.281  10.989  -0.530  0.00  0.00    +0.022 C 
ENDBRANCH  16  18
ENDBRANCH  13  14
ENDBRANCH  12  13
ENDBRANCH   9  12
BRANCH   3  25
ATOM     25  C   UNL     1       1.243  -2.200  -0.021  0.00  0.00    +0.163 C 
BRANCH  25  26
ATOM     26  C   UNL     1       1.237  -2.695  -1.444  0.00  0.00    +0.360 C 
ATOM     27  O   UNL     1       1.216  -1.906  -2.359  0.00  0.00    -0.246 OA
ATOM     28  O   UNL     1       1.254  -4.013  -1.697  0.00  0.00    -0.246 OA
ENDBRANCH  25  26
ENDBRANCH   3  25
TORSDOF 6
