REMARK  Name = ZINC00908612
REMARK  11 active torsions:
REMARK  status: ('A' for Active; 'I' for Inactive)
REMARK    1  A    between atoms: C_1  and  C_2
REMARK    2  A    between atoms: C_2  and  C_3
REMARK    3  A    between atoms: C_10  and  C_15
REMARK    4  A    between atoms: C_15  and  C_17
REMARK    5  A    between atoms: C_15  and  N_65
REMARK    6  A    between atoms: N_21  and  C_22
REMARK    7  A    between atoms: C_22  and  C_23
REMARK    8  A    between atoms: C_22  and  C_24
REMARK    9  A    between atoms: C_22  and  C_25
REMARK   10  A    between atoms: C_25  and  C_26
REMARK   11  A    between atoms: C_29  and  C_32
REMARK                            x       y       z     vdW  Elec       q    Type
REMARK                         _______ _______ _______ _____ _____    ______ ____
ROOT
ATOM      1  C   UNL     1       5.023   1.126  -0.085  0.00  0.00    +0.039 C 
ENDROOT
BRANCH   1   9
ATOM      2  C   UNL     1      -0.960   2.618  -0.608  0.00  0.00    -0.047 A 
ATOM      3  C   UNL     1      -0.767   3.986  -0.747  0.00  0.00    +0.005 A 
ATOM      4  C   UNL     1       0.502   4.523  -0.733  0.00  0.00    +0.026 A 
ATOM      5  C   UNL     1       1.603   3.688  -0.574  0.00  0.00    +0.049 A 
ATOM      6  C   UNL     1       1.404   2.302  -0.429  0.00  0.00    -0.001 A 
ATOM      7  C   UNL     1       0.106   1.779  -0.445  0.00  0.00    +0.013 A 
ATOM      8  C   UNL     1       2.569   1.431  -0.263  0.00  0.00    +0.017 A 
ATOM      9  C   UNL     1       3.802   1.994  -0.254  0.00  0.00    +0.011 A 
ATOM     10  C   UNL     1       3.948   3.390  -0.404  0.00  0.00    +0.251 A 
ATOM     11  O   UNL     1       5.066   3.876  -0.393  0.00  0.00    -0.268 OA
ATOM     12  N   UNL     1       2.884   4.198  -0.558  0.00  0.00    -0.322 N 
ATOM     13  H   UNL     1       3.023   5.182  -0.662  0.00  0.00    +0.169 HD
BRANCH   2  15
ATOM     14  C   UNL     1      -2.920   2.026   0.791  0.00  0.00    +0.009 C 
ATOM     15  C   UNL     1      -2.357   2.054  -0.632  0.00  0.00    +0.032 C 
ENDBRANCH   2  15
ENDBRANCH   1   9
BRANCH   1  22
ATOM     16  C   UNL     1       7.239   0.701  -0.962  0.00  0.00    -0.077 C 
ATOM     17  C   UNL     1       8.223   1.085  -2.069  0.00  0.00    -0.015 C 
ATOM     18  C   UNL     1       7.652   0.655  -3.424  0.00  0.00    -0.018 C 
ATOM     19  C   UNL     1       6.287   1.318  -3.627  0.00  0.00    -0.015 C 
ATOM     20  C   UNL     1       5.359   0.927  -2.474  0.00  0.00    -0.077 C 
ATOM     21  C   UNL     1       8.603   1.090  -4.540  0.00  0.00    +0.007 C 
ATOM     22  N   UNL     1       5.953   1.390  -1.202  0.00  0.00    +0.389 N 
ATOM     23  H   UNL     1       6.123   2.401  -1.262  0.00  0.00    -0.080 HD
ENDBRANCH   1  22
BRANCH   1  24
ATOM     24  C   UNL     1       5.706   1.467   1.214  0.00  0.00    +0.143 A 
ATOM     25  N   UNL     1       6.336   2.581   1.498  0.00  0.00    -0.115 NA
ATOM     26  N   UNL     1       6.780   2.490   2.704  0.00  0.00    -0.023 NA
ATOM     27  N   UNL     1       6.450   1.347   3.197  0.00  0.00    -0.043 NA
ATOM     28  N   UNL     1       5.782   0.690   2.311  0.00  0.00    -0.225 N 
BRANCH  28  29
ATOM     29  C   UNL     1       5.215  -0.652   2.467  0.00  0.00    +0.061 C 
ATOM     30  C   UNL     1       3.707  -0.601   2.214  0.00  0.00    +0.036 C 
ATOM     31  C   UNL     1       5.869  -1.602   1.461  0.00  0.00    +0.036 C 
BRANCH  29  32
ATOM     32  C   UNL     1       5.478  -1.154   3.888  0.00  0.00    +0.026 C 
ATOM     33  C   UNL     1       4.886  -2.556   4.051  0.00  0.00    +0.006 C 
ENDBRANCH  29  32
ENDBRANCH  28  29
ENDBRANCH   1  24
TORSDOF 6
