REMARK  Name = ZINC39462455
REMARK  6 active torsions:
REMARK  status: ('A' for Active; 'I' for Inactive)
REMARK    1  A    between atoms: C_4  and  N_7
REMARK    2  A    between atoms: C_8  and  C_29
REMARK    3  A    between atoms: C_12  and  S_14
REMARK    4  A    between atoms: S_14  and  C_15
REMARK    5  A    between atoms: C_15  and  C_16
REMARK    6  A    between atoms: C_29  and  N_30
REMARK                            x       y       z     vdW  Elec       q    Type
REMARK                         _______ _______ _______ _____ _____    ______ ____
ROOT
ATOM      1  N   UNL     1       4.085  -0.676  -0.099  0.00  0.00    -0.290 N 
ATOM      2  C   UNL     1       4.285  -2.128  -0.275  0.00  0.00    +0.141 C 
ATOM      3  N   UNL     1       5.655  -2.244  -0.840  0.00  0.00    -0.236 NA
ATOM      4  N   UNL     1       6.396  -1.192  -0.126  0.00  0.00    -0.226 NA
ATOM      5  C   UNL     1       5.428  -0.077  -0.011  0.00  0.00    +0.217 C 
ATOM      6  H   UNL     1       5.652  -2.073  -1.834  0.00  0.00    +0.143 HD
ATOM      7  H   UNL     1       6.695  -1.512   0.783  0.00  0.00    +0.143 HD
ENDROOT
BRANCH   1  11
ATOM      8  C   UNL     1       0.443   1.334   0.091  0.00  0.00    +0.000 A 
ATOM      9  C   UNL     1       1.627   2.041   0.191  0.00  0.00    +0.002 A 
ATOM     10  C   UNL     1       2.837   1.378   0.128  0.00  0.00    +0.023 A 
ATOM     11  C   UNL     1       2.863  -0.002  -0.035  0.00  0.00    +0.033 A 
ATOM     12  C   UNL     1       1.672  -0.709  -0.135  0.00  0.00    +0.023 A 
ATOM     13  C   UNL     1       0.466  -0.039  -0.072  0.00  0.00    +0.002 A 
ENDBRANCH   1  11
BRANCH   5  14
ATOM     14  S   UNL     1       5.634   0.757   1.587  0.00  0.00    -0.114 S 
BRANCH  14  15
ATOM     15  C   UNL     1       5.242  -0.528   2.806  0.00  0.00    +0.146 C 
BRANCH  15  16
ATOM     16  C   UNL     1       5.286   0.064   4.191  0.00  0.00    +0.120 A 
ATOM     17  N   UNL     1       5.000  -0.743   5.246  0.00  0.00    -0.310 N 
ATOM     18  H   UNL     1       4.775  -1.674   5.092  0.00  0.00    +0.170 HD
ATOM     19  C   UNL     1       5.026  -0.260   6.510  0.00  0.00    +0.259 A 
ATOM     20  O   UNL     1       4.772  -0.972   7.465  0.00  0.00    -0.267 OA
ATOM     21  C   UNL     1       5.373   1.158   6.686  0.00  0.00    +0.066 A 
ATOM     22  C   UNL     1       5.428   1.753   7.945  0.00  0.00    +0.035 A 
ATOM     23  C   UNL     1       5.758   3.087   8.052  0.00  0.00    +0.042 A 
ATOM     24  C   UNL     1       6.036   3.839   6.916  0.00  0.00    +0.022 A 
ATOM     25  C   UNL     1       5.987   3.269   5.664  0.00  0.00    +0.030 A 
ATOM     26  C   UNL     1       5.655   1.919   5.530  0.00  0.00    +0.078 A 
ATOM     27  N   UNL     1       5.600   1.317   4.316  0.00  0.00    -0.233 NA
ATOM     28 CL   UNL     1       5.828   3.834   9.617  0.00  0.00    -0.084 Cl
ENDBRANCH  15  16
ENDBRANCH  14  15
ENDBRANCH   5  14
BRANCH   2  29
ATOM     29  C   UNL     1       4.197  -2.848   1.073  0.00  0.00    -0.039 C 
BRANCH  29  30
ATOM     30  N   UNL     1       4.288  -4.298   0.861  0.00  0.00    +0.382 N 
ATOM     31  C   UNL     1       3.112  -4.758   0.113  0.00  0.00    -0.079 C 
ATOM     32  C   UNL     1       3.242  -6.253  -0.181  0.00  0.00    -0.019 C 
ATOM     33  C   UNL     1       3.340  -7.021   1.140  0.00  0.00    -0.004 C 
ATOM     34  C   UNL     1       4.527  -6.483   1.944  0.00  0.00    -0.019 C 
ATOM     35  C   UNL     1       4.349  -4.979   2.160  0.00  0.00    -0.079 C 
ATOM     36  H   UNL     1       5.123  -4.508   0.333  0.00  0.00    -0.082 HD
ENDBRANCH  29  30
ENDBRANCH   2  29
TORSDOF 6
