REMARK  Name = ZINC17078000
REMARK  11 active torsions:
REMARK  status: ('A' for Active; 'I' for Inactive)
REMARK    1  A    between atoms: C_1  and  C_2
REMARK    2  A    between atoms: C_3  and  C_21
REMARK    3  A    between atoms: C_4  and  N_10
REMARK    4  A    between atoms: C_6  and  C_7
REMARK    5  A    between atoms: C_11  and  C_13
REMARK    6  A    between atoms: C_13  and  N_53
REMARK    7  A    between atoms: C_17  and  C_20
REMARK    8  A    between atoms: C_21  and  O_23
REMARK    9  A    between atoms: O_23  and  C_24
REMARK   10  A    between atoms: C_24  and  C_25
REMARK   11  A    between atoms: C_24  and  C_26
REMARK                            x       y       z     vdW  Elec       q    Type
REMARK                         _______ _______ _______ _____ _____    ______ ____
ROOT
ATOM      1  C   UNL     1       3.659   0.584  -1.027  0.00  0.00    +0.046 C 
ATOM      2  C   UNL     1       2.170   0.792  -0.921  0.00  0.00    -0.015 A 
ATOM      3  C   UNL     1       1.316  -0.264  -0.642  0.00  0.00    +0.091 A 
ATOM      4  C   UNL     1      -0.053   0.010  -0.560  0.00  0.00    +0.087 A 
ATOM      5  S   UNL     1      -0.126   1.714  -0.867  0.00  0.00    -0.068 S 
ATOM      6  C   UNL     1       1.614   2.030  -1.095  0.00  0.00    +0.079 A 
ENDROOT
BRANCH   6   7
ATOM      7  C   UNL     1       2.281   3.299  -1.394  0.00  0.00    +0.248 C 
ATOM      8  O   UNL     1       3.492   3.335  -1.519  0.00  0.00    -0.270 OA
ATOM      9  N   UNL     1       1.556   4.426  -1.531  0.00  0.00    -0.325 N 
ATOM     10  H   UNL     1       0.592   4.397  -1.432  0.00  0.00    +0.145 HD
ATOM     11  H   UNL     1       1.998   5.266  -1.730  0.00  0.00    +0.145 HD
ENDBRANCH   6   7
BRANCH   4  12
ATOM     12  N   UNL     1      -1.092  -0.862  -0.297  0.00  0.00    -0.281 N 
ATOM     13  C   UNL     1      -2.360  -0.407  -0.257  0.00  0.00    +0.201 C 
ATOM     14  O   UNL     1      -2.589   0.768  -0.452  0.00  0.00    -0.278 OA
ATOM     15  H   UNL     1      -0.908  -1.802  -0.141  0.00  0.00    +0.155 HD
BRANCH  13  16
ATOM     16  C   UNL     1      -3.493  -1.359   0.030  0.00  0.00    +0.019 C 
BRANCH  16  23
ATOM     17  C   UNL     1      -5.904  -1.504   0.196  0.00  0.00    -0.078 C 
ATOM     18  C   UNL     1      -7.193  -0.679   0.192  0.00  0.00    -0.018 C 
ATOM     19  C   UNL     1      -7.208   0.241   1.416  0.00  0.00    -0.001 C 
ATOM     20  C   UNL     1      -5.966   1.136   1.387  0.00  0.00    -0.031 C 
ATOM     21  C   UNL     1      -4.712   0.259   1.356  0.00  0.00    -0.075 C 
ATOM     22  C   UNL     1      -5.942   2.018   2.637  0.00  0.00    +0.005 C 
ATOM     23  N   UNL     1      -4.747  -0.585   0.142  0.00  0.00    +0.386 N 
ATOM     24  H   UNL     1      -4.840   0.021  -0.682  0.00  0.00    -0.081 HD
ENDBRANCH  16  23
ENDBRANCH  13  16
ENDBRANCH   4  12
BRANCH   3  25
ATOM     25  C   UNL     1       1.830  -1.623  -0.441  0.00  0.00    +0.342 C 
ATOM     26  O   UNL     1       1.944  -2.377  -1.389  0.00  0.00    -0.245 OA
BRANCH  25  27
ATOM     27  O   UNL     1       2.178  -2.037   0.794  0.00  0.00    -0.458 OA
BRANCH  27  28
ATOM     28  C   UNL     1       2.679  -3.394   0.919  0.00  0.00    +0.171 C 
ATOM     29  C   UNL     1       3.669  -3.467   2.084  0.00  0.00    +0.052 C 
ATOM     30  C   UNL     1       1.512  -4.347   1.181  0.00  0.00    +0.052 C 
ENDBRANCH  27  28
ENDBRANCH  25  27
ENDBRANCH   3  25
TORSDOF 7
