REMARK  Name = ZINC54619119
REMARK  6 active torsions:
REMARK  status: ('A' for Active; 'I' for Inactive)
REMARK    1  A    between atoms: C_1  and  C_2
REMARK    2  A    between atoms: C_8  and  C_13
REMARK    3  A    between atoms: C_9  and  O_12
REMARK    4  A    between atoms: C_13  and  C_15
REMARK    5  A    between atoms: C_13  and  N_20
REMARK    6  A    between atoms: N_20  and  C_21
REMARK                            x       y       z     vdW  Elec       q    Type
REMARK                         _______ _______ _______ _____ _____    ______ ____
ROOT
ATOM      1  C   UNL     1       0.086  -4.769   3.747  0.00  0.00    +0.141 C 
ENDROOT
BRANCH   1   9
ATOM      2  C   UNL     1       0.729   1.562   0.167  0.00  0.00    +0.065 C 
ATOM      3  C   UNL     1       0.572   0.064   0.121  0.00  0.00    +0.039 A 
ATOM      4  C   UNL     1       0.498  -0.574  -1.116  0.00  0.00    +0.023 A 
ATOM      5  C   UNL     1       0.355  -1.930  -1.176  0.00  0.00    +0.012 A 
ATOM      6  C   UNL     1       0.287  -2.645   0.035  0.00  0.00    +0.004 A 
ATOM      7  C   UNL     1       0.141  -4.042   0.052  0.00  0.00    +0.010 A 
ATOM      8  C   UNL     1       0.079  -4.700   1.242  0.00  0.00    +0.010 A 
ATOM      9  C   UNL     1       0.158  -4.008   2.448  0.00  0.00    +0.021 A 
ATOM     10  C   UNL     1       0.300  -2.650   2.471  0.00  0.00    +0.148 A 
ATOM     11  C   UNL     1       0.368  -1.935   1.257  0.00  0.00    +0.113 A 
ATOM     12  N   UNL     1       0.513  -0.607   1.246  0.00  0.00    -0.248 NA
BRANCH  10  13
ATOM     13  O   UNL     1       0.376  -1.992   3.657  0.00  0.00    -0.504 OA
ATOM     14  H   UNL     1       1.276  -1.893   3.996  0.00  0.00    +0.292 HD
ENDBRANCH  10  13
ENDBRANCH   1   9
BRANCH   1  15
ATOM     15  C   UNL     1      -1.343  -4.815   4.223  0.00  0.00    +0.014 A 
ATOM     16  C   UNL     1      -1.956  -4.051   5.160  0.00  0.00    +0.013 A 
ATOM     17  C   UNL     1      -3.292  -4.272   5.437  0.00  0.00    +0.008 A 
ATOM     18  C   UNL     1      -3.950  -5.247   4.763  0.00  0.00    +0.045 A 
ATOM     19  S   UNL     1      -2.671  -5.884   3.693  0.00  0.00    -0.099 S 
ENDBRANCH   1  15
BRANCH   1  20
ATOM     20  N   UNL     1       0.576  -6.134   3.541  0.00  0.00    -0.331 N 
ATOM     21  H   UNL     1       0.553  -6.529   2.655  0.00  0.00    +0.147 HD
BRANCH  20  22
ATOM     22  C   UNL     1       1.075  -6.867   4.620  0.00  0.00    +0.046 A 
ATOM     23  C   UNL     1       1.103  -6.306   5.890  0.00  0.00    +0.024 A 
ATOM     24  C   UNL     1       1.597  -7.033   6.955  0.00  0.00    +0.002 A 
ATOM     25  C   UNL     1       2.065  -8.319   6.759  0.00  0.00    +0.002 A 
ATOM     26  C   UNL     1       2.039  -8.883   5.496  0.00  0.00    +0.022 A 
ATOM     27  C   UNL     1       1.541  -8.163   4.427  0.00  0.00    +0.062 A 
ATOM     28 CL   UNL     1       1.503  -8.873   2.843  0.00  0.00    -0.082 Cl
ENDBRANCH  20  22
ENDBRANCH   1  20
TORSDOF 5
