REMARK  Name = ZINC20059144
REMARK  10 active torsions:
REMARK  status: ('A' for Active; 'I' for Inactive)
REMARK    1  A    between atoms: C_1  and  C_2
REMARK    2  A    between atoms: C_6  and  N_8
REMARK    3  A    between atoms: C_9  and  C_11
REMARK    4  A    between atoms: C_12  and  C_35
REMARK    5  A    between atoms: C_16  and  C_18
REMARK    6  A    between atoms: C_20  and  O_26
REMARK    7  A    between atoms: C_23  and  O_24
REMARK    8  A    between atoms: O_24  and  C_25
REMARK    9  A    between atoms: O_26  and  C_27
REMARK   10  A    between atoms: C_31  and  C_34
REMARK                            x       y       z     vdW  Elec       q    Type
REMARK                         _______ _______ _______ _____ _____    ______ ____
ROOT
ATOM      1  C   UNL     1       1.605   0.704   4.810  0.00  0.00    +0.043 C 
ATOM      2  C   UNL     1       0.284   0.842   5.014  0.00  0.00    +0.014 C 
ATOM      3  N   UNL     1      -0.579   0.889   3.954  0.00  0.00    -0.321 N 
ATOM      4  C   UNL     1      -0.127   1.196   2.700  0.00  0.00    +0.016 C 
ATOM      5  C   UNL     1       1.182   1.071   2.394  0.00  0.00    +0.024 C 
ATOM      6  C   UNL     1       2.171   0.589   3.425  0.00  0.00    +0.094 C 
ATOM      7  C   UNL     1       1.661   1.385   1.110  0.00  0.00    +0.162 C 
ATOM      8  O   UNL     1       2.847   1.275   0.872  0.00  0.00    -0.292 OA
ATOM      9  C   UNL     1       0.730   1.854   0.025  0.00  0.00    +0.083 C 
ATOM     10  C   UNL     1      -0.663   1.266   0.275  0.00  0.00    -0.001 C 
ATOM     11  C   UNL     1      -1.121   1.682   1.675  0.00  0.00    +0.055 C 
ATOM     12  C   UNL     1      -1.642   1.801  -0.771  0.00  0.00    +0.008 C 
ATOM     13  C   UNL     1      -0.249   0.946   6.420  0.00  0.00    +0.061 C 
ATOM     14  H   UNL     1      -1.648   0.679   4.106  0.00  0.00    +0.152 HD
ENDROOT
BRANCH   6  15
ATOM     15  C   UNL     1       2.511  -0.853   3.148  0.00  0.00    +0.010 A 
ATOM     16  C   UNL     1       1.517  -1.812   3.164  0.00  0.00    +0.053 A 
ATOM     17  C   UNL     1       1.829  -3.139   2.905  0.00  0.00    +0.121 A 
ATOM     18  C   UNL     1       3.141  -3.503   2.639  0.00  0.00    +0.049 A 
ATOM     19  C   UNL     1       4.135  -2.545   2.627  0.00  0.00    +0.049 A 
ATOM     20  C   UNL     1       3.822  -1.218   2.882  0.00  0.00    +0.124 A 
BRANCH  20  21
ATOM     21  O   UNL     1       4.801  -0.274   2.871  0.00  0.00    -0.495 OA
ATOM     22  C   UNL     1       6.129  -0.721   2.589  0.00  0.00    +0.277 C 
ENDBRANCH  20  21
BRANCH  17  23
ATOM     23  O   UNL     1       0.850  -4.082   2.917  0.00  0.00    -0.495 OA
ATOM     24  C   UNL     1       1.244  -5.429   2.646  0.00  0.00    +0.277 C 
ENDBRANCH  17  23
ENDBRANCH   6  15
BRANCH   1  26
ATOM     25  N   UNL     1       2.555  -0.443   6.684  0.00  0.00    -0.267 N 
ATOM     26  C   UNL     1       2.480   0.666   5.923  0.00  0.00    +0.248 C 
ATOM     27  O   UNL     1       3.164   1.637   6.193  0.00  0.00    -0.270 OA
ATOM     28  H   UNL     1       2.003  -1.349   6.392  0.00  0.00    +0.157 HD
BRANCH  25  34
ATOM     29  C   UNL     1       5.287   2.023   9.748  0.00  0.00    +0.065 C 
ATOM     30  C   UNL     1       4.652   0.721   9.332  0.00  0.00    +0.040 A 
ATOM     31  C   UNL     1       4.854  -0.411  10.097  0.00  0.00    +0.023 A 
ATOM     32  C   UNL     1       4.266  -1.607   9.709  0.00  0.00    +0.005 A 
ATOM     33  C   UNL     1       3.493  -1.621   8.562  0.00  0.00    +0.044 A 
ATOM     34  C   UNL     1       3.331  -0.443   7.841  0.00  0.00    +0.125 A 
ATOM     35  N   UNL     1       3.913   0.677   8.241  0.00  0.00    -0.237 NA
ENDBRANCH  25  34
ENDBRANCH   1  26
TORSDOF 5
