REMARK  Name = ZINC10539889
REMARK  8 active torsions:
REMARK  status: ('A' for Active; 'I' for Inactive)
REMARK    1  A    between atoms: C_1  and  O_2
REMARK    2  A    between atoms: O_2  and  C_3
REMARK    3  A    between atoms: C_6  and  C_9
REMARK    4  A    between atoms: C_9  and  C_27
REMARK    5  A    between atoms: N_12  and  C_16
REMARK    6  A    between atoms: C_16  and  C_17
REMARK    7  A    between atoms: C_30  and  O_33
REMARK    8  A    between atoms: O_33  and  C_34
REMARK                            x       y       z     vdW  Elec       q    Type
REMARK                         _______ _______ _______ _____ _____    ______ ____
ROOT
ATOM      1  C   UNL     1       1.419  -0.406  -0.014  0.00  0.00    +0.164 C 
ATOM      2  C   UNL     1       2.560   0.283   0.709  0.00  0.00    +0.256 C 
ATOM      3  O   UNL     1       3.515  -0.243   1.238  0.00  0.00    -0.272 OA
ATOM      4  N   UNL     1       2.291   1.602   0.640  0.00  0.00    -0.219 N 
ATOM      5  C   UNL     1       1.151   1.839  -0.019  0.00  0.00    +0.310 C 
ATOM      6  O   UNL     1       0.702   2.952  -0.213  0.00  0.00    -0.252 OA
ATOM      7  N   UNL     1       0.559   0.709  -0.446  0.00  0.00    -0.278 N 
ATOM      8  H   UNL     1      -0.272   0.641  -0.943  0.00  0.00    +0.152 HD
ENDROOT
BRANCH   1  12
ATOM      9  C   UNL     1      -0.700  -2.994   2.646  0.00  0.00    +0.120 A 
ATOM     10  C   UNL     1       0.684  -3.056   2.572  0.00  0.00    +0.046 A 
ATOM     11  C   UNL     1       1.367  -2.218   1.712  0.00  0.00    +0.010 A 
ATOM     12  C   UNL     1       0.672  -1.319   0.924  0.00  0.00    -0.011 A 
ATOM     13  C   UNL     1      -0.707  -1.252   0.999  0.00  0.00    +0.010 A 
ATOM     14  C   UNL     1      -1.395  -2.092   1.854  0.00  0.00    +0.046 A 
BRANCH   9  16
ATOM     15  C   UNL     1      -2.797  -3.699   3.515  0.00  0.00    +0.277 C 
ATOM     16  O   UNL     1      -1.374  -3.817   3.492  0.00  0.00    -0.495 OA
ENDBRANCH   9  16
ENDBRANCH   1  12
BRANCH   1  17
ATOM     17  C   UNL     1       1.933  -1.173  -1.205  0.00  0.00    -0.011 A 
ATOM     18  C   UNL     1       2.961  -2.084  -1.049  0.00  0.00    +0.010 A 
ATOM     19  C   UNL     1       3.430  -2.792  -2.138  0.00  0.00    +0.046 A 
ATOM     20  C   UNL     1       2.876  -2.580  -3.392  0.00  0.00    +0.120 A 
ATOM     21  C   UNL     1       1.848  -1.661  -3.548  0.00  0.00    +0.046 A 
ATOM     22  C   UNL     1       1.379  -0.960  -2.454  0.00  0.00    +0.010 A 
BRANCH  20  23
ATOM     23  O   UNL     1       3.339  -3.271  -4.467  0.00  0.00    -0.495 OA
ATOM     24  C   UNL     1       4.399  -4.200  -4.233  0.00  0.00    +0.277 C 
ENDBRANCH  20  23
ENDBRANCH   1  17
BRANCH   4  25
ATOM     25  C   UNL     1       3.142   2.647   1.215  0.00  0.00    +0.155 C 
BRANCH  25  26
ATOM     26  C   UNL     1       2.712   2.922   2.633  0.00  0.00    -0.004 A 
ATOM     27  C   UNL     1       1.931   4.001   2.913  0.00  0.00    +0.007 A 
ATOM     28  C   UNL     1       1.517   4.270   4.215  0.00  0.00    +0.001 A 
ATOM     29  C   UNL     1       1.893   3.466   5.248  0.00  0.00    +0.010 A 
ATOM     30  C   UNL     1       2.703   2.348   4.997  0.00  0.00    +0.001 A 
ATOM     31  C   UNL     1       3.120   2.068   3.672  0.00  0.00    +0.076 A 
ATOM     32  N   UNL     1       3.890   1.003   3.428  0.00  0.00    -0.255 NA
ATOM     33  C   UNL     1       4.274   0.204   4.394  0.00  0.00    +0.111 A 
ATOM     34  C   UNL     1       3.900   0.422   5.718  0.00  0.00    +0.020 A 
ATOM     35  C   UNL     1       3.113   1.491   6.037  0.00  0.00    +0.011 A 
ENDBRANCH  25  26
ENDBRANCH   4  25
TORSDOF 6
