REMARK  Name = ZINC00144000
REMARK  8 active torsions:
REMARK  status: ('A' for Active; 'I' for Inactive)
REMARK    1  A    between atoms: C_1  and  C_2
REMARK    2  A    between atoms: C_5  and  C_25
REMARK    3  A    between atoms: C_6  and  O_8
REMARK    4  A    between atoms: O_8  and  C_9
REMARK    5  A    between atoms: C_14  and  O_20
REMARK    6  A    between atoms: O_20  and  C_21
REMARK    7  A    between atoms: C_21  and  O_23
REMARK    8  A    between atoms: O_23  and  C_24
REMARK                            x       y       z     vdW  Elec       q    Type
REMARK                         _______ _______ _______ _____ _____    ______ ____
ROOT
ATOM      1  C   UNL     1       1.374   2.145   4.693  0.00  0.00    +0.210 A 
ATOM      2  C   UNL     1       1.972   1.696   3.571  0.00  0.00    +0.245 A 
ATOM      3  O   UNL     1       3.270   1.369   3.523  0.00  0.00    -0.459 OA
ATOM      4  C   UNL     1       4.080   1.465   4.596  0.00  0.00    +0.142 A 
ATOM      5  C   UNL     1       5.421   1.117   4.512  0.00  0.00    +0.093 A 
ATOM      6  C   UNL     1       6.229   1.223   5.631  0.00  0.00    +0.139 A 
ATOM      7  C   UNL     1       5.710   1.678   6.841  0.00  0.00    +0.047 A 
ATOM      8  C   UNL     1       4.392   2.025   6.940  0.00  0.00    +0.019 A 
ATOM      9  C   UNL     1       3.564   1.923   5.822  0.00  0.00    +0.068 A 
ATOM     10  C   UNL     1       2.139   2.291   5.886  0.00  0.00    +0.234 A 
ATOM     11  O   UNL     1       1.633   2.698   6.918  0.00  0.00    -0.283 OA
ENDROOT
BRANCH   1  12
ATOM     12  O   UNL     1       0.051   2.462   4.685  0.00  0.00    -0.449 OA
BRANCH  12  18
ATOM     13  C   UNL     1      -1.874   4.013   0.476  0.00  0.00    +0.044 C 
ATOM     14  C   UNL     1      -1.621   2.924   1.486  0.00  0.00    -0.047 A 
ATOM     15  C   UNL     1      -2.119   1.652   1.271  0.00  0.00    +0.004 A 
ATOM     16  C   UNL     1      -1.884   0.649   2.193  0.00  0.00    +0.007 A 
ATOM     17  C   UNL     1      -1.159   0.918   3.338  0.00  0.00    -0.008 A 
ATOM     18  C   UNL     1      -0.662   2.195   3.559  0.00  0.00    +0.132 A 
ATOM     19  C   UNL     1      -0.895   3.198   2.629  0.00  0.00    +0.050 A 
ATOM     20  C   UNL     1      -0.907  -0.174   4.346  0.00  0.00    +0.047 C 
ENDBRANCH  12  18
ENDBRANCH   1  12
BRANCH   6  21
ATOM     21  O   UNL     1       7.541   0.881   5.548  0.00  0.00    -0.395 OA
BRANCH  21  22
ATOM     22  C   UNL     1       8.362   1.752   4.931  0.00  0.00    +0.515 C 
ATOM     23  O   UNL     1       7.905   2.744   4.400  0.00  0.00    -0.202 OA
BRANCH  22  24
ATOM     24  O   UNL     1       9.687   1.522   4.902  0.00  0.00    -0.437 OA
ATOM     25  C   UNL     1      10.511   2.504   4.219  0.00  0.00    +0.284 C 
ENDBRANCH  22  24
ENDBRANCH  21  22
ENDBRANCH   6  21
TORSDOF 5
