REMARK  Name = ZINC41499744
REMARK  7 active torsions:
REMARK  status: ('A' for Active; 'I' for Inactive)
REMARK    1  A    between atoms: C_1  and  C_2
REMARK    2  A    between atoms: C_2  and  C_3
REMARK    3  A    between atoms: C_2  and  C_4
REMARK    4  A    between atoms: C_6  and  C_17
REMARK    5  A    between atoms: N_8  and  C_9
REMARK    6  A    between atoms: C_17  and  C_18
REMARK    7  A    between atoms: C_18  and  N_19
REMARK                            x       y       z     vdW  Elec       q    Type
REMARK                         _______ _______ _______ _____ _____    ______ ____
ROOT
ATOM      1  C   UNL     1      -1.383  -0.590   0.032  0.00  0.00    +0.048 A 
ATOM      2  C   UNL     1      -2.467  -0.010   0.597  0.00  0.00    +0.048 A 
ATOM      3  C   UNL     1      -3.577  -0.818   0.329  0.00  0.00    +0.062 A 
ATOM      4  N   UNL     1      -3.175  -1.847  -0.373  0.00  0.00    -0.171 NA
ATOM      5  N   UNL     1      -1.794  -1.724  -0.579  0.00  0.00    -0.236 N 
ENDROOT
BRANCH   5   6
ATOM      6  C   UNL     1      -0.983  -2.620  -1.289  0.00  0.00    +0.067 A 
ATOM      7  C   UNL     1       0.258  -2.986  -0.783  0.00  0.00    +0.029 A 
ATOM      8  C   UNL     1       1.056  -3.869  -1.484  0.00  0.00    +0.023 A 
ATOM      9  C   UNL     1       0.621  -4.389  -2.690  0.00  0.00    +0.059 A 
ATOM     10  C   UNL     1      -0.616  -4.026  -3.197  0.00  0.00    +0.061 A 
ATOM     11  C   UNL     1      -1.421  -3.147  -2.496  0.00  0.00    +0.049 A 
ATOM     12 CL   UNL     1      -1.158  -4.680  -4.711  0.00  0.00    -0.082 Cl
ATOM     13 CL   UNL     1       1.627  -5.497  -3.569  0.00  0.00    -0.082 Cl
ENDBRANCH   5   6
BRANCH   1  15
ATOM     14  C   UNL     1       0.007   1.462  -0.047  0.00  0.00    +0.014 C 
ATOM     15  C   UNL     1       0.029  -0.063   0.070  0.00  0.00    +0.032 C 
ATOM     16  C   UNL     1       0.688  -0.464   1.391  0.00  0.00    +0.014 C 
ENDBRANCH   1  15
BRANCH   3  17
ATOM     17  C   UNL     1      -4.992  -0.551   0.772  0.00  0.00    +0.038 C 
BRANCH  17  18
ATOM     18  C   UNL     1      -5.917  -0.553  -0.446  0.00  0.00    -0.080 C 
BRANCH  18  19
ATOM     19  N   UNL     1      -7.297  -0.292  -0.014  0.00  0.00    +0.378 N 
ATOM     20  H   UNL     1      -7.907  -0.294  -0.818  0.00  0.00    -0.090 HD
ATOM     21  H   UNL     1      -7.589  -1.011   0.631  0.00  0.00    -0.090 HD
ATOM     22  H   UNL     1      -7.342   0.607   0.441  0.00  0.00    -0.090 HD
ENDBRANCH  18  19
ENDBRANCH  17  18
ENDBRANCH   3  17
TORSDOF 5
