REMARK  Name = ZINC08826474
REMARK  10 active torsions:
REMARK  status: ('A' for Active; 'I' for Inactive)
REMARK    1  A    between atoms: C_3  and  N_9
REMARK    2  A    between atoms: C_10  and  C_12
REMARK    3  A    between atoms: C_12  and  O_13
REMARK    4  A    between atoms: O_13  and  C_14
REMARK    5  A    between atoms: C_14  and  C_16
REMARK    6  A    between atoms: C_16  and  N_17
REMARK    7  A    between atoms: N_17  and  S_18
REMARK    8  A    between atoms: S_18  and  C_21
REMARK    9  A    between atoms: C_24  and  N_30
REMARK   10  A    between atoms: C_25  and  N_27
REMARK                            x       y       z     vdW  Elec       q    Type
REMARK                         _______ _______ _______ _____ _____    ______ ____
ROOT
ATOM      1  C   UNL     1       4.864   0.722   0.007  0.00  0.00    +0.226 C 
ENDROOT
BRANCH   1   2
ATOM      2  C   UNL     1       3.654   1.618   0.063  0.00  0.00    +0.323 C 
ATOM      3  O   UNL     1       3.792   2.818   0.113  0.00  0.00    -0.249 OA
BRANCH   2   4
ATOM      4  O   UNL     1       2.422   1.085   0.058  0.00  0.00    -0.454 OA
BRANCH   4   5
ATOM      5  C   UNL     1       1.303   2.008   0.115  0.00  0.00    +0.328 C 
BRANCH   5   7
ATOM      6  N   UNL     1      -1.167   1.886   0.140  0.00  0.00    -0.281 N 
ATOM      7  C   UNL     1       0.011   1.233   0.100  0.00  0.00    +0.255 C 
ATOM      8  O   UNL     1       0.031   0.021   0.048  0.00  0.00    -0.272 OA
ATOM      9  H   UNL     1      -1.184   2.851   0.241  0.00  0.00    +0.155 HD
BRANCH   6  12
ATOM     10  C   UNL     1      -3.603  -0.865   0.312  0.00  0.00    +0.040 A 
ATOM     11  C   UNL     1      -2.418  -0.162   0.415  0.00  0.00    +0.027 A 
ATOM     12  C   UNL     1      -2.368   1.172   0.036  0.00  0.00    +0.052 A 
ATOM     13  C   UNL     1      -3.512   1.800  -0.442  0.00  0.00    +0.065 A 
ATOM     14  C   UNL     1      -4.694   1.092  -0.548  0.00  0.00    +0.060 A 
ATOM     15  C   UNL     1      -4.741  -0.239  -0.168  0.00  0.00    +0.125 A 
ATOM     16  F   UNL     1      -5.899  -0.928  -0.268  0.00  0.00    -0.205 F 
ATOM     17 CL   UNL     1      -3.455   3.471  -0.910  0.00  0.00    -0.082 Cl
ENDBRANCH   6  12
ENDBRANCH   5   7
ENDBRANCH   4   5
ENDBRANCH   2   4
ENDBRANCH   1   2
BRANCH   1  18
ATOM     18  N   UNL     1       6.079   1.540   0.024  0.00  0.00    -0.179 NA
ATOM     19  H   UNL     1       6.025   2.493  -0.151  0.00  0.00    +0.149 HD
BRANCH  18  20
ATOM     20  S   UNL     1       7.545   0.839   0.344  0.00  0.00    +0.059 S 
ATOM     21  O   UNL     1       8.516   1.873   0.263  0.00  0.00    -0.153 OA
ATOM     22  O   UNL     1       7.370   0.048   1.512  0.00  0.00    -0.153 OA
BRANCH  20  23
ATOM     23  C   UNL     1       7.887  -0.278  -0.975  0.00  0.00    +0.108 A 
ATOM     24  C   UNL     1       7.475  -1.595  -0.888  0.00  0.00    +0.030 A 
ATOM     25  C   UNL     1       7.737  -2.472  -1.922  0.00  0.00    +0.027 A 
ATOM     26  C   UNL     1       8.425  -2.032  -3.046  0.00  0.00    +0.055 A 
ATOM     27  C   UNL     1       8.843  -0.710  -3.127  0.00  0.00    +0.149 A 
ATOM     28  C   UNL     1       8.572   0.163  -2.092  0.00  0.00    +0.063 A 
BRANCH  27  29
ATOM     29  N   UNL     1       9.576  -0.237  -4.323  0.00  0.00    +0.058 N 
ATOM     30  O   UNL     1      10.019   0.897  -4.356  0.00  0.00    -0.126 OA
ATOM     31  O   UNL     1       9.736  -0.981  -5.274  0.00  0.00    -0.126 OA
ENDBRANCH  27  29
BRANCH  26  32
ATOM     32  N   UNL     1       8.697  -2.918  -4.091  0.00  0.00    -0.356 N 
ATOM     33  H   UNL     1       8.750  -3.871  -3.918  0.00  0.00    +0.142 HD
ATOM     34  H   UNL     1       8.834  -2.580  -4.990  0.00  0.00    +0.142 HD
ENDBRANCH  26  32
ENDBRANCH  20  23
ENDBRANCH  18  20
ENDBRANCH   1  18
TORSDOF 10
