REMARK  Name = ZINC13611120
REMARK  4 active torsions:
REMARK  status: ('A' for Active; 'I' for Inactive)
REMARK    1  A    between atoms: C_1  and  C_2
REMARK    2  A    between atoms: C_5  and  N_8
REMARK    3  A    between atoms: C_12  and  C_16
REMARK    4  A    between atoms: C_17  and  C_33
REMARK                            x       y       z     vdW  Elec       q    Type
REMARK                         _______ _______ _______ _____ _____    ______ ____
ROOT
ATOM      1  C   UNL     1      -1.022  -7.067   1.368  0.00  0.00    +0.051 A 
ATOM      2  C   UNL     1      -0.967  -8.161   2.155  0.00  0.00    +0.039 A 
ATOM      3  N   UNL     1      -2.238  -8.488   2.531  0.00  0.00    -0.292 N 
ATOM      4  H   UNL     1      -2.490  -9.233   3.099  0.00  0.00    +0.187 HD
ATOM      5  N   UNL     1      -3.116  -7.561   1.954  0.00  0.00    -0.186 N 
ATOM      6  C   UNL     1      -2.378  -6.684   1.244  0.00  0.00    +0.278 A 
ATOM      7  O   UNL     1      -2.802  -5.734   0.610  0.00  0.00    -0.265 OA
ATOM      8  C   UNL     1      -4.493  -7.545   2.091  0.00  0.00    +0.232 A 
ATOM      9  N   UNL     1      -5.217  -8.439   2.826  0.00  0.00    -0.322 N 
ATOM     10  H   UNL     1      -4.864  -9.186   3.335  0.00  0.00    +0.169 HD
ATOM     11  C   UNL     1      -6.550  -8.082   2.709  0.00  0.00    +0.068 A 
ATOM     12  C   UNL     1      -7.732  -8.599   3.217  0.00  0.00    +0.028 A 
ATOM     13  C   UNL     1      -8.934  -7.996   2.907  0.00  0.00    +0.002 A 
ATOM     14  C   UNL     1      -8.968  -6.876   2.090  0.00  0.00    +0.002 A 
ATOM     15  C   UNL     1      -7.804  -6.350   1.577  0.00  0.00    +0.030 A 
ATOM     16  C   UNL     1      -6.579  -6.948   1.881  0.00  0.00    +0.091 A 
ATOM     17  N   UNL     1      -5.293  -6.668   1.542  0.00  0.00    -0.211 NA
ATOM     18  C   UNL     1       0.287  -8.897   2.553  0.00  0.00    +0.065 C 
ENDROOT
BRANCH   1  23
ATOM     19  N   UNL     1       0.059  -4.172  -0.021  0.00  0.00    -0.210 N 
ATOM     20  C   UNL     1      -0.030  -4.892  -1.146  0.00  0.00    +0.227 C 
ATOM     21  O   UNL     1      -0.134  -4.436  -2.265  0.00  0.00    -0.275 OA
ATOM     22  C   UNL     1       0.020  -6.364  -0.801  0.00  0.00    +0.114 C 
ATOM     23  C   UNL     1       0.155  -6.371   0.735  0.00  0.00    +0.122 C 
ATOM     24  C   UNL     1       0.172  -4.902   1.096  0.00  0.00    +0.234 C 
ATOM     25  O   UNL     1       0.271  -4.455   2.219  0.00  0.00    -0.274 OA
BRANCH  19  30
ATOM     26  C   UNL     1      -0.016   1.503   0.009  0.00  0.00    +0.044 C 
ATOM     27  C   UNL     1       0.004  -0.004   0.001  0.00  0.00    -0.050 A 
ATOM     28  C   UNL     1       1.156  -0.681   0.357  0.00  0.00    +0.005 A 
ATOM     29  C   UNL     1       1.177  -2.062   0.351  0.00  0.00    +0.024 A 
ATOM     30  C   UNL     1       0.040  -2.771  -0.013  0.00  0.00    +0.044 A 
ATOM     31  C   UNL     1      -1.115  -2.088  -0.370  0.00  0.00    +0.024 A 
ATOM     32  C   UNL     1      -1.132  -0.707  -0.357  0.00  0.00    +0.005 A 
ENDBRANCH  19  30
ENDBRANCH   1  23
TORSDOF 2
