REMARK  Name = ZINC13500564
REMARK  14 active torsions:
REMARK  status: ('A' for Active; 'I' for Inactive)
REMARK    1  A    between atoms: C_1  and  C_2
REMARK    2  A    between atoms: C_4  and  C_34
REMARK    3  A    between atoms: C_9  and  C_14
REMARK    4  A    between atoms: C_14  and  N_69
REMARK    5  A    between atoms: C_15  and  C_16
REMARK    6  A    between atoms: C_15  and  N_69
REMARK    7  A    between atoms: C_16  and  C_17
REMARK    8  A    between atoms: C_17  and  O_18
REMARK    9  A    between atoms: C_19  and  C_21
REMARK   10  A    between atoms: C_19  and  C_31
REMARK   11  A    between atoms: C_19  and  N_69
REMARK   12  A    between atoms: N_25  and  C_26
REMARK   13  A    between atoms: C_31  and  C_32
REMARK   14  A    between atoms: C_31  and  C_33
REMARK                            x       y       z     vdW  Elec       q    Type
REMARK                         _______ _______ _______ _____ _____    ______ ____
ROOT
ATOM      1  N   UNL     1      -1.607   8.227  -1.510  0.00  0.00    +0.389 N 
ATOM      2  H   UNL     1      -1.099   7.772  -2.277  0.00  0.00    -0.080 HD
ENDROOT
BRANCH   1   3
ATOM      3  C   UNL     1      -1.268   7.548  -0.241  0.00  0.00    -0.037 C 
BRANCH   3  12
ATOM      4  C   UNL     1       2.377   1.243  -1.847  0.00  0.00    +0.044 C 
ATOM      5  C   UNL     1       1.102   1.977  -1.520  0.00  0.00    -0.050 A 
ATOM      6  C   UNL     1      -0.094   1.276  -1.435  0.00  0.00    +0.008 A 
ATOM      7  C   UNL     1      -1.272   1.928  -1.143  0.00  0.00    -0.026 A 
ATOM      8  C   UNL     1      -1.264   3.301  -0.919  0.00  0.00    +0.052 A 
ATOM      9  C   UNL     1      -0.050   4.008  -1.007  0.00  0.00    -0.001 A 
ATOM     10  C   UNL     1       1.133   3.326  -1.311  0.00  0.00    +0.013 A 
ATOM     11  C   UNL     1      -0.053   5.454  -0.776  0.00  0.00    +0.017 A 
ATOM     12  C   UNL     1      -1.230   6.061  -0.485  0.00  0.00    +0.001 A 
ATOM     13  C   UNL     1      -2.420   5.306  -0.408  0.00  0.00    +0.251 A 
ATOM     14  O   UNL     1      -3.467   5.871  -0.145  0.00  0.00    -0.268 OA
ATOM     15  N   UNL     1      -2.427   3.978  -0.619  0.00  0.00    -0.322 N 
ATOM     16  H   UNL     1      -3.263   3.489  -0.559  0.00  0.00    +0.169 HD
ATOM     17  C   UNL     1      -2.563   1.156  -1.059  0.00  0.00    +0.046 C 
ENDBRANCH   3  12
ENDBRANCH   1   3
BRANCH   1  18
ATOM     18  C   UNL     1      -3.059   8.122  -1.766  0.00  0.00    -0.075 C 
BRANCH  18  19
ATOM     19  C   UNL     1      -3.354   8.664  -3.166  0.00  0.00    +0.009 C 
BRANCH  19  20
ATOM     20  C   UNL     1      -4.825   8.419  -3.509  0.00  0.00    +0.154 C 
BRANCH  20  21
ATOM     21  O   UNL     1      -5.100   8.925  -4.816  0.00  0.00    -0.395 OA
ATOM     22  H   UNL     1      -6.017   8.804  -5.100  0.00  0.00    +0.209 HD
ENDBRANCH  20  21
ENDBRANCH  19  20
ENDBRANCH  18  19
ENDBRANCH   1  18
BRANCH   1  23
ATOM     23  C   UNL     1      -1.208   9.648  -1.444  0.00  0.00    +0.006 C 
BRANCH  23  24
ATOM     24  C   UNL     1      -1.397  10.184  -0.049  0.00  0.00    +0.139 A 
ATOM     25  N   UNL     1      -0.918   9.671   1.058  0.00  0.00    -0.115 NA
ATOM     26  N   UNL     1      -1.297  10.416   2.039  0.00  0.00    -0.023 NA
ATOM     27  N   UNL     1      -2.005  11.391   1.586  0.00  0.00    -0.044 NA
ATOM     28  N   UNL     1      -2.085  11.286   0.302  0.00  0.00    -0.228 N 
BRANCH  28  29
ATOM     29  C   UNL     1      -2.794  12.194  -0.602  0.00  0.00    +0.111 C 
ATOM     30  C   UNL     1      -2.246  13.628  -0.449  0.00  0.00    +0.027 C 
ATOM     31  C   UNL     1      -3.497  14.530  -0.595  0.00  0.00    +0.002 C 
ATOM     32  C   UNL     1      -4.593  13.718   0.139  0.00  0.00    +0.002 C 
ATOM     33  C   UNL     1      -4.286  12.251  -0.229  0.00  0.00    +0.027 C 
ENDBRANCH  28  29
ENDBRANCH  23  24
BRANCH  23  34
ATOM     34  C   UNL     1       0.267   9.759  -1.838  0.00  0.00    -0.024 C 
ATOM     35  C   UNL     1       1.113   8.909  -0.888  0.00  0.00    +0.006 C 
ATOM     36  C   UNL     1       0.451   9.258  -3.272  0.00  0.00    +0.006 C 
ENDBRANCH  23  34
ENDBRANCH   1  23
TORSDOF 10
