REMARK  Name = ZINC09008308
REMARK  16 active torsions:
REMARK  status: ('A' for Active; 'I' for Inactive)
REMARK    1  A    between atoms: C_1  and  C_2
REMARK    2  A    between atoms: C_2  and  N_67
REMARK    3  A    between atoms: C_3  and  C_4
REMARK    4  A    between atoms: C_3  and  N_67
REMARK    5  A    between atoms: C_5  and  C_6
REMARK    6  A    between atoms: C_5  and  N_67
REMARK    7  A    between atoms: C_6  and  N_7
REMARK    8  A    between atoms: C_8  and  C_29
REMARK    9  A    between atoms: C_11  and  C_12
REMARK   10  A    between atoms: C_11  and  O_24
REMARK   11  A    between atoms: C_13  and  C_23
REMARK   12  A    between atoms: C_14  and  C_19
REMARK   13  A    between atoms: C_17  and  C_18
REMARK   14  A    between atoms: C_19  and  O_21
REMARK   15  A    between atoms: O_21  and  C_22
REMARK   16  A    between atoms: C_32  and  C_35
REMARK                            x       y       z     vdW  Elec       q    Type
REMARK                         _______ _______ _______ _____ _____    ______ ____
ROOT
ATOM      1  N   UNL     1      -2.783  -6.256  -1.876  0.00  0.00    -0.285 N 
ATOM      2  C   UNL     1      -3.227  -6.130  -0.485  0.00  0.00    +0.144 C 
ATOM      3  C   UNL     1      -2.698  -4.808   0.020  0.00  0.00    +0.071 C 
ATOM      4  C   UNL     1      -2.874  -4.269   1.282  0.00  0.00    +0.135 C 
ATOM      5  C   UNL     1      -1.987  -4.240  -1.045  0.00  0.00    +0.249 C 
ATOM      6  O   UNL     1      -1.407  -3.169  -1.026  0.00  0.00    -0.282 OA
ATOM      7  C   UNL     1      -2.064  -5.170  -2.204  0.00  0.00    +0.288 C 
ATOM      8  O   UNL     1      -1.551  -4.976  -3.287  0.00  0.00    -0.266 OA
ENDROOT
BRANCH   4   9
ATOM      9  C   UNL     1      -2.283  -2.966   1.613  0.00  0.00    +0.041 A 
ATOM     10  C   UNL     1      -2.983  -1.755   1.829  0.00  0.00    -0.008 A 
ATOM     11  C   UNL     1      -2.050  -0.800   2.109  0.00  0.00    +0.128 A 
ATOM     12  N   UNL     1      -0.803  -1.385   2.066  0.00  0.00    -0.352 N 
ATOM     13  H   UNL     1       0.038  -0.928   2.225  0.00  0.00    +0.166 HD
ATOM     14  C   UNL     1      -0.934  -2.689   1.774  0.00  0.00    +0.024 A 
ATOM     15  C   UNL     1       0.192  -3.680   1.638  0.00  0.00    +0.064 C 
ATOM     16  C   UNL     1      -4.475  -1.558   1.762  0.00  0.00    +0.047 C 
BRANCH  11  17
ATOM     17  C   UNL     1      -2.327   0.611   2.400  0.00  0.00    +0.356 C 
ATOM     18  O   UNL     1      -3.473   1.018   2.399  0.00  0.00    -0.243 OA
BRANCH  17  19
ATOM     19  O   UNL     1      -1.311   1.457   2.662  0.00  0.00    -0.463 OA
ATOM     20  C   UNL     1      -1.659   2.839   2.941  0.00  0.00    +0.280 C 
ENDBRANCH  17  19
ENDBRANCH  11  17
ENDBRANCH   4   9
BRANCH   2  21
ATOM     21  C   UNL     1      -2.669  -7.259   0.343  0.00  0.00    -0.022 A 
ATOM     22  C   UNL     1      -1.381  -7.710   0.118  0.00  0.00    +0.006 A 
ATOM     23  C   UNL     1      -0.868  -8.743   0.880  0.00  0.00    +0.004 A 
ATOM     24  C   UNL     1      -1.645  -9.331   1.861  0.00  0.00    -0.050 A 
ATOM     25  C   UNL     1      -2.934  -8.883   2.082  0.00  0.00    +0.004 A 
ATOM     26  C   UNL     1      -3.446  -7.848   1.323  0.00  0.00    +0.006 A 
ATOM     27  C   UNL     1      -1.086 -10.460   2.688  0.00  0.00    +0.044 C 
ENDBRANCH   2  21
BRANCH   4  28
ATOM     28  O   UNL     1      -3.590  -4.941   2.208  0.00  0.00    -0.506 OA
ATOM     29  H   UNL     1      -3.617  -4.413   3.057  0.00  0.00    +0.292 HD
ENDBRANCH   4  28
BRANCH   1  30
ATOM     30  C   UNL     1      -3.071  -7.386  -2.763  0.00  0.00    +0.090 C 
BRANCH  30  31
ATOM     31  C   UNL     1      -1.970  -8.439  -2.622  0.00  0.00    -0.060 C 
BRANCH  31  32
ATOM     32  N   UNL     1      -2.286  -9.581  -3.506  0.00  0.00    +0.380 N 
ATOM     33  H   UNL     1      -3.248  -9.890  -3.321  0.00  0.00    -0.082 HD
BRANCH  32  35
ATOM     34  C   UNL     1      -0.763  -8.677  -5.231  0.00  0.00    -0.017 C 
ATOM     35  C   UNL     1      -2.179  -9.168  -4.922  0.00  0.00    -0.082 C 
ENDBRANCH  32  35
BRANCH  32  36
ATOM     36  C   UNL     1      -1.361 -10.701  -3.235  0.00  0.00    -0.082 C 
ATOM     37  C   UNL     1      -1.923 -11.970  -3.879  0.00  0.00    -0.017 C 
ENDBRANCH  32  36
ENDBRANCH  31  32
ENDBRANCH  30  31
ENDBRANCH   1  30
TORSDOF 10
