REMARK  Name = ZINC05376979
REMARK  2 active torsions:
REMARK  status: ('A' for Active; 'I' for Inactive)
REMARK    1  A    between atoms: C_10  and  N_11
REMARK    2  A    between atoms: C_17  and  C_18
REMARK                            x       y       z     vdW  Elec       q    Type
REMARK                         _______ _______ _______ _____ _____    ______ ____
ROOT
ATOM      1  N   UNL     1      -0.545   1.782  -1.367  0.00  0.00    -0.225 NA
ATOM      2  C   UNL     1      -0.507   0.467  -1.390  0.00  0.00    +0.166 C 
ATOM      3  N   UNL     1      -1.557  -0.421  -1.319  0.00  0.00    -0.260 N 
ATOM      4  C   UNL     1      -1.342  -1.726  -1.358  0.00  0.00    +0.256 C 
ATOM      5  O   UNL     1      -2.258  -2.524  -1.297  0.00  0.00    -0.269 OA
ATOM      6  C   UNL     1       0.062  -2.168  -1.479  0.00  0.00    +0.078 C 
ATOM      7  C   UNL     1       0.566  -3.426  -1.540  0.00  0.00    +0.028 C 
ATOM      8  S   UNL     1       0.918  -0.600  -1.530  0.00  0.00    -0.049 S 
ATOM      9  H   UNL     1      -2.465  -0.087  -1.240  0.00  0.00    +0.157 HD
ENDROOT
BRANCH   1  19
ATOM     10  C   UNL     1       1.270   5.596  -4.191  0.00  0.00    +0.001 A 
ATOM     11  C   UNL     1       0.071   4.887  -4.205  0.00  0.00    +0.001 A 
ATOM     12  C   UNL     1      -0.160   3.885  -3.310  0.00  0.00    +0.010 A 
ATOM     13  C   UNL     1       0.819   3.564  -2.363  0.00  0.00    +0.008 A 
ATOM     14  C   UNL     1       2.039   4.283  -2.346  0.00  0.00    -0.016 A 
ATOM     15  C   UNL     1       2.244   5.310  -3.284  0.00  0.00    +0.008 A 
ATOM     16  C   UNL     1       3.020   3.958  -1.394  0.00  0.00    +0.008 A 
ATOM     17  C   UNL     1       2.807   2.961  -0.491  0.00  0.00    +0.003 A 
ATOM     18  C   UNL     1       1.626   2.233  -0.468  0.00  0.00    +0.028 A 
ATOM     19  C   UNL     1       0.615   2.498  -1.384  0.00  0.00    +0.074 A 
ENDBRANCH   1  19
BRANCH   7  20
ATOM     20  C   UNL     1       1.990  -3.633  -1.841  0.00  0.00    -0.021 A 
ATOM     21  C   UNL     1       2.749  -2.598  -2.398  0.00  0.00    +0.008 A 
ATOM     22  C   UNL     1       4.085  -2.797  -2.674  0.00  0.00    +0.003 A 
ATOM     23  C   UNL     1       4.674  -4.022  -2.413  0.00  0.00    +0.038 A 
ATOM     24  C   UNL     1       3.929  -5.056  -1.867  0.00  0.00    +0.124 A 
ATOM     25  C   UNL     1       2.591  -4.869  -1.580  0.00  0.00    +0.046 A 
ATOM     26  F   UNL     1       4.513  -6.248  -1.615  0.00  0.00    -0.205 F 
ENDBRANCH   7  20
TORSDOF 2
