REMARK  Name = ZINC01773385
REMARK  9 active torsions:
REMARK  status: ('A' for Active; 'I' for Inactive)
REMARK    1  A    between atoms: C_1  and  C_2
REMARK    2  A    between atoms: C_5  and  O_8
REMARK    3  A    between atoms: O_8  and  C_9
REMARK    4  A    between atoms: C_9  and  C_10
REMARK    5  A    between atoms: C_10  and  C_11
REMARK    6  A    between atoms: C_11  and  C_12
REMARK    7  A    between atoms: N_14  and  C_15
REMARK    8  A    between atoms: C_16  and  C_26
REMARK    9  A    between atoms: C_21  and  C_25
REMARK                            x       y       z     vdW  Elec       q    Type
REMARK                         _______ _______ _______ _____ _____    ______ ____
ROOT
ATOM      1  C   UNL     1       0.124  -8.495   2.194  0.00  0.00    +0.218 C 
ATOM      2  O   UNL     1       0.125  -8.952   1.071  0.00  0.00    -0.275 OA
ATOM      3  N   UNL     1       0.141  -9.322   3.258  0.00  0.00    -0.279 N 
ATOM      4  H   UNL     1       0.140  -8.956   4.157  0.00  0.00    +0.155 HD
ENDROOT
BRANCH   3   5
ATOM      5  C   UNL     1       0.157 -10.695   3.069  0.00  0.00    +0.084 A 
ATOM      6  C   UNL     1       0.170 -11.688   4.035  0.00  0.00    +0.068 A 
ATOM      7  C   UNL     1       0.186 -13.065   3.573  0.00  0.00    -0.023 A 
ATOM      8  C   UNL     1       0.189 -13.196   2.229  0.00  0.00    -0.004 A 
ATOM      9  S   UNL     1       0.160 -11.537   1.616  0.00  0.00    -0.077 S 
ATOM     10  C   UNL     1       0.206 -14.475   1.450  0.00  0.00    +0.046 C 
ATOM     11  C   UNL     1       0.602 -15.614   2.401  0.00  0.00    -0.009 C 
ATOM     12  C   UNL     1      -0.236 -15.507   3.678  0.00  0.00    +0.008 C 
ATOM     13  C   UNL     1       0.200 -14.282   4.486  0.00  0.00    +0.037 C 
ATOM     14  C   UNL     1       0.340 -16.961   1.725  0.00  0.00    +0.008 C 
BRANCH   6  15
ATOM     15  C   UNL     1       0.166 -11.363   5.465  0.00  0.00    +0.244 C 
ATOM     16  O   UNL     1      -0.890 -11.241   6.059  0.00  0.00    -0.270 OA
ATOM     17  N   UNL     1       1.331 -11.199   6.122  0.00  0.00    -0.325 N 
ATOM     18  H   UNL     1       2.172 -11.296   5.649  0.00  0.00    +0.145 HD
ATOM     19  H   UNL     1       1.329 -10.984   7.068  0.00  0.00    +0.145 HD
ENDBRANCH   6  15
ENDBRANCH   3   5
BRANCH   1  20
ATOM     20  C   UNL     1       0.106  -7.002   2.400  0.00  0.00    +0.099 C 
BRANCH  20  21
ATOM     21  C   UNL     1       0.090  -6.300   1.040  0.00  0.00    +0.050 C 
BRANCH  21  22
ATOM     22  C   UNL     1       0.072  -4.785   1.249  0.00  0.00    +0.229 C 
BRANCH  22  23
ATOM     23  O   UNL     1       0.057  -4.129  -0.021  0.00  0.00    -0.492 OA
BRANCH  23  28
ATOM     24  C   UNL     1      -0.018   1.503   0.010  0.00  0.00    +0.044 C 
ATOM     25  C   UNL     1       0.002  -0.004   0.002  0.00  0.00    -0.050 A 
ATOM     26  C   UNL     1       0.006  -0.688  -1.200  0.00  0.00    +0.007 A 
ATOM     27  C   UNL     1       0.024  -2.069  -1.210  0.00  0.00    +0.046 A 
ATOM     28  C   UNL     1       0.039  -2.770  -0.013  0.00  0.00    +0.121 A 
ATOM     29  C   UNL     1       0.036  -2.082   1.191  0.00  0.00    +0.046 A 
ATOM     30  C   UNL     1       0.023  -0.701   1.196  0.00  0.00    +0.007 A 
ENDBRANCH  23  28
ENDBRANCH  22  23
ENDBRANCH  21  22
ENDBRANCH  20  21
ENDBRANCH   1  20
TORSDOF 7
