REMARK  Name = ZINC22064027
REMARK  8 active torsions:
REMARK  status: ('A' for Active; 'I' for Inactive)
REMARK    1  A    between atoms: C_1  and  C_2
REMARK    2  A    between atoms: C_11  and  O_13
REMARK    3  A    between atoms: O_13  and  C_14
REMARK    4  A    between atoms: C_16  and  N_29
REMARK    5  A    between atoms: C_18  and  O_28
REMARK    6  A    between atoms: C_20  and  O_27
REMARK    7  A    between atoms: C_22  and  C_25
REMARK    8  A    between atoms: C_25  and  O_26
REMARK                            x       y       z     vdW  Elec       q    Type
REMARK                         _______ _______ _______ _____ _____    ______ ____
ROOT
ATOM      1  C   UNL     1       0.002  -0.004   0.002  0.00  0.00    +0.296 C 
ATOM      2  C   UNL     1       0.693  -0.497  -1.272  0.00  0.00    +0.026 C 
ATOM      3  C   UNL     1       2.108   0.087  -1.334  0.00  0.00    +0.137 C 
ATOM      4  C   UNL     1       2.022   1.615  -1.273  0.00  0.00    +0.173 C 
ATOM      5  C   UNL     1       1.279   2.026   0.001  0.00  0.00    +0.178 C 
ATOM      6  O   UNL     1      -0.017   1.425   0.010  0.00  0.00    -0.335 OA
ENDROOT
BRANCH   2   7
ATOM      7  N   UNL     1      -0.071  -0.057  -2.447  0.00  0.00    +0.386 N 
ATOM      8  H   UNL     1       0.426  -0.411  -3.362  0.00  0.00    -0.089 HD
ATOM      9  H   UNL     1      -0.123   1.042  -2.460  0.00  0.00    -0.089 HD
ATOM     10  H   UNL     1      -1.089  -0.471  -2.398  0.00  0.00    -0.089 HD
ENDBRANCH   2   7
BRANCH   4  11
ATOM     11  O   UNL     1       3.339   2.168  -1.259  0.00  0.00    -0.387 OA
ATOM     12  H   UNL     1       3.478   3.258  -1.217  0.00  0.00    +0.210 HD
ENDBRANCH   4  11
BRANCH   3  13
ATOM     13  O   UNL     1       2.873  -0.395  -0.227  0.00  0.00    -0.391 OA
ATOM     14  H   UNL     1       3.920  -0.081  -0.104  0.00  0.00    +0.210 HD
ENDBRANCH   3  13
BRANCH   1  15
ATOM     15  O   UNL     1       0.717  -0.477   1.145  0.00  0.00    -0.465 OA
BRANCH  15  26
ATOM     16  C   UNL     1      -3.073   0.882   6.252  0.00  0.00    +0.045 C 
ATOM     17  C   UNL     1      -1.724   0.225   6.123  0.00  0.00    -0.033 A 
ATOM     18  C   UNL     1      -1.057  -0.220   7.219  0.00  0.00    +0.096 A 
ATOM     19  C   UNL     1       0.205  -0.833   7.072  0.00  0.00    +0.337 A 
ATOM     20  O   UNL     1       0.792  -1.227   8.064  0.00  0.00    -0.245 OA
ATOM     21  O   UNL     1       0.775  -0.993   5.868  0.00  0.00    -0.422 OA
ATOM     22  C   UNL     1       0.166  -0.573   4.738  0.00  0.00    +0.143 A 
ATOM     23  C   UNL     1      -1.096   0.047   4.812  0.00  0.00    +0.021 A 
ATOM     24  C   UNL     1      -1.731   0.483   3.644  0.00  0.00    +0.015 A 
ATOM     25  C   UNL     1      -1.123   0.306   2.434  0.00  0.00    +0.046 A 
ATOM     26  C   UNL     1       0.126  -0.307   2.356  0.00  0.00    +0.127 A 
ATOM     27  C   UNL     1       0.766  -0.750   3.501  0.00  0.00    +0.092 A 
ENDBRANCH  15  26
ENDBRANCH   1  15
BRANCH   5  28
ATOM     28  C   UNL     1       1.136   3.549   0.039  0.00  0.00    +0.190 C 
BRANCH  28  29
ATOM     29  O   UNL     1       0.546   3.941   1.280  0.00  0.00    -0.392 OA
ATOM     30  H   UNL     1       0.363   5.005   1.491  0.00  0.00    +0.210 HD
ENDBRANCH  28  29
ENDBRANCH   5  28
TORSDOF 7
