REMARK  Name = ZINC03315732
REMARK  10 active torsions:
REMARK  status: ('A' for Active; 'I' for Inactive)
REMARK    1  A    between atoms: C_1  and  C_2
REMARK    2  A    between atoms: C_2  and  O_3
REMARK    3  A    between atoms: O_3  and  C_4
REMARK    4  A    between atoms: C_4  and  C_6
REMARK    5  A    between atoms: C_6  and  C_7
REMARK    6  A    between atoms: C_13  and  C_15
REMARK    7  A    between atoms: C_15  and  S_16
REMARK    8  A    between atoms: S_16  and  C_17
REMARK    9  A    between atoms: C_20  and  C_28
REMARK   10  A    between atoms: N_21  and  C_22
REMARK                            x       y       z     vdW  Elec       q    Type
REMARK                         _______ _______ _______ _____ _____    ______ ____
ROOT
ATOM      1  C   UNL     1      -4.064   1.851   0.031  0.00  0.00    +0.197 A 
ATOM      2  N   UNL     1      -4.012   3.164   0.038  0.00  0.00    -0.122 NA
ATOM      3  N   UNL     1      -5.199   3.655   0.045  0.00  0.00    -0.128 NA
ATOM      4  C   UNL     1      -6.086   2.686   0.044  0.00  0.00    +0.169 A 
ATOM      5  N   UNL     1      -5.387   1.499   0.030  0.00  0.00    -0.270 N 
ENDROOT
BRANCH   4   6
ATOM      6  C   UNL     1      -7.556   2.840   0.052  0.00  0.00    +0.020 A 
ATOM      7  C   UNL     1      -8.373   1.751   0.357  0.00  0.00    +0.013 A 
ATOM      8  C   UNL     1      -9.744   1.902   0.367  0.00  0.00    +0.021 A 
ATOM      9  C   UNL     1     -10.310   3.129   0.065  0.00  0.00    +0.041 A 
ATOM     10  C   UNL     1      -9.505   4.212  -0.244  0.00  0.00    +0.021 A 
ATOM     11  C   UNL     1      -8.133   4.075  -0.253  0.00  0.00    +0.013 A 
ATOM     12 CL   UNL     1     -12.037   3.310   0.073  0.00  0.00    -0.084 Cl
ENDBRANCH   4   6
BRANCH   5  13
ATOM     13  C   UNL     1      -5.918   0.202   0.019  0.00  0.00    +0.051 A 
ATOM     14  C   UNL     1      -6.658  -0.237  -1.070  0.00  0.00    +0.026 A 
ATOM     15  C   UNL     1      -7.177  -1.517  -1.081  0.00  0.00    +0.002 A 
ATOM     16  C   UNL     1      -6.969  -2.357  -0.002  0.00  0.00    +0.000 A 
ATOM     17  C   UNL     1      -6.237  -1.921   1.087  0.00  0.00    +0.002 A 
ATOM     18  C   UNL     1      -5.711  -0.644   1.101  0.00  0.00    +0.026 A 
ENDBRANCH   5  13
BRANCH   1  19
ATOM     19  S   UNL     1      -2.689   0.750   0.019  0.00  0.00    -0.076 S 
BRANCH  19  20
ATOM     20  C   UNL     1      -1.330   1.944   0.019  0.00  0.00    +0.173 C 
BRANCH  20  27
ATOM     21  C   UNL     1       4.634   0.918  -0.037  0.00  0.00    +0.061 A 
ATOM     22  C   UNL     1       4.435  -0.422  -0.043  0.00  0.00    +0.072 A 
ATOM     23  S   UNL     1       2.649  -0.492  -0.026  0.00  0.00    -0.060 S 
ATOM     24  C   UNL     1       2.357   1.220  -0.014  0.00  0.00    +0.165 A 
ATOM     25  N   UNL     1       3.580   1.711  -0.028  0.00  0.00    -0.229 NA
ATOM     26  N   UNL     1       1.143   1.898   0.001  0.00  0.00    -0.264 N 
ATOM     27  C   UNL     1      -0.014   1.209   0.009  0.00  0.00    +0.229 C 
ATOM     28  O   UNL     1       0.002  -0.004   0.002  0.00  0.00    -0.275 OA
ATOM     29  H   UNL     1       1.130   2.868   0.007  0.00  0.00    +0.157 HD
BRANCH  21  30
ATOM     30  C   UNL     1       6.029   1.490  -0.046  0.00  0.00    +0.176 C 
BRANCH  30  31
ATOM     31  C   UNL     1       6.174   2.441  -1.206  0.00  0.00    +0.313 C 
ATOM     32  O   UNL     1       5.241   2.635  -1.949  0.00  0.00    -0.250 OA
BRANCH  31  33
ATOM     33  O   UNL     1       7.340   3.073  -1.414  0.00  0.00    -0.465 OA
BRANCH  33  35
ATOM     34  C   UNL     1       8.803   4.597  -2.624  0.00  0.00    +0.048 C 
ATOM     35  C   UNL     1       7.407   3.975  -2.550  0.00  0.00    +0.229 C 
ENDBRANCH  33  35
ENDBRANCH  31  33
ENDBRANCH  30  31
ENDBRANCH  21  30
ENDBRANCH  20  27
ENDBRANCH  19  20
ENDBRANCH   1  19
TORSDOF 9
