REMARK  Name = ZINC39722636
REMARK  11 active torsions:
REMARK  status: ('A' for Active; 'I' for Inactive)
REMARK    1  A    between atoms: C_1  and  C_2
REMARK    2  A    between atoms: C_2  and  C_3
REMARK    3  A    between atoms: C_3  and  C_4
REMARK    4  A    between atoms: C_4  and  N_5
REMARK    5  A    between atoms: C_6  and  S_21
REMARK    6  A    between atoms: C_11  and  C_17
REMARK    7  A    between atoms: C_17  and  O_19
REMARK    8  A    between atoms: O_19  and  C_20
REMARK    9  A    between atoms: S_21  and  C_22
REMARK   10  A    between atoms: C_22  and  C_23
REMARK   11  A    between atoms: C_31  and  C_35
REMARK                            x       y       z     vdW  Elec       q    Type
REMARK                         _______ _______ _______ _____ _____    ______ ____
ROOT
ATOM      1  N   UNL     1       1.425  -2.500  -2.470  0.00  0.00    -0.270 N 
ATOM      2  C   UNL     1       0.652  -2.737  -3.690  0.00  0.00    +0.222 C 
ATOM      3  N   UNL     1       1.466  -2.438  -4.874  0.00  0.00    -0.317 N 
ATOM      4  C   UNL     1       2.786  -2.875  -4.908  0.00  0.00    +0.042 A 
ATOM      5  C   UNL     1       3.422  -3.173  -6.100  0.00  0.00    +0.038 A 
ATOM      6  C   UNL     1       4.750  -3.597  -6.085  0.00  0.00    +0.061 A 
ATOM      7  C   UNL     1       5.436  -3.718  -4.872  0.00  0.00    +0.016 A 
ATOM      8  C   UNL     1       4.804  -3.425  -3.683  0.00  0.00    +0.016 A 
ATOM      9  C   UNL     1       3.475  -3.007  -3.690  0.00  0.00    +0.058 A 
ATOM     10  C   UNL     1       2.757  -2.703  -2.438  0.00  0.00    +0.250 C 
ATOM     11  O   UNL     1       3.361  -2.640  -1.385  0.00  0.00    -0.270 OA
ATOM     12  H   UNL     1       1.089  -1.946  -5.620  0.00  0.00    +0.149 HD
ENDROOT
BRANCH   6  13
ATOM     13  C   UNL     1       5.437  -3.918  -7.356  0.00  0.00    +0.339 C 
ATOM     14  O   UNL     1       4.843  -3.814  -8.410  0.00  0.00    -0.245 OA
BRANCH  13  15
ATOM     15  O   UNL     1       6.720  -4.327  -7.343  0.00  0.00    -0.464 OA
ATOM     16  C   UNL     1       7.320  -4.621  -8.606  0.00  0.00    +0.280 C 
ENDBRANCH  13  15
ENDBRANCH   6  13
BRANCH   1  17
ATOM     17  C   UNL     1       0.739  -2.027  -1.265  0.00  0.00    +0.111 C 
BRANCH  17  18
ATOM     18  C   UNL     1       0.718  -0.497  -1.257  0.00  0.00    +0.019 C 
BRANCH  18  20
ATOM     19  C   UNL     1      -0.019   1.526   0.010  0.00  0.00    +0.004 C 
ATOM     20  C   UNL     1       0.002  -0.004   0.002  0.00  0.00    -0.002 C 
ENDBRANCH  18  20
ENDBRANCH  17  18
ENDBRANCH   1  17
BRANCH   2  21
ATOM     21  S   UNL     1       0.136  -4.476  -3.745  0.00  0.00    -0.111 S 
BRANCH  21  22
ATOM     22  C   UNL     1       1.698  -5.398  -3.732  0.00  0.00    +0.146 C 
BRANCH  22  23
ATOM     23  C   UNL     1       1.408  -6.876  -3.775  0.00  0.00    +0.120 A 
ATOM     24  N   UNL     1       2.458  -7.739  -3.767  0.00  0.00    -0.310 N 
ATOM     25  H   UNL     1       3.364  -7.393  -3.734  0.00  0.00    +0.170 HD
ATOM     26  C   UNL     1       2.251  -9.076  -3.804  0.00  0.00    +0.259 A 
ATOM     27  O   UNL     1       3.182  -9.860  -3.797  0.00  0.00    -0.267 OA
ATOM     28  C   UNL     1       0.856  -9.545  -3.853  0.00  0.00    +0.065 A 
ATOM     29  C   UNL     1       0.538 -10.902  -3.893  0.00  0.00    +0.016 A 
ATOM     30  C   UNL     1      -0.769 -11.294  -3.937  0.00  0.00    +0.016 A 
ATOM     31  C   UNL     1      -1.798 -10.343  -3.942  0.00  0.00    +0.065 A 
ATOM     32  C   UNL     1      -1.503  -8.984  -3.903  0.00  0.00    +0.043 A 
ATOM     33  C   UNL     1      -0.169  -8.574  -3.858  0.00  0.00    +0.079 A 
ATOM     34  N   UNL     1       0.169  -7.260  -3.813  0.00  0.00    -0.233 NA
BRANCH  31  35
ATOM     35  C   UNL     1      -3.207 -10.786  -3.990  0.00  0.00    +0.387 C 
ATOM     36  O   UNL     1      -3.472 -11.979  -4.025  0.00  0.00    -0.241 OA
ATOM     37  O   UNL     1      -4.108  -9.960  -3.995  0.00  0.00    -0.241 OA
ENDBRANCH  31  35
ENDBRANCH  22  23
ENDBRANCH  21  22
ENDBRANCH   2  21
TORSDOF 9
