REMARK  Name = ZINC23483476
REMARK  15 active torsions:
REMARK  status: ('A' for Active; 'I' for Inactive)
REMARK    1  A    between atoms: C_1  and  C_2
REMARK    2  A    between atoms: C_2  and  C_3
REMARK    3  A    between atoms: C_3  and  C_5
REMARK    4  A    between atoms: C_3  and  N_34
REMARK    5  A    between atoms: C_8  and  S_17
REMARK    6  A    between atoms: N_9  and  C_10
REMARK    7  A    between atoms: C_10  and  C_11
REMARK    8  A    between atoms: S_17  and  C_18
REMARK    9  A    between atoms: C_18  and  C_19
REMARK   10  A    between atoms: C_19  and  C_20
REMARK   11  A    between atoms: C_20  and  N_21
REMARK   12  A    between atoms: N_28  and  C_29
REMARK   13  A    between atoms: N_30  and  C_33
REMARK   14  A    between atoms: N_34  and  C_35
REMARK   15  A    between atoms: N_34  and  C_36
REMARK                            x       y       z     vdW  Elec       q    Type
REMARK                         _______ _______ _______ _____ _____    ______ ____
ROOT
ATOM      1  C   UNL     1      -2.155  -0.301   2.001  0.00  0.00    +0.121 A 
ATOM      2  N   UNL     1      -2.433   0.091   3.212  0.00  0.00    -0.135 NA
ATOM      3  N   UNL     1      -3.035   1.226   3.181  0.00  0.00    -0.123 NA
ATOM      4  C   UNL     1      -3.171   1.625   1.938  0.00  0.00    +0.192 A 
ATOM      5  N   UNL     1      -2.610   0.665   1.146  0.00  0.00    -0.303 N 
ENDROOT
BRANCH   1   6
ATOM      6  C   UNL     1      -1.460  -1.580   1.613  0.00  0.00    +0.000 C 
BRANCH   6   7
ATOM      7  N   UNL     1      -2.317  -2.725   1.949  0.00  0.00    +0.383 N 
ATOM      8  C   UNL     1      -1.788  -3.967   1.369  0.00  0.00    -0.096 C 
ATOM      9  C   UNL     1      -2.481  -2.851   3.404  0.00  0.00    -0.096 C 
ATOM     10  H   UNL     1      -3.310  -2.543   1.512  0.00  0.00    -0.082 HD
ENDBRANCH   6   7
BRANCH   6  12
ATOM     11  C   UNL     1       0.811  -0.583   1.917  0.00  0.00    +0.002 C 
ATOM     12  C   UNL     1      -0.138  -1.693   2.375  0.00  0.00    -0.011 C 
ENDBRANCH   6  12
ENDBRANCH   1   6
BRANCH   5  13
ATOM     13  C   UNL     1      -2.520   0.666  -0.316  0.00  0.00    +0.160 C 
BRANCH  13  14
ATOM     14  C   UNL     1      -1.280   1.409  -0.742  0.00  0.00    -0.028 A 
ATOM     15  C   UNL     1      -0.119   0.712  -1.024  0.00  0.00    +0.005 A 
ATOM     16  C   UNL     1       1.017   1.393  -1.421  0.00  0.00    +0.000 A 
ATOM     17  C   UNL     1       0.994   2.771  -1.530  0.00  0.00    +0.000 A 
ATOM     18  C   UNL     1      -0.165   3.468  -1.243  0.00  0.00    +0.000 A 
ATOM     19  C   UNL     1      -1.301   2.787  -0.846  0.00  0.00    +0.005 A 
ENDBRANCH  13  14
ENDBRANCH   5  13
BRANCH   4  20
ATOM     20  S   UNL     1      -3.933   3.118   1.394  0.00  0.00    -0.086 S 
BRANCH  20  21
ATOM     21  C   UNL     1      -4.409   3.827   2.990  0.00  0.00    +0.079 C 
BRANCH  21  22
ATOM     22  C   UNL     1      -5.110   5.168   2.764  0.00  0.00    +0.033 C 
BRANCH  22  23
ATOM     23  C   UNL     1      -5.513   5.767   4.113  0.00  0.00    +0.131 C 
BRANCH  23  24
ATOM     24  N   UNL     1      -6.184   7.051   3.896  0.00  0.00    -0.259 N 
ATOM     25  C   UNL     1      -7.523   7.083   3.733  0.00  0.00    +0.282 A 
ATOM     26  O   UNL     1      -8.172   6.052   3.767  0.00  0.00    -0.265 OA
ATOM     27  C   UNL     1      -8.163   8.323   3.525  0.00  0.00    +0.151 A 
ATOM     28  C   UNL     1      -7.399   9.482   3.492  0.00  0.00    +0.168 A 
ATOM     29  N   UNL     1      -8.235  10.502   3.283  0.00  0.00    -0.218 NA
ATOM     30  C   UNL     1      -9.462  10.057   3.184  0.00  0.00    +0.202 A 
ATOM     31  N   UNL     1      -9.472   8.717   3.327  0.00  0.00    -0.328 N 
ATOM     32  C   UNL     1     -10.647   7.844   3.279  0.00  0.00    +0.150 C 
ATOM     33  N   UNL     1      -6.028   9.384   3.666  0.00  0.00    -0.280 N 
ATOM     34  C   UNL     1      -5.457   8.182   3.867  0.00  0.00    +0.333 A 
ATOM     35  O   UNL     1      -4.253   8.116   4.022  0.00  0.00    -0.246 OA
ATOM     36  C   UNL     1      -5.199  10.592   3.636  0.00  0.00    +0.155 C 
ENDBRANCH  23  24
ENDBRANCH  22  23
ENDBRANCH  21  22
ENDBRANCH  20  21
ENDBRANCH   4  20
TORSDOF 10
