REMARK  Name = ZINC46483487
REMARK  4 active torsions:
REMARK  status: ('A' for Active; 'I' for Inactive)
REMARK    1  A    between atoms: C_13  and  C_15
REMARK    2  A    between atoms: C_15  and  C_16
REMARK    3  A    between atoms: C_16  and  N_17
REMARK    4  A    between atoms: N_20  and  C_21
REMARK                            x       y       z     vdW  Elec       q    Type
REMARK                         _______ _______ _______ _____ _____    ______ ____
ROOT
ATOM      1  N   UNL     1      -0.507  -6.388   2.892  0.00  0.00    -0.299 N 
ATOM      2  C   UNL     1      -1.177  -7.177   3.755  0.00  0.00    +0.300 C 
ATOM      3  O   UNL     1      -1.865  -6.679   4.625  0.00  0.00    -0.253 OA
ATOM      4  N   UNL     1      -1.085  -8.518   3.654  0.00  0.00    -0.294 N 
ATOM      5  H   UNL     1       0.042  -6.786   2.197  0.00  0.00    +0.150 HD
ATOM      6  H   UNL     1      -0.536  -8.915   2.959  0.00  0.00    +0.151 HD
ENDROOT
BRANCH   4   7
ATOM      7  C   UNL     1      -1.813  -9.375   4.592  0.00  0.00    +0.037 C 
ATOM      8  C   UNL     1      -3.314  -9.098   4.477  0.00  0.00    +0.029 C 
ATOM      9  C   UNL     1      -4.075  -9.994   5.457  0.00  0.00    -0.008 C 
ATOM     10  C   UNL     1      -3.800 -11.462   5.125  0.00  0.00    +0.007 C 
ATOM     11  C   UNL     1      -2.300 -11.739   5.240  0.00  0.00    -0.008 C 
ATOM     12  C   UNL     1      -1.539 -10.843   4.260  0.00  0.00    +0.029 C 
ATOM     13  C   UNL     1      -1.835 -11.443   6.667  0.00  0.00    +0.007 C 
ATOM     14  C   UNL     1      -2.110  -9.975   6.999  0.00  0.00    -0.008 C 
ATOM     15  C   UNL     1      -3.610  -9.698   6.884  0.00  0.00    +0.007 C 
ATOM     16  C   UNL     1      -1.349  -9.079   6.019  0.00  0.00    +0.029 C 
ENDBRANCH   4   7
BRANCH   1  17
ATOM     17  C   UNL     1      -0.607  -4.931   3.002  0.00  0.00    +0.115 C 
BRANCH  17  18
ATOM     18  C   UNL     1       0.243  -4.277   1.911  0.00  0.00    +0.114 C 
BRANCH  18  29
ATOM     19  C   UNL     1      -0.019   1.525   0.010  0.00  0.00    +0.002 C 
ATOM     20  C   UNL     1       1.419   2.050  -0.001  0.00  0.00    +0.003 C 
ATOM     21  C   UNL     1       2.145   1.552   1.250  0.00  0.00    +0.033 C 
ATOM     22  C   UNL     1       2.158   0.027   1.271  0.00  0.00    +0.139 C 
ATOM     23  C   UNL     1       0.728  -0.519   1.248  0.00  0.00    +0.105 C 
ATOM     24  C   UNL     1       0.002  -0.004   0.002  0.00  0.00    +0.025 C 
ATOM     25  N   UNL     1       0.810  -1.990   1.161  0.00  0.00    -0.294 N 
ATOM     26  C   UNL     1       1.650  -2.565   0.097  0.00  0.00    +0.136 C 
ATOM     27  C   UNL     1       3.031  -1.904   0.153  0.00  0.00    +0.179 C 
ATOM     28  O   UNL     1       2.867  -0.482   0.142  0.00  0.00    -0.373 OA
ATOM     29  C   UNL     1       0.140  -2.778   2.024  0.00  0.00    +0.217 C 
ATOM     30  O   UNL     1      -0.546  -2.281   2.892  0.00  0.00    -0.276 OA
ENDBRANCH  18  29
ENDBRANCH  17  18
ENDBRANCH   1  17
TORSDOF 4
