REMARK  Name = ZINC62498186
REMARK  8 active torsions:
REMARK  status: ('A' for Active; 'I' for Inactive)
REMARK    1  A    between atoms: C_1  and  C_2
REMARK    2  A    between atoms: C_5  and  C_9
REMARK    3  A    between atoms: C_6  and  C_8
REMARK    4  A    between atoms: C_9  and  C_10
REMARK    5  A    between atoms: N_13  and  C_22
REMARK    6  A    between atoms: C_16  and  O_21
REMARK    7  A    between atoms: C_22  and  C_23
REMARK    8  A    between atoms: C_23  and  O_24
REMARK                            x       y       z     vdW  Elec       q    Type
REMARK                         _______ _______ _______ _____ _____    ______ ____
ROOT
ATOM      1  C   UNL     1      -1.370  -4.804   0.109  0.00  0.00    +0.195 C 
ATOM      2  C   UNL     1      -1.344  -6.336   0.220  0.00  0.00    +0.150 C 
ATOM      3  N   UNL     1      -2.740  -6.801   0.294  0.00  0.00    -0.321 N 
ATOM      4  C   UNL     1      -3.676  -6.194  -0.558  0.00  0.00    +0.076 A 
ATOM      5  C   UNL     1      -4.922  -6.771  -0.743  0.00  0.00    +0.072 A 
ATOM      6  C   UNL     1      -5.845  -6.166  -1.583  0.00  0.00    +0.119 A 
ATOM      7  C   UNL     1      -5.519  -4.986  -2.234  0.00  0.00    +0.049 A 
ATOM      8  C   UNL     1      -4.276  -4.411  -2.052  0.00  0.00    +0.051 A 
ATOM      9  C   UNL     1      -3.348  -5.011  -1.215  0.00  0.00    +0.142 A 
ATOM     10  O   UNL     1      -2.125  -4.436  -1.048  0.00  0.00    -0.485 OA
ENDROOT
BRANCH   6  11
ATOM     11  O   UNL     1      -7.069  -6.730  -1.767  0.00  0.00    -0.507 OA
ATOM     12  H   UNL     1      -7.739  -6.429  -1.139  0.00  0.00    +0.292 HD
ENDBRANCH   6  11
BRANCH   1  13
ATOM     13  C   UNL     1       0.059  -4.275  -0.021  0.00  0.00    +0.081 C 
BRANCH  13  18
ATOM     14  C   UNL     1      -0.018   1.503   0.010  0.00  0.00    +0.044 C 
ATOM     15  C   UNL     1       0.002  -0.004   0.002  0.00  0.00    -0.050 A 
ATOM     16  C   UNL     1       0.006  -0.689  -1.199  0.00  0.00    +0.003 A 
ATOM     17  C   UNL     1       0.025  -2.071  -1.207  0.00  0.00    +0.004 A 
ATOM     18  C   UNL     1       0.040  -2.768  -0.013  0.00  0.00    -0.041 A 
ATOM     19  C   UNL     1       0.037  -2.084   1.188  0.00  0.00    -0.047 A 
ATOM     20  C   UNL     1       0.023  -0.702   1.195  0.00  0.00    +0.007 A 
ATOM     21  C   UNL     1       0.054  -2.845   2.489  0.00  0.00    +0.044 C 
ENDBRANCH  13  18
ENDBRANCH   1  13
BRANCH   3  22
ATOM     22  C   UNL     1      -3.137  -7.860   1.224  0.00  0.00    +0.133 C 
BRANCH  22  23
ATOM     23  C   UNL     1      -3.552  -7.238   2.559  0.00  0.00    +0.174 C 
BRANCH  23  24
ATOM     24  O   UNL     1      -4.724  -6.443   2.370  0.00  0.00    -0.393 OA
ATOM     25  H   UNL     1      -5.044  -6.017   3.176  0.00  0.00    +0.209 HD
ENDBRANCH  23  24
ENDBRANCH  22  23
ENDBRANCH   3  22
TORSDOF 6
