REMARK  Name = ZINC24066623
REMARK  9 active torsions:
REMARK  status: ('A' for Active; 'I' for Inactive)
REMARK    1  A    between atoms: C_1  and  C_2
REMARK    2  A    between atoms: C_5  and  N_9
REMARK    3  A    between atoms: C_10  and  C_12
REMARK    4  A    between atoms: C_12  and  S_13
REMARK    5  A    between atoms: S_13  and  C_14
REMARK    6  A    between atoms: C_14  and  C_15
REMARK    7  A    between atoms: C_15  and  O_16
REMARK    8  A    between atoms: O_16  and  C_17
REMARK    9  A    between atoms: C_22  and  C_23
REMARK                            x       y       z     vdW  Elec       q    Type
REMARK                         _______ _______ _______ _____ _____    ______ ____
ROOT
ATOM      1  N   UNL     1       0.057  -4.171  -0.023  0.00  0.00    -0.284 N 
ATOM      2  C   UNL     1      -0.042  -4.839  -1.189  0.00  0.00    +0.227 C 
ATOM      3  O   UNL     1      -0.055  -4.230  -2.238  0.00  0.00    -0.275 OA
ATOM      4  H   UNL     1       0.149  -4.660   0.810  0.00  0.00    +0.155 HD
ENDROOT
BRANCH   1   9
ATOM      5  C   UNL     1      -0.063   1.502   0.016  0.00  0.00    +0.044 C 
ATOM      6  C   UNL     1      -0.031  -0.005   0.006  0.00  0.00    -0.049 A 
ATOM      7  C   UNL     1      -0.622  -0.701  -1.033  0.00  0.00    +0.005 A 
ATOM      8  C   UNL     1      -0.594  -2.081  -1.045  0.00  0.00    +0.024 A 
ATOM      9  C   UNL     1       0.028  -2.771  -0.013  0.00  0.00    +0.047 A 
ATOM     10  C   UNL     1       0.621  -2.070   1.029  0.00  0.00    +0.039 A 
ATOM     11  C   UNL     1       0.595  -0.688   1.032  0.00  0.00    +0.020 A 
ATOM     12 BR   UNL     1       1.470  -3.004   2.437  0.00  0.00    -0.048 Br
ENDBRANCH   1   9
BRANCH   2  13
ATOM     13  C   UNL     1      -0.136  -6.343  -1.190  0.00  0.00    +0.165 C 
BRANCH  13  14
ATOM     14  S   UNL     1      -0.257  -6.940  -2.898  0.00  0.00    -0.148 S 
BRANCH  14  15
ATOM     15  C   UNL     1      -0.361  -8.743  -2.727  0.00  0.00    +0.110 C 
BRANCH  15  16
ATOM     16  C   UNL     1      -0.469  -9.382  -4.113  0.00  0.00    +0.239 C 
BRANCH  16  17
ATOM     17  O   UNL     1      -0.552 -10.802  -3.978  0.00  0.00    -0.491 OA
BRANCH  17  18
ATOM     18  C   UNL     1      -0.653 -11.526  -5.123  0.00  0.00    +0.123 A 
ATOM     19  C   UNL     1      -0.667 -10.883  -6.353  0.00  0.00    +0.046 A 
ATOM     20  C   UNL     1      -0.770 -11.621  -7.516  0.00  0.00    +0.004 A 
ATOM     21  C   UNL     1      -0.859 -13.000  -7.455  0.00  0.00    +0.000 A 
ATOM     22  C   UNL     1      -0.845 -13.643  -6.232  0.00  0.00    +0.007 A 
ATOM     23  C   UNL     1      -0.737 -12.909  -5.066  0.00  0.00    -0.009 A 
ATOM     24  C   UNL     1      -0.716 -13.611  -3.732  0.00  0.00    +0.047 C 
ENDBRANCH  17  18
ENDBRANCH  16  17
ENDBRANCH  15  16
ENDBRANCH  14  15
ENDBRANCH  13  14
ENDBRANCH   2  13
TORSDOF 7
