REMARK  Name = ZINC21828203
REMARK  6 active torsions:
REMARK  status: ('A' for Active; 'I' for Inactive)
REMARK    1  A    between atoms: C_1  and  C_2
REMARK    2  A    between atoms: C_5  and  C_8
REMARK    3  A    between atoms: C_8  and  C_9
REMARK    4  A    between atoms: C_15  and  C_17
REMARK    5  A    between atoms: C_17  and  N_18
REMARK    6  A    between atoms: C_27  and  C_29
REMARK                            x       y       z     vdW  Elec       q    Type
REMARK                         _______ _______ _______ _____ _____    ______ ____
ROOT
ATOM      1  C   UNL     1      -5.336  -4.902  -5.280  0.00  0.00    +0.015 A 
ATOM      2  C   UNL     1      -4.206  -4.155  -5.256  0.00  0.00    +0.124 A 
ATOM      3  N   UNL     1      -3.695  -3.825  -4.086  0.00  0.00    -0.233 NA
ATOM      4  C   UNL     1      -4.258  -4.217  -2.960  0.00  0.00    +0.165 A 
ATOM      5  S   UNL     1      -5.629  -5.117  -3.531  0.00  0.00    -0.057 S 
ATOM      6  N   UNL     1      -3.859  -3.969  -1.652  0.00  0.00    -0.263 N 
ATOM      7  C   UNL     1      -2.752  -3.240  -1.412  0.00  0.00    +0.240 C 
ATOM      8  O   UNL     1      -2.103  -2.799  -2.337  0.00  0.00    -0.273 OA
ATOM      9  H   UNL     1      -4.448  -4.368  -0.812  0.00  0.00    +0.157 HD
ENDROOT
BRANCH   1  10
ATOM     10  C   UNL     1      -6.128  -5.411  -6.457  0.00  0.00    +0.079 C 
BRANCH  10  15
ATOM     11  C   UNL     1      -4.134 -10.606  -8.017  0.00  0.00    +0.044 C 
ATOM     12  C   UNL     1      -4.655  -9.252  -7.611  0.00  0.00    -0.050 A 
ATOM     13  C   UNL     1      -5.669  -9.152  -6.676  0.00  0.00    +0.003 A 
ATOM     14  C   UNL     1      -6.146  -7.910  -6.303  0.00  0.00    +0.004 A 
ATOM     15  C   UNL     1      -5.608  -6.766  -6.864  0.00  0.00    -0.042 A 
ATOM     16  C   UNL     1      -4.598  -6.866  -7.802  0.00  0.00    +0.004 A 
ATOM     17  C   UNL     1      -4.118  -8.108  -8.172  0.00  0.00    +0.003 A 
ENDBRANCH  10  15
ENDBRANCH   1  10
BRANCH   7  18
ATOM     18  C   UNL     1      -2.320  -2.970   0.007  0.00  0.00    +0.243 C 
BRANCH  18  19
ATOM     19  N   UNL     1      -1.098  -2.162   0.000  0.00  0.00    -0.219 N 
ATOM     20  C   UNL     1      -1.221  -0.819   0.009  0.00  0.00    +0.275 A 
ATOM     21  O   UNL     1      -2.319  -0.294   0.022  0.00  0.00    -0.266 OA
ATOM     22  C   UNL     1       0.002  -0.004   0.002  0.00  0.00    +0.050 A 
ATOM     23  C   UNL     1      -0.017   1.387   0.010  0.00  0.00    +0.014 A 
ATOM     24  C   UNL     1       1.176   2.079   0.002  0.00  0.00    +0.001 A 
ATOM     25  C   UNL     1       2.389   1.403  -0.013  0.00  0.00    +0.001 A 
ATOM     26  C   UNL     1       2.428   0.024  -0.021  0.00  0.00    +0.011 A 
ATOM     27  C   UNL     1       1.237  -0.693  -0.013  0.00  0.00    +0.020 A 
ATOM     28  C   UNL     1       1.192  -2.164  -0.021  0.00  0.00    +0.153 A 
ATOM     29  N   UNL     1       0.029  -2.768  -0.014  0.00  0.00    -0.162 NA
BRANCH  28  30
ATOM     30  C   UNL     1       2.442  -2.949  -0.038  0.00  0.00    +0.262 C 
ATOM     31  O   UNL     1       3.517  -2.381  -0.045  0.00  0.00    -0.269 OA
ATOM     32  N   UNL     1       2.392  -4.296  -0.045  0.00  0.00    -0.324 N 
ATOM     33  H   UNL     1       3.323  -4.881  -0.058  0.00  0.00    +0.145 HD
ATOM     34  H   UNL     1       1.419  -4.810  -0.039  0.00  0.00    +0.145 HD
ENDBRANCH  28  30
ENDBRANCH  18  19
ENDBRANCH   7  18
TORSDOF 5
