REMARK  Name = ZINC62125146
REMARK  8 active torsions:
REMARK  status: ('A' for Active; 'I' for Inactive)
REMARK    1  A    between atoms: C_1  and  C_2
REMARK    2  A    between atoms: C_5  and  C_8
REMARK    3  A    between atoms: C_8  and  C_10
REMARK    4  A    between atoms: C_8  and  C_16
REMARK    5  A    between atoms: N_18  and  C_19
REMARK    6  A    between atoms: C_19  and  C_21
REMARK    7  A    between atoms: C_19  and  C_22
REMARK    8  A    between atoms: C_27  and  C_30
REMARK                            x       y       z     vdW  Elec       q    Type
REMARK                         _______ _______ _______ _____ _____    ______ ____
ROOT
ATOM      1  C   UNL     1      -1.128  -4.632   0.896  0.00  0.00    +0.221 C 
ATOM      2  O   UNL     1      -1.861  -3.749   1.290  0.00  0.00    -0.275 OA
ATOM      3  N   UNL     1      -1.341  -5.906   1.281  0.00  0.00    -0.304 N 
ATOM      4  H   UNL     1      -0.711  -6.599   1.031  0.00  0.00    +0.149 HD
ENDROOT
BRANCH   3   5
ATOM      5  C   UNL     1      -2.523  -6.242   2.078  0.00  0.00    +0.156 C 
ATOM      6  C   UNL     1      -3.714  -6.479   1.148  0.00  0.00    +0.038 C 
BRANCH   5   7
ATOM      7  C   UNL     1      -2.252  -7.492   2.876  0.00  0.00    +0.238 C 
ATOM      8  O   UNL     1      -1.177  -8.047   2.787  0.00  0.00    -0.273 OA
ATOM      9  N   UNL     1      -3.204  -7.993   3.687  0.00  0.00    -0.266 N 
ATOM     10  C   UNL     1      -2.953  -9.150   4.426  0.00  0.00    +0.168 A 
ATOM     11  C   UNL     1      -1.751  -9.893   4.425  0.00  0.00    +0.091 A 
ATOM     12  C   UNL     1      -1.903 -10.934   5.262  0.00  0.00    +0.136 A 
ATOM     13  O   UNL     1      -3.139 -10.876   5.782  0.00  0.00    -0.358 OA
ATOM     14  N   UNL     1      -3.787  -9.736   5.246  0.00  0.00    -0.063 NA
ATOM     15  C   UNL     1      -0.866 -11.985   5.563  0.00  0.00    +0.089 C 
ATOM     16  H   UNL     1      -4.063  -7.550   3.758  0.00  0.00    +0.156 HD
ENDBRANCH   5   7
ENDBRANCH   3   5
BRANCH   1  17
ATOM     17  C   UNL     1       0.020  -4.304  -0.023  0.00  0.00    +0.108 C 
BRANCH  17  22
ATOM     18  C   UNL     1      -0.725   0.989  -2.220  0.00  0.00    +0.044 C 
ATOM     19  C   UNL     1      -0.531  -0.392  -1.647  0.00  0.00    -0.050 A 
ATOM     20  C   UNL     1      -0.453  -1.485  -2.490  0.00  0.00    +0.003 A 
ATOM     21  C   UNL     1      -0.275  -2.751  -1.964  0.00  0.00    +0.004 A 
ATOM     22  C   UNL     1      -0.173  -2.924  -0.596  0.00  0.00    -0.035 A 
ATOM     23  C   UNL     1      -0.250  -1.830   0.246  0.00  0.00    +0.004 A 
ATOM     24  C   UNL     1      -0.424  -0.564  -0.280  0.00  0.00    +0.003 A 
ENDBRANCH  17  22
BRANCH  17  25
ATOM     25  C   UNL     1       1.332  -4.351   0.762  0.00  0.00    +0.005 C 
ATOM     26  C   UNL     1       2.482  -3.892  -0.137  0.00  0.00    +0.004 C 
ATOM     27  C   UNL     1       3.794  -3.938   0.649  0.00  0.00    +0.000 C 
ATOM     28  C   UNL     1       4.055  -5.370   1.120  0.00  0.00    +0.000 C 
ATOM     29  C   UNL     1       2.906  -5.830   2.019  0.00  0.00    +0.000 C 
ATOM     30  C   UNL     1       1.594  -5.783   1.233  0.00  0.00    +0.004 C 
ENDBRANCH  17  25
ENDBRANCH   1  17
TORSDOF 5
