REMARK  Name = ZINC00242247
REMARK  5 active torsions:
REMARK  status: ('A' for Active; 'I' for Inactive)
REMARK    1  A    between atoms: C_3  and  O_22
REMARK    2  A    between atoms: C_6  and  C_7
REMARK    3  A    between atoms: C_12  and  N_21
REMARK    4  A    between atoms: C_16  and  N_20
REMARK    5  A    between atoms: C_17  and  C_18
REMARK                            x       y       z     vdW  Elec       q    Type
REMARK                         _______ _______ _______ _____ _____    ______ ____
ROOT
ATOM      1  C   UNL     1      -2.553   3.867   0.048  0.00  0.00    +0.098 C 
ATOM      2  C   UNL     1      -3.347   3.496  -1.177  0.00  0.00    +0.008 A 
ATOM      3  C   UNL     1      -3.009   4.048  -2.400  0.00  0.00    +0.010 A 
ATOM      4  C   UNL     1      -3.725   3.720  -3.534  0.00  0.00    +0.023 A 
ATOM      5  C   UNL     1      -4.790   2.831  -3.449  0.00  0.00    +0.028 A 
ATOM      6  C   UNL     1      -5.130   2.276  -2.225  0.00  0.00    +0.069 A 
ATOM      7  C   UNL     1      -4.408   2.608  -1.086  0.00  0.00    +0.136 A 
ATOM      8  O   UNL     1      -4.754   2.057   0.103  0.00  0.00    -0.441 OA
ATOM      9  C   UNL     1      -4.351   2.630   1.250  0.00  0.00    +0.199 C 
ATOM     10  C   UNL     1      -3.313   3.498   1.291  0.00  0.00    +0.098 C 
ENDROOT
BRANCH   1  16
ATOM     11  C   UNL     1      -1.218   1.751   0.017  0.00  0.00    +0.008 A 
ATOM     12  C   UNL     1      -0.013   1.076   0.008  0.00  0.00    +0.046 A 
ATOM     13  C   UNL     1       1.179   1.786   0.000  0.00  0.00    +0.117 A 
ATOM     14  C   UNL     1       1.157   3.174   0.008  0.00  0.00    +0.046 A 
ATOM     15  C   UNL     1      -0.051   3.844   0.023  0.00  0.00    +0.008 A 
ATOM     16  C   UNL     1      -1.237   3.133   0.031  0.00  0.00    -0.034 A 
BRANCH  13  17
ATOM     17  O   UNL     1       2.366   1.125  -0.014  0.00  0.00    -0.507 OA
ATOM     18  H   UNL     1       2.701   0.938  -0.902  0.00  0.00    +0.292 HD
ENDBRANCH  13  17
ENDBRANCH   1  16
BRANCH   9  19
ATOM     19  N   UNL     1      -5.012   2.326   2.414  0.00  0.00    -0.328 N 
ATOM     20  H   UNL     1      -5.758   1.706   2.401  0.00  0.00    +0.145 HD
ATOM     21  H   UNL     1      -4.734   2.732   3.250  0.00  0.00    +0.145 HD
ENDBRANCH   9  19
BRANCH   5  22
ATOM     22  N   UNL     1      -5.515   2.498  -4.595  0.00  0.00    -0.358 N 
ATOM     23  H   UNL     1      -5.276   2.886  -5.451  0.00  0.00    +0.142 HD
ATOM     24  H   UNL     1      -6.258   1.877  -4.535  0.00  0.00    +0.142 HD
ENDBRANCH   5  22
BRANCH  10  25
ATOM     25  C   UNL     1      -2.932   4.077   2.544  0.00  0.00    +0.101 C 
ATOM     26  N   UNL     1      -2.629   4.535   3.538  0.00  0.00    -0.191 NA
ENDBRANCH  10  25
TORSDOF 5
