REMARK  Name = ZINC12925347
REMARK  10 active torsions:
REMARK  status: ('A' for Active; 'I' for Inactive)
REMARK    1  A    between atoms: C_1  and  C_2
REMARK    2  A    between atoms: C_2  and  C_3
REMARK    3  A    between atoms: C_3  and  C_4
REMARK    4  A    between atoms: N_6  and  C_7
REMARK    5  A    between atoms: C_10  and  C_13
REMARK    6  A    between atoms: C_13  and  C_15
REMARK    7  A    between atoms: C_15  and  C_17
REMARK    8  A    between atoms: C_15  and  O_18
REMARK    9  A    between atoms: O_18  and  C_19
REMARK   10  A    between atoms: C_19  and  C_21
REMARK                            x       y       z     vdW  Elec       q    Type
REMARK                         _______ _______ _______ _____ _____    ______ ____
ROOT
ATOM      1  C   UNL     1      -4.245  -1.049   1.946  0.00  0.00    +0.244 C 
ATOM      2  C   UNL     1      -3.429  -2.285   1.562  0.00  0.00    +0.061 C 
ENDROOT
BRANCH   1   3
ATOM      3  C   UNL     1      -4.861  -1.257   3.306  0.00  0.00    +0.203 C 
ATOM      4  O   UNL     1      -4.402  -0.686   4.273  0.00  0.00    -0.288 OA
BRANCH   3   8
ATOM      5  C   UNL     1      -8.196  -3.830   3.750  0.00  0.00    +0.033 A 
ATOM      6  C   UNL     1      -7.670  -3.177   4.861  0.00  0.00    +0.024 A 
ATOM      7  C   UNL     1      -6.591  -2.343   4.722  0.00  0.00    +0.013 A 
ATOM      8  C   UNL     1      -6.017  -2.149   3.460  0.00  0.00    +0.021 A 
ATOM      9  C   UNL     1      -6.552  -2.804   2.343  0.00  0.00    +0.013 A 
ATOM     10  C   UNL     1      -7.628  -3.640   2.493  0.00  0.00    +0.024 A 
BRANCH   5  13
ATOM     11  C   UNL     1     -10.238  -4.401   4.816  0.00  0.00    +0.217 C 
ATOM     12  O   UNL     1     -10.185  -3.369   5.450  0.00  0.00    -0.275 OA
ATOM     13  N   UNL     1      -9.293  -4.676   3.896  0.00  0.00    -0.285 N 
ATOM     14  H   UNL     1      -9.376  -5.464   3.335  0.00  0.00    +0.155 HD
BRANCH  11  15
ATOM     15  C   UNL     1     -11.362  -5.376   5.056  0.00  0.00    +0.096 C 
BRANCH  15  17
ATOM     16  C   UNL     1     -13.431  -5.817   6.386  0.00  0.00    +0.004 C 
ATOM     17  C   UNL     1     -12.290  -4.827   6.142  0.00  0.00    +0.006 C 
ENDBRANCH  15  17
ENDBRANCH  11  15
ENDBRANCH   5  13
ENDBRANCH   3   8
ENDBRANCH   1   3
BRANCH   1  18
ATOM     18  O   UNL     1      -3.375   0.113   1.981  0.00  0.00    -0.451 OA
BRANCH  18  19
ATOM     19  C   UNL     1      -3.240   0.808   0.841  0.00  0.00    +0.343 C 
ATOM     20  O   UNL     1      -3.830   0.456  -0.154  0.00  0.00    -0.247 OA
BRANCH  19  21
ATOM     21  C   UNL     1      -2.354   2.026   0.800  0.00  0.00    +0.190 C 
ATOM     22  C   UNL     1      -0.904   1.769   1.253  0.00  0.00    +0.059 C 
ATOM     23  C   UNL     1      -0.255   1.388  -0.101  0.00  0.00    +0.100 C 
ATOM     24  C   UNL     1      -1.123   2.064  -1.139  0.00  0.00    +0.221 C 
ATOM     25  O   UNL     1      -0.881   2.097  -2.328  0.00  0.00    -0.275 OA
ATOM     26  N   UNL     1      -2.208   2.626  -0.555  0.00  0.00    -0.245 N 
ATOM     27  C   UNL     1      -3.197   3.591  -0.834  0.00  0.00    +0.052 A 
ATOM     28  C   UNL     1      -3.655   3.959  -2.107  0.00  0.00    +0.025 A 
ATOM     29  C   UNL     1      -4.604   4.944  -2.262  0.00  0.00    +0.002 A 
ATOM     30  C   UNL     1      -5.136   5.603  -1.169  0.00  0.00    +0.001 A 
ATOM     31  C   UNL     1      -4.714   5.248   0.102  0.00  0.00    +0.016 A 
ATOM     32  C   UNL     1      -3.778   4.254   0.256  0.00  0.00    +0.032 A 
ATOM     33  S   UNL     1      -3.053   3.477   1.687  0.00  0.00    -0.086 S 
ENDBRANCH  19  21
ENDBRANCH  18  19
ENDBRANCH   1  18
TORSDOF 8
