REMARK  Name = ZINC14136366
REMARK  7 active torsions:
REMARK  status: ('A' for Active; 'I' for Inactive)
REMARK    1  A    between atoms: C_1  and  C_2
REMARK    2  A    between atoms: C_5  and  N_8
REMARK    3  A    between atoms: C_10  and  C_14
REMARK    4  A    between atoms: C_11  and  C_13
REMARK    5  A    between atoms: N_15  and  N_16
REMARK    6  A    between atoms: C_17  and  C_19
REMARK    7  A    between atoms: C_21  and  N_27
REMARK                            x       y       z     vdW  Elec       q    Type
REMARK                         _______ _______ _______ _____ _____    ______ ____
ROOT
ATOM      1  C   UNL     1       3.481   1.882  -0.021  0.00  0.00    +0.143 C 
ATOM      2  N   UNL     1       2.366   1.218  -0.014  0.00  0.00    -0.187 NA
ENDROOT
BRANCH   1   5
ATOM      3  N   UNL     1       6.270  -0.446  -0.059  0.00  0.00    -0.221 N 
ATOM      4  C   UNL     1       4.940  -0.208  -0.040  0.00  0.00    +0.142 A 
ATOM      5  C   UNL     1       4.768   1.162  -0.037  0.00  0.00    +0.054 A 
ATOM      6  C   UNL     1       6.054   1.745  -0.046  0.00  0.00    +0.070 A 
ATOM      7  N   UNL     1       6.938   0.784  -0.059  0.00  0.00    -0.170 NA
ATOM      8  C   UNL     1       6.356   3.222  -0.042  0.00  0.00    +0.068 C 
ATOM      9 CL   UNL     1       3.681  -1.403  -0.026  0.00  0.00    -0.061 Cl
BRANCH   3  14
ATOM     10  C   UNL     1       8.728  -5.561  -0.103  0.00  0.00    +0.044 C 
ATOM     11  C   UNL     1       8.075  -4.203  -0.092  0.00  0.00    -0.050 A 
ATOM     12  C   UNL     1       8.654  -3.153  -0.780  0.00  0.00    +0.005 A 
ATOM     13  C   UNL     1       8.059  -1.907  -0.771  0.00  0.00    +0.028 A 
ATOM     14  C   UNL     1       6.877  -1.709  -0.070  0.00  0.00    +0.067 A 
ATOM     15  C   UNL     1       6.300  -2.764   0.625  0.00  0.00    +0.028 A 
ATOM     16  C   UNL     1       6.897  -4.009   0.607  0.00  0.00    +0.005 A 
ENDBRANCH   3  14
ENDBRANCH   1   5
BRANCH   2  17
ATOM     17  N   UNL     1       1.143   1.901   0.001  0.00  0.00    -0.202 N 
ATOM     18  C   UNL     1      -0.014   1.212   0.009  0.00  0.00    +0.283 C 
ATOM     19  O   UNL     1       0.002  -0.004   0.002  0.00  0.00    -0.267 OA
ATOM     20  H   UNL     1       1.129   3.001   0.007  0.00  0.00    +0.178 HD
BRANCH  18  21
ATOM     21  C   UNL     1      -1.306   1.934   0.019  0.00  0.00    +0.149 A 
ATOM     22  C   UNL     1      -2.498   1.215   0.015  0.00  0.00    +0.094 A 
ATOM     23  C   UNL     1      -3.707   1.911   0.030  0.00  0.00    +0.067 A 
ATOM     24  C   UNL     1      -3.668   3.305   0.037  0.00  0.00    +0.100 A 
ATOM     25  C   UNL     1      -2.441   3.949   0.035  0.00  0.00    +0.150 A 
ATOM     26  N   UNL     1      -1.317   3.263   0.026  0.00  0.00    -0.228 NA
ATOM     27 CL   UNL     1      -2.386   5.684   0.044  0.00  0.00    -0.060 Cl
ATOM     28 CL   UNL     1      -5.141   4.223   0.048  0.00  0.00    -0.078 Cl
ATOM     29 CL   UNL     1      -2.481  -0.521  -0.002  0.00  0.00    -0.079 Cl
BRANCH  23  30
ATOM     30  N   UNL     1      -4.923   1.231   0.031  0.00  0.00    -0.356 N 
ATOM     31  H   UNL     1      -5.868   1.793   0.043  0.00  0.00    +0.142 HD
ATOM     32  H   UNL     1      -4.938   0.131   0.021  0.00  0.00    +0.142 HD
ENDBRANCH  23  30
ENDBRANCH  18  21
ENDBRANCH   2  17
TORSDOF 5
