REMARK  Name = ZINC63165345
REMARK  9 active torsions:
REMARK  status: ('A' for Active; 'I' for Inactive)
REMARK    1  A    between atoms: C_1  and  O_2
REMARK    2  A    between atoms: O_2  and  C_3
REMARK    3  A    between atoms: C_6  and  N_9
REMARK    4  A    between atoms: C_10  and  C_27
REMARK    5  A    between atoms: C_14  and  S_16
REMARK    6  A    between atoms: S_16  and  C_17
REMARK    7  A    between atoms: C_17  and  C_18
REMARK    8  A    between atoms: C_27  and  O_28
REMARK    9  A    between atoms: O_28  and  C_29
REMARK                            x       y       z     vdW  Elec       q    Type
REMARK                         _______ _______ _______ _____ _____    ______ ____
ROOT
ATOM      1  N   UNL     1       2.491  -2.970  -4.615  0.00  0.00    -0.285 N 
ATOM      2  C   UNL     1       2.689  -4.400  -4.929  0.00  0.00    +0.195 C 
ATOM      3  N   UNL     1       2.885  -4.428  -6.402  0.00  0.00    -0.231 NA
ATOM      4  N   UNL     1       3.672  -3.211  -6.654  0.00  0.00    -0.226 NA
ATOM      5  C   UNL     1       3.111  -2.212  -5.716  0.00  0.00    +0.217 C 
ATOM      6  H   UNL     1       2.000  -4.393  -6.885  0.00  0.00    +0.143 HD
ATOM      7  H   UNL     1       3.568  -2.905  -7.610  0.00  0.00    +0.143 HD
ENDROOT
BRANCH   1  11
ATOM      8  C   UNL     1       0.547  -1.393  -1.283  0.00  0.00    +0.120 A 
ATOM      9  C   UNL     1       1.083  -0.543  -2.239  0.00  0.00    +0.047 A 
ATOM     10  C   UNL     1       1.727  -1.065  -3.344  0.00  0.00    +0.027 A 
ATOM     11  C   UNL     1       1.839  -2.441  -3.496  0.00  0.00    +0.033 A 
ATOM     12  C   UNL     1       1.302  -3.290  -2.538  0.00  0.00    +0.027 A 
ATOM     13  C   UNL     1       0.663  -2.767  -1.431  0.00  0.00    +0.047 A 
BRANCH   8  15
ATOM     14  C   UNL     1      -0.170   0.546  -0.106  0.00  0.00    +0.277 C 
ATOM     15  O   UNL     1      -0.087  -0.878  -0.196  0.00  0.00    -0.495 OA
ENDBRANCH   8  15
ENDBRANCH   1  11
BRANCH   5  16
ATOM     16  S   UNL     1       4.437  -1.154  -5.074  0.00  0.00    -0.118 S 
BRANCH  16  17
ATOM     17  C   UNL     1       5.622  -2.325  -4.356  0.00  0.00    +0.119 C 
BRANCH  17  18
ATOM     18  C   UNL     1       6.828  -1.558  -3.808  0.00  0.00    +0.184 C 
ATOM     19  N   UNL     1       6.387  -0.562  -2.823  0.00  0.00    -0.363 N 
ATOM     20  C   UNL     1       6.737   0.610  -3.269  0.00  0.00    +0.060 A 
ATOM     21  C   UNL     1       6.576   1.970  -2.738  0.00  0.00    +0.027 A 
ATOM     22  C   UNL     1       7.052   3.018  -3.438  0.00  0.00    +0.002 A 
ATOM     23  C   UNL     1       7.707   2.870  -4.674  0.00  0.00    +0.002 A 
ATOM     24  C   UNL     1       7.908   1.668  -5.250  0.00  0.00    +0.027 A 
ATOM     25  C   UNL     1       7.431   0.453  -4.577  0.00  0.00    +0.060 A 
ATOM     26  N   UNL     1       7.483  -0.810  -4.889  0.00  0.00    -0.363 N 
ATOM     27  H   UNL     1       5.920  -0.744  -1.993  0.00  0.00    +0.162 HD
ATOM     28  H   UNL     1       7.881  -1.188  -5.688  0.00  0.00    +0.162 HD
ENDBRANCH  17  18
ENDBRANCH  16  17
ENDBRANCH   5  16
BRANCH   2  29
ATOM     29  C   UNL     1       3.929  -4.939  -4.211  0.00  0.00    +0.268 C 
BRANCH  29  30
ATOM     30  O   UNL     1       4.024  -6.349  -4.419  0.00  0.00    -0.489 OA
BRANCH  30  31
ATOM     31  C   UNL     1       5.127  -6.972  -3.927  0.00  0.00    +0.121 A 
ATOM     32  C   UNL     1       6.042  -6.263  -3.162  0.00  0.00    +0.047 A 
ATOM     33  C   UNL     1       7.162  -6.899  -2.662  0.00  0.00    +0.023 A 
ATOM     34  C   UNL     1       7.373  -8.241  -2.925  0.00  0.00    +0.041 A 
ATOM     35  C   UNL     1       6.462  -8.949  -3.688  0.00  0.00    +0.023 A 
ATOM     36  C   UNL     1       5.337  -8.319  -4.184  0.00  0.00    +0.047 A 
ATOM     37 CL   UNL     1       8.783  -9.036  -2.297  0.00  0.00    -0.084 Cl
ENDBRANCH  30  31
ENDBRANCH  29  30
ENDBRANCH   2  29
TORSDOF 8
