REMARK  Name = ZINC21348082
REMARK  8 active torsions:
REMARK  status: ('A' for Active; 'I' for Inactive)
REMARK    1  A    between atoms: C_1  and  C_2
REMARK    2  A    between atoms: C_7  and  N_8
REMARK    3  A    between atoms: C_10  and  C_15
REMARK    4  A    between atoms: C_21  and  S_23
REMARK    5  A    between atoms: S_23  and  C_24
REMARK    6  A    between atoms: C_24  and  C_25
REMARK    7  A    between atoms: C_25  and  C_26
REMARK    8  A    between atoms: C_26  and  C_27
REMARK                            x       y       z     vdW  Elec       q    Type
REMARK                         _______ _______ _______ _____ _____    ______ ____
ROOT
ATOM      1  C   UNL     1       3.688   0.937   4.571  0.00  0.00    +0.224 C 
ATOM      2  O   UNL     1       2.745   0.867   5.330  0.00  0.00    -0.275 OA
ATOM      3  N   UNL     1       4.909   1.258   5.042  0.00  0.00    -0.263 N 
ATOM      4  C   UNL     1       5.088   1.509   6.400  0.00  0.00    +0.189 A 
ATOM      5  N   UNL     1       4.213   1.488   7.391  0.00  0.00    -0.125 NA
ATOM      6  N   UNL     1       4.544   1.743   8.581  0.00  0.00    -0.133 NA
ATOM      7  C   UNL     1       5.790   2.047   8.912  0.00  0.00    +0.160 A 
ATOM      8  S   UNL     1       6.572   1.944   7.304  0.00  0.00    -0.024 S 
ATOM      9  H   UNL     1       5.765   1.322   4.353  0.00  0.00    +0.157 HD
ENDROOT
BRANCH   1  12
ATOM     10  N   UNL     1       1.386   1.593   2.434  0.00  0.00    -0.270 N 
ATOM     11  C   UNL     1       2.021   0.319   2.793  0.00  0.00    +0.127 C 
ATOM     12  C   UNL     1       3.494   0.665   3.101  0.00  0.00    +0.102 C 
ATOM     13  C   UNL     1       3.696   1.953   2.269  0.00  0.00    +0.110 C 
ATOM     14  C   UNL     1       2.303   2.525   2.124  0.00  0.00    +0.221 C 
ATOM     15  O   UNL     1       2.051   3.661   1.781  0.00  0.00    -0.275 OA
BRANCH  10  22
ATOM     16  C   UNL     1      -0.013   1.086   0.008  0.00  0.00    +0.045 C 
ATOM     17  C   UNL     1      -0.718   1.572   1.248  0.00  0.00    -0.029 A 
ATOM     18  C   UNL     1      -2.082   1.789   1.227  0.00  0.00    +0.005 A 
ATOM     19  C   UNL     1      -2.731   2.229   2.366  0.00  0.00    +0.000 A 
ATOM     20  C   UNL     1      -2.015   2.465   3.526  0.00  0.00    +0.002 A 
ATOM     21  C   UNL     1      -0.651   2.255   3.551  0.00  0.00    +0.024 A 
ATOM     22  C   UNL     1       0.003   1.807   2.411  0.00  0.00    +0.039 A 
ENDBRANCH  10  22
ENDBRANCH   1  12
BRANCH   7  23
ATOM     23  S   UNL     1       6.483   2.435  10.485  0.00  0.00    -0.097 S 
BRANCH  23  24
ATOM     24  C   UNL     1       5.074   2.329  11.623  0.00  0.00    +0.077 C 
BRANCH  24  25
ATOM     25  C   UNL     1       5.541   2.647  13.044  0.00  0.00    +0.016 C 
BRANCH  25  26
ATOM     26  C   UNL     1       4.353   2.558  14.004  0.00  0.00    +0.036 C 
BRANCH  26  27
ATOM     27  C   UNL     1       4.813   2.872  15.404  0.00  0.00    -0.047 A 
ATOM     28  C   UNL     1       5.253   1.855  16.231  0.00  0.00    +0.003 A 
ATOM     29  C   UNL     1       5.681   2.143  17.513  0.00  0.00    +0.000 A 
ATOM     30  C   UNL     1       5.658   3.446  17.973  0.00  0.00    +0.000 A 
ATOM     31  C   UNL     1       5.212   4.463  17.148  0.00  0.00    +0.000 A 
ATOM     32  C   UNL     1       4.790   4.175  15.864  0.00  0.00    +0.003 A 
ENDBRANCH  26  27
ENDBRANCH  25  26
ENDBRANCH  24  25
ENDBRANCH  23  24
ENDBRANCH   7  23
TORSDOF 7
