REMARK  Name = ZINC63135279
REMARK  11 active torsions:
REMARK  status: ('A' for Active; 'I' for Inactive)
REMARK    1  A    between atoms: C_1  and  C_2
REMARK    2  A    between atoms: C_2  and  C_3
REMARK    3  A    between atoms: C_3  and  C_4
REMARK    4  A    between atoms: C_4  and  C_5
REMARK    5  A    between atoms: C_7  and  C_11
REMARK    6  A    between atoms: C_11  and  C_13
REMARK    7  A    between atoms: C_11  and  S_14
REMARK    8  A    between atoms: S_14  and  C_15
REMARK    9  A    between atoms: C_18  and  C_27
REMARK   10  A    between atoms: N_19  and  C_20
REMARK   11  A    between atoms: C_20  and  C_21
REMARK                            x       y       z     vdW  Elec       q    Type
REMARK                         _______ _______ _______ _____ _____    ______ ____
ROOT
ATOM      1  C   UNL     1      -6.864   0.080   0.999  0.00  0.00    +0.192 A 
ATOM      2  N   UNL     1      -7.712  -0.464   1.860  0.00  0.00    -0.122 NA
ATOM      3  N   UNL     1      -8.363   0.455   2.480  0.00  0.00    -0.129 NA
ATOM      4  C   UNL     1      -7.970   1.647   2.053  0.00  0.00    +0.163 A 
ATOM      5  N   UNL     1      -6.995   1.431   1.096  0.00  0.00    -0.300 N 
ENDROOT
BRANCH   4   6
ATOM      6  C   UNL     1      -8.450   2.891   2.492  0.00  0.00    +0.025 C 
ATOM      7  C   UNL     1      -9.347   3.129   3.533  0.00  0.00    +0.006 A 
ATOM      8  C   UNL     1     -10.021   2.269   4.427  0.00  0.00    +0.010 A 
ATOM      9  C   UNL     1     -10.854   2.790   5.363  0.00  0.00    +0.001 A 
ATOM     10  C   UNL     1     -11.067   4.167   5.469  0.00  0.00    +0.002 A 
ATOM     11  C   UNL     1     -10.453   5.051   4.644  0.00  0.00    +0.026 A 
ATOM     12  C   UNL     1      -9.567   4.581   3.641  0.00  0.00    +0.043 A 
ATOM     13  N   UNL     1      -8.860   5.223   2.732  0.00  0.00    -0.380 N 
ATOM     14  C   UNL     1      -8.098   4.254   1.938  0.00  0.00    +0.152 C 
ATOM     15  H   UNL     1      -8.843   6.185   2.610  0.00  0.00    +0.160 HD
ENDBRANCH   4   6
BRANCH   1  16
ATOM     16  S   UNL     1      -5.763  -0.787  -0.069  0.00  0.00    -0.078 S 
BRANCH  16  17
ATOM     17  C   UNL     1      -6.086  -2.535   0.293  0.00  0.00    +0.103 C 
ATOM     18  C   UNL     1      -7.516  -2.886  -0.122  0.00  0.00    +0.024 C 
BRANCH  17  21
ATOM     19  C   UNL     1      -3.026  -2.725  -0.998  0.00  0.00    +0.103 C 
ATOM     20  N   UNL     1      -3.729  -3.171  -0.015  0.00  0.00    -0.346 N 
ATOM     21  C   UNL     1      -5.100  -3.408  -0.485  0.00  0.00    +0.256 C 
ATOM     22  O   UNL     1      -5.093  -3.038  -1.873  0.00  0.00    -0.247 OA
ATOM     23  N   UNL     1      -3.765  -2.612  -2.139  0.00  0.00    -0.252 N 
ATOM     24  H   UNL     1      -3.436  -2.294  -2.994  0.00  0.00    +0.195 HD
ATOM     25  H   UNL     1      -3.407  -3.325   0.886  0.00  0.00    +0.163 HD
BRANCH  19  26
ATOM     26  C   UNL     1      -1.566  -2.365  -0.897  0.00  0.00    +0.074 C 
BRANCH  26  27
ATOM     27  C   UNL     1      -1.430  -0.894  -0.499  0.00  0.00    +0.007 C 
BRANCH  27  29
ATOM     28  C   UNL     1       0.189   0.942   0.001  0.00  0.00    +0.004 C 
ATOM     29  C   UNL     1       0.052  -0.529  -0.397  0.00  0.00    -0.003 C 
ENDBRANCH  27  29
ENDBRANCH  26  27
ENDBRANCH  19  26
ENDBRANCH  17  21
ENDBRANCH  16  17
ENDBRANCH   1  16
BRANCH   5  30
ATOM     30  C   UNL     1      -6.257   2.447   0.341  0.00  0.00    +0.157 C 
BRANCH  30  31
ATOM     31  C   UNL     1      -5.063   2.929   1.166  0.00  0.00    +0.138 C 
ATOM     32  C   UNL     1      -4.320   4.050   0.407  0.00  0.00    +0.035 C 
ATOM     33  C   UNL     1      -2.832   3.720   0.706  0.00  0.00    +0.031 C 
ATOM     34  C   UNL     1      -2.877   2.172   0.752  0.00  0.00    +0.160 C 
ATOM     35  O   UNL     1      -4.140   1.851   1.361  0.00  0.00    -0.375 OA
ENDBRANCH  30  31
ENDBRANCH   5  30
TORSDOF 9
