REMARK  Name = ZINC39237567
REMARK  4 active torsions:
REMARK  status: ('A' for Active; 'I' for Inactive)
REMARK    1  A    between atoms: C_1  and  C_2
REMARK    2  A    between atoms: C_4  and  C_32
REMARK    3  A    between atoms: C_16  and  C_19
REMARK    4  A    between atoms: C_24  and  C_25
REMARK                            x       y       z     vdW  Elec       q    Type
REMARK                         _______ _______ _______ _____ _____    ______ ____
ROOT
ATOM      1  C   UNL     1       0.002   1.461   0.009  0.00  0.00    +0.044 C 
ATOM      2  C   UNL     1       0.053  -0.045   0.021  0.00  0.00    -0.041 A 
ATOM      3  C   UNL     1      -0.033  -0.752  -1.165  0.00  0.00    +0.036 A 
ATOM      4  C   UNL     1       0.013  -2.132  -1.150  0.00  0.00    +0.145 A 
ATOM      5  N   UNL     1       0.115  -2.774  -0.001  0.00  0.00    -0.236 NA
ATOM      6  C   UNL     1       0.185  -2.138   1.148  0.00  0.00    +0.103 A 
ATOM      7  C   UNL     1       0.194  -0.733   1.226  0.00  0.00    +0.006 A 
ATOM      8  C   UNL     1       0.399  -0.198   2.593  0.00  0.00    +0.110 C 
ATOM      9  C   UNL     1      -0.136  -1.163   3.687  0.00  0.00    +0.160 C 
ATOM     10  S   UNL     1       0.262  -2.734   2.830  0.00  0.00    -0.091 S 
ATOM     11  C   UNL     1       0.795  -0.897   4.853  0.00  0.00    +0.229 C 
ATOM     12  O   UNL     1       1.251  -1.777   5.551  0.00  0.00    -0.274 OA
ATOM     13  N   UNL     1       1.072   0.422   5.041  0.00  0.00    -0.298 N 
ATOM     14  C   UNL     1       0.409   1.488   4.308  0.00  0.00    +0.156 C 
ATOM     15  N   UNL     1       0.050   1.151   2.933  0.00  0.00    -0.289 NA
ATOM     16  H   UNL     1       1.744   0.663   5.698  0.00  0.00    +0.150 HD
ATOM     17  H   UNL     1       0.461   1.805   2.284  0.00  0.00    +0.124 HD
ENDROOT
BRANCH  14  18
ATOM     18  C   UNL     1      -0.871   1.866   5.056  0.00  0.00    +0.118 C 
ATOM     19  C   UNL     1      -1.605   2.976   4.331  0.00  0.00    +0.120 C 
ATOM     20  N   UNL     1      -1.645   3.975   5.152  0.00  0.00    -0.161 NA
ATOM     21  N   UNL     1      -1.024   3.693   6.364  0.00  0.00    -0.153 NA
ATOM     22  C   UNL     1      -0.541   2.478   6.403  0.00  0.00    +0.082 C 
BRANCH  22  23
ATOM     23  C   UNL     1       0.173   1.838   7.518  0.00  0.00    -0.001 A 
ATOM     24  C   UNL     1       0.863   2.619   8.451  0.00  0.00    +0.011 A 
ATOM     25  C   UNL     1       1.530   2.013   9.494  0.00  0.00    +0.020 A 
ATOM     26  C   UNL     1       1.518   0.633   9.620  0.00  0.00    +0.041 A 
ATOM     27  C   UNL     1       0.837  -0.147   8.699  0.00  0.00    +0.020 A 
ATOM     28  C   UNL     1       0.161   0.446   7.654  0.00  0.00    +0.011 A 
ATOM     29 CL   UNL     1       2.360  -0.122  10.936  0.00  0.00    -0.084 Cl
ENDBRANCH  22  23
ENDBRANCH  14  18
BRANCH   4  30
ATOM     30  C   UNL     1      -0.053  -2.903  -2.442  0.00  0.00    +0.434 C 
ATOM     31  F   UNL     1       1.241  -3.099  -2.936  0.00  0.00    -0.164 F 
ATOM     32  F   UNL     1      -0.658  -4.144  -2.214  0.00  0.00    -0.164 F 
ATOM     33  F   UNL     1      -0.804  -2.183  -3.377  0.00  0.00    -0.164 F 
ENDBRANCH   4  30
TORSDOF 3
