REMARK  Name = ZINC63679653
REMARK  9 active torsions:
REMARK  status: ('A' for Active; 'I' for Inactive)
REMARK    1  A    between atoms: C_1  and  C_2
REMARK    2  A    between atoms: C_7  and  S_8
REMARK    3  A    between atoms: S_8  and  N_11
REMARK    4  A    between atoms: C_16  and  C_18
REMARK    5  A    between atoms: C_18  and  N_19
REMARK    6  A    between atoms: C_20  and  C_22
REMARK    7  A    between atoms: N_24  and  C_25
REMARK    8  A    between atoms: C_25  and  C_26
REMARK    9  A    between atoms: C_26  and  C_27
REMARK                            x       y       z     vdW  Elec       q    Type
REMARK                         _______ _______ _______ _____ _____    ______ ____
ROOT
ATOM      1  N   UNL     1       0.355   2.524   0.693  0.00  0.00    -0.304 N 
ATOM      2  C   UNL     1      -0.610   2.889  -0.174  0.00  0.00    +0.299 C 
ATOM      3  O   UNL     1      -1.381   3.780   0.115  0.00  0.00    -0.265 OA
ATOM      4  H   UNL     1       1.015   1.863   0.434  0.00  0.00    +0.149 HD
ENDROOT
BRANCH   2   5
ATOM      5  C   UNL     1      -0.731   2.195  -1.492  0.00  0.00    +0.299 C 
ATOM      6  O   UNL     1      -0.020   1.244  -1.745  0.00  0.00    -0.265 OA
ATOM      7  N   UNL     1      -1.629   2.625  -2.401  0.00  0.00    -0.307 N 
ATOM      8  H   UNL     1      -2.196   3.385  -2.199  0.00  0.00    +0.149 HD
BRANCH   7   9
ATOM      9  C   UNL     1      -1.747   1.945  -3.693  0.00  0.00    +0.109 C 
BRANCH   9  10
ATOM     10  C   UNL     1      -2.830   2.627  -4.531  0.00  0.00    +0.052 C 
BRANCH  10  11
ATOM     11  C   UNL     1      -2.952   1.927  -5.860  0.00  0.00    -0.040 C 
ATOM     12  C   UNL     1      -3.829   0.951  -6.188  0.00  0.00    -0.001 A 
ATOM     13  C   UNL     1      -4.890   0.273  -5.433  0.00  0.00    +0.010 A 
ATOM     14  C   UNL     1      -5.618  -0.688  -6.045  0.00  0.00    +0.001 A 
ATOM     15  C   UNL     1      -5.385  -1.053  -7.378  0.00  0.00    +0.002 A 
ATOM     16  C   UNL     1      -4.429  -0.476  -8.136  0.00  0.00    +0.026 A 
ATOM     17  C   UNL     1      -3.603   0.548  -7.594  0.00  0.00    +0.043 A 
ATOM     18  N   UNL     1      -2.625   1.248  -8.116  0.00  0.00    -0.380 N 
ATOM     19  C   UNL     1      -2.123   2.180  -7.099  0.00  0.00    +0.144 C 
ATOM     20  H   UNL     1      -2.292   1.166  -9.023  0.00  0.00    +0.160 HD
ENDBRANCH  10  11
ENDBRANCH   9  10
ENDBRANCH   7   9
ENDBRANCH   2   5
BRANCH   1  21
ATOM     21  C   UNL     1       0.406   3.127   2.028  0.00  0.00    +0.154 C 
BRANCH  21  27
ATOM     22  N   UNL     1       1.471   1.203   3.112  0.00  0.00    -0.147 NA
ATOM     23  C   UNL     1       2.631   0.465   3.637  0.00  0.00    +0.114 C 
ATOM     24  C   UNL     1       3.818   0.705   2.696  0.00  0.00    +0.045 C 
ATOM     25  C   UNL     1       3.990   2.212   2.486  0.00  0.00    +0.163 C 
ATOM     26  O   UNL     1       2.791   2.756   1.929  0.00  0.00    -0.358 OA
ATOM     27  C   UNL     1       1.646   2.622   2.768  0.00  0.00    +0.226 C 
BRANCH  22  28
ATOM     28  S   UNL     1       0.009   0.453   2.908  0.00  0.00    +0.063 S 
ATOM     29  O   UNL     1       0.202  -0.913   3.249  0.00  0.00    -0.153 OA
ATOM     30  O   UNL     1      -0.482   0.859   1.638  0.00  0.00    -0.153 OA
BRANCH  28  37
ATOM     31  C   UNL     1       0.384   0.173   5.895  0.00  0.00    +0.046 C 
ATOM     32  C   UNL     1      -0.837   0.941   5.457  0.00  0.00    -0.021 A 
ATOM     33  C   UNL     1      -1.697   1.470   6.401  0.00  0.00    +0.043 A 
ATOM     34  C   UNL     1      -2.817   2.176   5.997  0.00  0.00    +0.124 A 
ATOM     35  C   UNL     1      -3.075   2.351   4.648  0.00  0.00    +0.040 A 
ATOM     36  C   UNL     1      -2.214   1.822   3.706  0.00  0.00    +0.031 A 
ATOM     37  C   UNL     1      -1.092   1.122   4.110  0.00  0.00    +0.109 A 
ATOM     38  F   UNL     1      -3.659   2.692   6.919  0.00  0.00    -0.205 F 
ENDBRANCH  28  37
ENDBRANCH  22  28
ENDBRANCH  21  27
ENDBRANCH   1  21
TORSDOF 8
