REMARK  Name = ZINC39741150
REMARK  12 active torsions:
REMARK  status: ('A' for Active; 'I' for Inactive)
REMARK    1  A    between atoms: C_1  and  C_2
REMARK    2  A    between atoms: C_2  and  C_3
REMARK    3  A    between atoms: C_3  and  C_4
REMARK    4  A    between atoms: C_7  and  C_33
REMARK    5  A    between atoms: C_9  and  C_30
REMARK    6  A    between atoms: N_11  and  C_12
REMARK    7  A    between atoms: C_12  and  C_13
REMARK    8  A    between atoms: C_16  and  C_19
REMARK    9  A    between atoms: C_24  and  C_25
REMARK   10  A    between atoms: C_33  and  C_34
REMARK   11  A    between atoms: C_33  and  C_35
REMARK   12  A    between atoms: C_33  and  O_36
REMARK                            x       y       z     vdW  Elec       q    Type
REMARK                         _______ _______ _______ _____ _____    ______ ____
ROOT
ATOM      1  C   UNL     1       3.296  -3.483   1.168  0.00  0.00    -0.064 A 
ATOM      2  C   UNL     1       3.074  -3.527  -0.196  0.00  0.00    +0.002 A 
ATOM      3  C   UNL     1       4.102  -3.248  -1.075  0.00  0.00    +0.009 A 
ATOM      4  C   UNL     1       5.364  -2.921  -0.585  0.00  0.00    -0.017 A 
ATOM      5  C   UNL     1       5.582  -2.877   0.791  0.00  0.00    +0.009 A 
ATOM      6  C   UNL     1       4.546  -3.153   1.660  0.00  0.00    +0.002 A 
ENDROOT
BRANCH   4   7
ATOM      7  C   UNL     1       6.473  -2.620  -1.524  0.00  0.00    -0.011 A 
ATOM      8  C   UNL     1       6.750  -3.487  -2.579  0.00  0.00    +0.009 A 
ATOM      9  C   UNL     1       7.782  -3.202  -3.450  0.00  0.00    +0.001 A 
ATOM     10  C   UNL     1       8.540  -2.058  -3.277  0.00  0.00    +0.000 A 
ATOM     11  C   UNL     1       8.269  -1.194  -2.232  0.00  0.00    +0.008 A 
ATOM     12  C   UNL     1       7.236  -1.466  -1.358  0.00  0.00    +0.005 A 
BRANCH  12  13
ATOM     13  C   UNL     1       6.938  -0.520  -0.223  0.00  0.00    +0.243 C 
ATOM     14  N   UNL     1       5.484  -0.365  -0.048  0.00  0.00    -0.262 N 
ATOM     15  N   UNL     1       5.239   0.833  -0.242  0.00  0.00    -0.053 NA
ATOM     16  N   UNL     1       6.390   1.557  -0.543  0.00  0.00    -0.053 NA
ATOM     17  N   UNL     1       7.400   0.840  -0.548  0.00  0.00    -0.262 N 
ATOM     18  H   UNL     1       4.846  -1.062   0.175  0.00  0.00    +0.187 HD
ATOM     19  H   UNL     1       8.311   1.117  -0.730  0.00  0.00    +0.187 HD
ENDBRANCH  12  13
ENDBRANCH   4   7
BRANCH   1  20
ATOM     20  C   UNL     1       2.171  -3.789   2.122  0.00  0.00    -0.045 C 
BRANCH  20  25
ATOM     21  C   UNL     1       0.763  -2.041   1.233  0.00  0.00    -0.201 C 
ATOM     22  N   UNL     1      -0.618  -2.573   1.308  0.00  0.00    +0.362 NA
ATOM     23  C   UNL     1      -0.940  -2.471   2.753  0.00  0.00    -0.110 C 
ATOM     24  C   UNL     1       0.395  -2.823   3.445  0.00  0.00    +0.025 C 
ATOM     25  N   UNL     1       1.448  -2.550   2.441  0.00  0.00    +0.377 N 
ATOM     26  H   UNL     1       2.089  -1.855   2.793  0.00  0.00    -0.083 HD
BRANCH  24  27
ATOM     27  C   UNL     1       0.595  -1.956   4.661  0.00  0.00    +0.341 C 
ATOM     28  O   UNL     1      -0.088  -2.134   5.656  0.00  0.00    -0.248 OA
ATOM     29  O   UNL     1       1.440  -1.078   4.651  0.00  0.00    -0.248 OA
ENDBRANCH  24  27
BRANCH  23  30
ATOM     30  C   UNL     1      -2.030  -3.475   3.134  0.00  0.00    +0.040 C 
ATOM     31  C   UNL     1      -2.404  -3.288   4.606  0.00  0.00    +0.039 C 
ATOM     32  C   UNL     1      -3.264  -3.244   2.260  0.00  0.00    +0.039 C 
BRANCH  30  33
ATOM     33  O   UNL     1      -1.545  -4.804   2.932  0.00  0.00    -0.391 OA
ATOM     34  H   UNL     1      -1.288  -4.994   2.019  0.00  0.00    +0.210 HD
ENDBRANCH  30  33
ENDBRANCH  23  30
BRANCH  21  35
ATOM     35  C   UNL     1       0.742  -0.511   1.242  0.00  0.00    -0.042 C 
BRANCH  35  37
ATOM     36  C   UNL     1      -0.019   1.526   0.010  0.00  0.00    +0.004 C 
ATOM     37  C   UNL     1       0.002  -0.004   0.002  0.00  0.00    -0.007 C 
ENDBRANCH  35  37
ENDBRANCH  21  35
ENDBRANCH  20  25
ENDBRANCH   1  20
TORSDOF 9
