REMARK  Name = ZINC40812372
REMARK  6 active torsions:
REMARK  status: ('A' for Active; 'I' for Inactive)
REMARK    1  A    between atoms: C_1  and  C_2
REMARK    2  A    between atoms: C_6  and  C_7
REMARK    3  A    between atoms: N_9  and  C_10
REMARK    4  A    between atoms: C_15  and  C_16
REMARK    5  A    between atoms: N_24  and  N_25
REMARK    6  A    between atoms: C_26  and  C_28
REMARK                            x       y       z     vdW  Elec       q    Type
REMARK                         _______ _______ _______ _____ _____    ______ ____
ROOT
ATOM      1  C   UNL     1      -0.006   1.502   0.010  0.00  0.00    +0.048 C 
ATOM      2  C   UNL     1       0.021  -0.004   0.002  0.00  0.00    +0.009 A 
ATOM      3  C   UNL     1       0.039  -0.839  -1.123  0.00  0.00    +0.042 A 
ATOM      4  C   UNL     1       0.059  -2.138  -0.673  0.00  0.00    +0.115 A 
ATOM      5  O   UNL     1       0.057  -2.112   0.658  0.00  0.00    -0.454 OA
ATOM      6  C   UNL     1       0.039  -0.831   1.091  0.00  0.00    +0.193 A 
ATOM      7  C   UNL     1       0.076  -3.327  -1.599  0.00  0.00    +0.075 C 
ATOM      8  C   UNL     1      -0.440  -2.905  -2.978  0.00  0.00    +0.014 C 
ATOM      9  C   UNL     1       0.330  -1.685  -3.493  0.00  0.00    +0.058 C 
ATOM     10  C   UNL     1       0.040  -0.513  -2.566  0.00  0.00    +0.070 C 
ATOM     11  N   UNL     1      -0.189   0.685  -3.010  0.00  0.00    -0.184 NA
ENDROOT
BRANCH   6  12
ATOM     12  C   UNL     1       0.035  -0.400   2.493  0.00  0.00    +0.284 C 
ATOM     13  O   UNL     1       0.014   0.786   2.765  0.00  0.00    -0.266 OA
ATOM     14  N   UNL     1       0.054  -1.317   3.480  0.00  0.00    -0.278 N 
ATOM     15  H   UNL     1      -0.010  -2.261   3.266  0.00  0.00    +0.155 HD
BRANCH  14  16
ATOM     16  C   UNL     1       0.167  -0.909   4.812  0.00  0.00    +0.045 A 
ATOM     17  C   UNL     1       0.759   0.310   5.119  0.00  0.00    +0.024 A 
ATOM     18  C   UNL     1       0.868   0.711   6.436  0.00  0.00    +0.002 A 
ATOM     19  C   UNL     1       0.389  -0.100   7.449  0.00  0.00    +0.001 A 
ATOM     20  C   UNL     1      -0.201  -1.313   7.147  0.00  0.00    +0.014 A 
ATOM     21  C   UNL     1      -0.318  -1.718   5.832  0.00  0.00    +0.076 A 
BRANCH  21  22
ATOM     22  C   UNL     1      -0.967  -3.038   5.503  0.00  0.00    +0.419 C 
ATOM     23  F   UNL     1      -1.372  -3.666   6.686  0.00  0.00    -0.166 F 
ATOM     24  F   UNL     1      -2.082  -2.819   4.687  0.00  0.00    -0.166 F 
ATOM     25  F   UNL     1      -0.050  -3.854   4.832  0.00  0.00    -0.166 F 
ENDBRANCH  21  22
ENDBRANCH  14  16
ENDBRANCH   6  12
BRANCH  11  26
ATOM     26  N   UNL     1      -0.176   0.936  -4.388  0.00  0.00    -0.203 N 
ATOM     27  C   UNL     1      -0.413   2.180  -4.848  0.00  0.00    +0.266 C 
ATOM     28  O   UNL     1      -0.640   3.085  -4.067  0.00  0.00    -0.268 OA
ATOM     29  H   UNL     1       0.005   0.215  -5.011  0.00  0.00    +0.178 HD
BRANCH  27  30
ATOM     30  C   UNL     1      -0.399   2.445  -6.301  0.00  0.00    +0.073 A 
ATOM     31  C   UNL     1      -0.145   1.408  -7.201  0.00  0.00    +0.016 A 
ATOM     32  C   UNL     1      -0.133   1.662  -8.556  0.00  0.00    +0.001 A 
ATOM     33  C   UNL     1      -0.372   2.942  -9.027  0.00  0.00    +0.003 A 
ATOM     34  C   UNL     1      -0.624   3.975  -8.144  0.00  0.00    +0.039 A 
ATOM     35  C   UNL     1      -0.645   3.735  -6.782  0.00  0.00    +0.136 A 
ATOM     36  F   UNL     1      -0.898   4.744  -5.920  0.00  0.00    -0.205 F 
ENDBRANCH  27  30
ENDBRANCH  11  26
TORSDOF 5
