REMARK  Name = ZINC35752685
REMARK  9 active torsions:
REMARK  status: ('A' for Active; 'I' for Inactive)
REMARK    1  A    between atoms: C_1  and  C_2
REMARK    2  A    between atoms: C_5  and  C_8
REMARK    3  A    between atoms: C_14  and  C_16
REMARK    4  A    between atoms: C_16  and  C_18
REMARK    5  A    between atoms: C_16  and  N_21
REMARK    6  A    between atoms: C_18  and  C_19
REMARK    7  A    between atoms: C_18  and  C_20
REMARK    8  A    between atoms: C_22  and  C_24
REMARK    9  A    between atoms: C_27  and  N_31
REMARK                            x       y       z     vdW  Elec       q    Type
REMARK                         _______ _______ _______ _____ _____    ______ ____
ROOT
ATOM      1  C   UNL     1       0.240 -10.591   0.453  0.00  0.00    +0.162 C 
ENDROOT
BRANCH   1   8
ATOM      2  C   UNL     1      -1.252  -4.440   0.255  0.00  0.00    +0.134 A 
ATOM      3  N   UNL     1      -0.551  -5.098  -0.660  0.00  0.00    -0.140 NA
ATOM      4  N   UNL     1      -0.348  -6.335  -0.499  0.00  0.00    -0.125 NA
ATOM      5  C   UNL     1      -0.813  -6.988   0.549  0.00  0.00    +0.188 A 
ATOM      6  S   UNL     1      -1.603  -5.767   1.400  0.00  0.00    -0.030 S 
ATOM      7  N   UNL     1      -0.680  -8.334   0.871  0.00  0.00    -0.262 N 
ATOM      8  C   UNL     1       0.004  -9.158   0.053  0.00  0.00    +0.239 C 
ATOM      9  O   UNL     1       0.430  -8.746  -1.005  0.00  0.00    -0.273 OA
ATOM     10  H   UNL     1      -1.079  -8.679   1.685  0.00  0.00    +0.157 HD
BRANCH   2  15
ATOM     11  C   UNL     1      -2.725   1.118   0.482  0.00  0.00    +0.044 C 
ATOM     12  C   UNL     1      -2.340  -0.338   0.422  0.00  0.00    -0.050 A 
ATOM     13  C   UNL     1      -1.599  -0.811  -0.646  0.00  0.00    +0.004 A 
ATOM     14  C   UNL     1      -1.243  -2.142  -0.707  0.00  0.00    +0.011 A 
ATOM     15  C   UNL     1      -1.631  -3.012   0.313  0.00  0.00    +0.009 A 
ATOM     16  C   UNL     1      -2.377  -2.528   1.389  0.00  0.00    +0.011 A 
ATOM     17  C   UNL     1      -2.723  -1.194   1.440  0.00  0.00    +0.004 A 
ENDBRANCH   2  15
ENDBRANCH   1   8
BRANCH   1  18
ATOM     18  N   UNL     1       0.403 -11.414  -0.748  0.00  0.00    -0.300 N 
ATOM     19  C   UNL     1       0.126 -12.732  -0.705  0.00  0.00    +0.246 C 
ATOM     20  O   UNL     1      -0.259 -13.239   0.330  0.00  0.00    -0.270 OA
ATOM     21  H   UNL     1       0.710 -11.009  -1.575  0.00  0.00    +0.150 HD
BRANCH  19  22
ATOM     22  C   UNL     1       0.289 -13.561  -1.917  0.00  0.00    +0.055 A 
ATOM     23  C   UNL     1       0.737 -12.983  -3.107  0.00  0.00    +0.017 A 
ATOM     24  C   UNL     1       0.888 -13.763  -4.235  0.00  0.00    +0.033 A 
ATOM     25  C   UNL     1       0.597 -15.115  -4.190  0.00  0.00    +0.128 A 
ATOM     26  C   UNL     1       0.153 -15.695  -3.016  0.00  0.00    +0.053 A 
ATOM     27  C   UNL     1       0.003 -14.928  -1.877  0.00  0.00    +0.055 A 
ATOM     28 CL   UNL     1      -0.548 -15.658  -0.401  0.00  0.00    -0.083 Cl
BRANCH  25  29
ATOM     29  N   UNL     1       0.762 -15.945  -5.404  0.00  0.00    +0.056 N 
ATOM     30  O   UNL     1       1.150 -15.441  -6.433  0.00  0.00    -0.126 OA
ATOM     31  O   UNL     1       0.509 -17.127  -5.369  0.00  0.00    -0.126 OA
ENDBRANCH  25  29
ENDBRANCH  19  22
ENDBRANCH   1  18
BRANCH   1  32
ATOM     32  C   UNL     1       1.507 -10.681   1.308  0.00  0.00    +0.012 C 
ATOM     33  C   UNL     1       2.679 -10.054   0.549  0.00  0.00    +0.009 C 
ATOM     34  C   UNL     1       1.289  -9.928   2.622  0.00  0.00    +0.009 C 
ENDBRANCH   1  32
TORSDOF 6
