REMARK  Name = ZINC19369020
REMARK  7 active torsions:
REMARK  status: ('A' for Active; 'I' for Inactive)
REMARK    1  A    between atoms: N_7  and  C_11
REMARK    2  A    between atoms: C_11  and  N_12
REMARK    3  A    between atoms: N_12  and  C_13
REMARK    4  A    between atoms: C_13  and  C_14
REMARK    5  A    between atoms: C_14  and  N_15
REMARK    6  A    between atoms: N_15  and  C_16
REMARK    7  A    between atoms: C_16  and  N_17
REMARK                            x       y       z     vdW  Elec       q    Type
REMARK                         _______ _______ _______ _____ _____    ______ ____
ROOT
ATOM      1  C   UNL     1       4.204   1.358  -1.455  0.00  0.00    -0.065 C 
ENDROOT
BRANCH   1   2
ATOM      2  N   UNL     1       2.832   1.880  -1.400  0.00  0.00    +0.392 N 
ATOM      3  H   UNL     1       2.165   1.173  -1.916  0.00  0.00    -0.083 HD
ATOM      4  H   UNL     1       2.803   2.852  -1.913  0.00  0.00    -0.083 HD
BRANCH   2   5
ATOM      5  C   UNL     1       2.387   2.046  -0.010  0.00  0.00    +0.045 C 
BRANCH   5  12
ATOM      6  C   UNL     1       1.400   6.277   0.023  0.00  0.00    +0.002 A 
ATOM      7  C   UNL     1       0.067   6.649   0.038  0.00  0.00    +0.001 A 
ATOM      8  C   UNL     1      -0.907   5.666   0.042  0.00  0.00    +0.017 A 
ATOM      9  C   UNL     1      -0.536   4.343   0.031  0.00  0.00    +0.038 A 
ATOM     10  C   UNL     1       0.805   3.933   0.016  0.00  0.00    +0.055 A 
ATOM     11  C   UNL     1       1.771   4.953   0.012  0.00  0.00    +0.027 A 
ATOM     12  N   UNL     1       1.018   2.566   0.006  0.00  0.00    -0.346 N 
ATOM     13  C   UNL     1      -0.021   1.708   0.011  0.00  0.00    +0.125 A 
ATOM     14  S   UNL     1       0.002  -0.004   0.002  0.00  0.00    -0.025 S 
ATOM     15  S   UNL     1      -1.428   2.807   0.023  0.00  0.00    -0.062 S 
ENDBRANCH   5  12
ENDBRANCH   2   5
ENDBRANCH   1   2
BRANCH   1  16
ATOM     16  C   UNL     1       4.631   1.199  -2.916  0.00  0.00    +0.063 C 
BRANCH  16  17
ATOM     17  N   UNL     1       6.003   0.678  -2.971  0.00  0.00    -0.301 NA
ATOM     18  H   UNL     1       6.683   1.380  -2.465  0.00  0.00    +0.124 HD
BRANCH  17  19
ATOM     19  C   UNL     1       6.448   0.512  -4.361  0.00  0.00    +0.207 C 
BRANCH  19  20
ATOM     20  N   UNL     1       7.818  -0.008  -4.377  0.00  0.00    -0.315 N 
ATOM     21  C   UNL     1       8.030  -1.376  -4.387  0.00  0.00    +0.058 A 
ATOM     22  C   UNL     1       7.064  -2.396  -4.384  0.00  0.00    +0.027 A 
ATOM     23  C   UNL     1       7.435  -3.719  -4.395  0.00  0.00    +0.002 A 
ATOM     24  C   UNL     1       8.769  -4.091  -4.410  0.00  0.00    +0.001 A 
ATOM     25  C   UNL     1       9.743  -3.108  -4.414  0.00  0.00    +0.017 A 
ATOM     26  C   UNL     1       9.372  -1.786  -4.402  0.00  0.00    +0.038 A 
ATOM     27  S   UNL     1      10.264  -0.249  -4.402  0.00  0.00    -0.062 S 
ATOM     28  C   UNL     1       8.857   0.850  -4.387  0.00  0.00    +0.128 A 
ATOM     29  S   UNL     1       8.833   2.562  -4.384  0.00  0.00    -0.025 S 
ENDBRANCH  19  20
ENDBRANCH  17  19
ENDBRANCH  16  17
ENDBRANCH   1  16
TORSDOF 7
