REMARK  Name = ZINC16033116
REMARK  10 active torsions:
REMARK  status: ('A' for Active; 'I' for Inactive)
REMARK    1  A    between atoms: C_1  and  C_2
REMARK    2  A    between atoms: C_2  and  C_3
REMARK    3  A    between atoms: C_2  and  C_4
REMARK    4  A    between atoms: C_4  and  C_5
REMARK    5  A    between atoms: C_5  and  C_7
REMARK    6  A    between atoms: C_5  and  N_13
REMARK    7  A    between atoms: N_9  and  C_10
REMARK    8  A    between atoms: C_10  and  C_11
REMARK    9  A    between atoms: C_10  and  C_12
REMARK   10  A    between atoms: C_14  and  C_16
REMARK                            x       y       z     vdW  Elec       q    Type
REMARK                         _______ _______ _______ _____ _____    ______ ____
ROOT
ATOM      1  C   UNL     1      -0.089   3.415   0.350  0.00  0.00    +0.167 C 
ATOM      2  C   UNL     1      -1.018   3.370   1.572  0.00  0.00    +0.069 C 
ATOM      3  C   UNL     1      -1.554   4.747   1.871  0.00  0.00    -0.015 A 
ATOM      4  C   UNL     1      -2.673   5.084   2.733  0.00  0.00    +0.003 A 
ATOM      5  C   UNL     1      -3.547   4.301   3.494  0.00  0.00    +0.010 A 
ATOM      6  C   UNL     1      -4.512   4.967   4.209  0.00  0.00    +0.001 A 
ATOM      7  C   UNL     1      -4.625   6.347   4.184  0.00  0.00    +0.002 A 
ATOM      8  C   UNL     1      -3.774   7.145   3.440  0.00  0.00    +0.026 A 
ATOM      9  C   UNL     1      -2.784   6.497   2.704  0.00  0.00    +0.047 A 
ATOM     10  N   UNL     1      -1.800   6.964   1.881  0.00  0.00    -0.356 N 
ATOM     11  H   UNL     1      -1.638   7.899   1.680  0.00  0.00    +0.166 HD
ATOM     12  C   UNL     1      -1.077   5.914   1.384  0.00  0.00    +0.046 A 
ATOM     13  C   UNL     1       0.087   5.989   0.426  0.00  0.00    +0.155 C 
ATOM     14  N   UNL     1       0.708   4.643   0.436  0.00  0.00    -0.273 N 
ATOM     15  C   UNL     1       2.032   4.786   0.576  0.00  0.00    +0.248 C 
ATOM     16  O   UNL     1       2.852   3.901   0.422  0.00  0.00    -0.270 OA
ATOM     17  C   UNL     1       2.344   6.172   0.940  0.00  0.00    +0.042 A 
ATOM     18  C   UNL     1       1.153   6.924   0.887  0.00  0.00    -0.009 A 
ATOM     19  C   UNL     1       1.129   8.259   1.222  0.00  0.00    +0.006 A 
ATOM     20  C   UNL     1       2.336   8.838   1.603  0.00  0.00    +0.000 A 
ATOM     21  C   UNL     1       3.510   8.113   1.646  0.00  0.00    +0.001 A 
ATOM     22  C   UNL     1       3.550   6.765   1.319  0.00  0.00    +0.013 A 
ENDROOT
BRANCH   1  24
ATOM     23  N   UNL     1       0.667   1.245  -0.565  0.00  0.00    -0.302 N 
ATOM     24  C   UNL     1       0.823   2.215   0.358  0.00  0.00    +0.235 C 
ATOM     25  O   UNL     1       1.699   2.124   1.192  0.00  0.00    -0.274 OA
ATOM     26  H   UNL     1      -0.077   1.281  -1.186  0.00  0.00    +0.150 HD
BRANCH  23  27
ATOM     27  C   UNL     1       1.623   0.136  -0.630  0.00  0.00    +0.159 C 
BRANCH  27  28
ATOM     28  C   UNL     1       1.684  -0.392  -2.040  0.00  0.00    +0.234 C 
ATOM     29  O   UNL     1       0.779  -0.161  -2.814  0.00  0.00    -0.274 OA
ATOM     30  N   UNL     1       2.744  -1.121  -2.441  0.00  0.00    -0.311 N 
ATOM     31  H   UNL     1       3.432  -1.369  -1.803  0.00  0.00    +0.149 HD
BRANCH  30  32
ATOM     32  C   UNL     1       2.857  -1.541  -3.840  0.00  0.00    +0.067 C 
ATOM     33  C   UNL     1       4.330  -1.775  -4.184  0.00  0.00    +0.027 C 
ATOM     34  C   UNL     1       2.072  -2.838  -4.048  0.00  0.00    +0.027 C 
ENDBRANCH  30  32
ENDBRANCH  27  28
BRANCH  27  35
ATOM     35  C   UNL     1       1.173  -0.981   0.314  0.00  0.00    +0.034 C 
BRANCH  35  37
ATOM     36  C   UNL     1       3.512  -1.542   0.988  0.00  0.00    +0.007 C 
ATOM     37  C   UNL     1       2.234  -2.083   0.344  0.00  0.00    -0.015 C 
ATOM     38  C   UNL     1       1.715  -3.270   1.157  0.00  0.00    +0.007 C 
ENDBRANCH  35  37
ENDBRANCH  27  35
ENDBRANCH  23  27
ENDBRANCH   1  24
TORSDOF 6
