REMARK  Name = ZINC21517811
REMARK  6 active torsions:
REMARK  status: ('A' for Active; 'I' for Inactive)
REMARK    1  A    between atoms: C_1  and  C_2
REMARK    2  A    between atoms: C_7  and  S_9
REMARK    3  A    between atoms: S_9  and  C_10
REMARK    4  A    between atoms: C_10  and  C_11
REMARK    5  A    between atoms: N_13  and  C_14
REMARK    6  A    between atoms: C_19  and  N_20
REMARK                            x       y       z     vdW  Elec       q    Type
REMARK                         _______ _______ _______ _____ _____    ______ ____
ROOT
ATOM      1  C   UNL     1      -2.397   1.385  -0.081  0.00  0.00    +0.228 C 
ATOM      2  O   UNL     1      -2.386   0.172  -0.088  0.00  0.00    -0.275 OA
ATOM      3  N   UNL     1      -1.240   2.068   0.019  0.00  0.00    -0.283 N 
ATOM      4  H   UNL     1      -1.255   3.164   0.117  0.00  0.00    +0.155 HD
ENDROOT
BRANCH   3   5
ATOM      5  C   UNL     1      -0.016   1.383  -0.001  0.00  0.00    +0.054 A 
ATOM      6  C   UNL     1       0.075   0.144  -0.616  0.00  0.00    +0.028 A 
ATOM      7  C   UNL     1       1.283  -0.528  -0.640  0.00  0.00    +0.040 A 
ATOM      8  C   UNL     1       2.405   0.033  -0.053  0.00  0.00    +0.125 A 
ATOM      9  C   UNL     1       2.321   1.270   0.562  0.00  0.00    +0.063 A 
ATOM     10  C   UNL     1       1.112   1.950   0.591  0.00  0.00    +0.049 A 
ATOM     11  F   UNL     1       3.582  -0.628  -0.080  0.00  0.00    -0.205 F 
BRANCH  10  12
ATOM     12  N   UNL     1       1.025   3.200   1.212  0.00  0.00    -0.356 N 
ATOM     13  H   UNL     1       1.915   3.646   1.679  0.00  0.00    +0.142 HD
ATOM     14  H   UNL     1       0.065   3.738   1.233  0.00  0.00    +0.142 HD
ENDBRANCH  10  12
ENDBRANCH   3   5
BRANCH   1  15
ATOM     15  C   UNL     1      -3.704   2.127  -0.184  0.00  0.00    +0.173 C 
BRANCH  15  16
ATOM     16  S   UNL     1      -5.065   0.939  -0.304  0.00  0.00    -0.077 S 
BRANCH  16  23
ATOM     17  C   UNL     1     -10.159   1.833  -0.720  0.00  0.00    +0.066 C 
ATOM     18  C   UNL     1      -8.763   2.388  -0.601  0.00  0.00    +0.046 A 
ATOM     19  C   UNL     1      -8.560   3.723  -0.576  0.00  0.00    +0.095 A 
ATOM     20  C   UNL     1      -7.233   4.213  -0.463  0.00  0.00    +0.274 A 
ATOM     21  O   UNL     1      -7.022   5.416  -0.437  0.00  0.00    -0.266 OA
ATOM     22  N   UNL     1      -6.214   3.348  -0.378  0.00  0.00    -0.183 NA
ATOM     23  C   UNL     1      -6.430   2.048  -0.410  0.00  0.00    +0.192 A 
ATOM     24  N   UNL     1      -7.691   1.547  -0.517  0.00  0.00    -0.227 NA
ENDBRANCH  16  23
ENDBRANCH  15  16
ENDBRANCH   1  15
TORSDOF 5
