REMARK  Name = ZINC09464420
REMARK  10 active torsions:
REMARK  status: ('A' for Active; 'I' for Inactive)
REMARK    1  A    between atoms: C_1  and  C_2
REMARK    2  A    between atoms: C_2  and  C_3
REMARK    3  A    between atoms: C_2  and  C_4
REMARK    4  A    between atoms: C_2  and  C_5
REMARK    5  A    between atoms: C_7  and  N_10
REMARK    6  A    between atoms: C_11  and  C_13
REMARK    7  A    between atoms: C_13  and  S_14
REMARK    8  A    between atoms: S_14  and  C_15
REMARK    9  A    between atoms: C_18  and  C_21
REMARK   10  A    between atoms: N_19  and  N_20
REMARK                            x       y       z     vdW  Elec       q    Type
REMARK                         _______ _______ _______ _____ _____    ______ ____
ROOT
ATOM      1  S   UNL     1       2.885  -5.705  -0.184  0.00  0.00    -0.075 S 
ENDROOT
BRANCH   1   2
ATOM      2  C   UNL     1       1.907  -4.243  -0.090  0.00  0.00    +0.209 A 
ATOM      3  N   UNL     1       0.600  -4.186   0.035  0.00  0.00    -0.121 NA
ATOM      4  N   UNL     1       0.213  -2.961   0.079  0.00  0.00    -0.127 NA
ATOM      5  C   UNL     1       1.249  -2.160  -0.026  0.00  0.00    +0.183 A 
ATOM      6  N   UNL     1       2.366  -2.957  -0.134  0.00  0.00    -0.224 N 
BRANCH   5   7
ATOM      7  C   UNL     1       1.221  -0.682  -0.022  0.00  0.00    +0.035 A 
ATOM      8  C   UNL     1       1.939   0.035  -0.981  0.00  0.00    +0.013 A 
ATOM      9  C   UNL     1       1.909   1.413  -0.972  0.00  0.00    +0.001 A 
ATOM     10  C   UNL     1       1.169   2.087  -0.016  0.00  0.00    +0.001 A 
ATOM     11  C   UNL     1       0.456   1.383   0.938  0.00  0.00    +0.016 A 
ATOM     12  C   UNL     1       0.477   0.003   0.940  0.00  0.00    +0.029 A 
ATOM     13 BR   UNL     1      -0.500  -0.958   2.244  0.00  0.00    -0.050 Br
ENDBRANCH   5   7
BRANCH   6  14
ATOM     14  N   UNL     1       3.663  -2.547  -0.257  0.00  0.00    -0.295 N 
ATOM     15  H   UNL     1       4.121  -2.522   0.642  0.00  0.00    +0.163 HD
ATOM     16  H   UNL     1       4.168  -3.135  -0.903  0.00  0.00    +0.163 HD
ENDBRANCH   6  14
ENDBRANCH   1   2
BRANCH   1  17
ATOM     17  C   UNL     1       1.586  -6.960  -0.061  0.00  0.00    +0.173 C 
BRANCH  17  19
ATOM     18  N   UNL     1       1.426  -9.428  -0.047  0.00  0.00    -0.254 N 
ATOM     19  C   UNL     1       2.207  -8.332  -0.121  0.00  0.00    +0.230 C 
ATOM     20  O   UNL     1       3.408  -8.450  -0.235  0.00  0.00    -0.274 OA
ATOM     21  H   UNL     1       0.465  -9.334   0.045  0.00  0.00    +0.158 HD
BRANCH  18  24
ATOM     22  C   UNL     1       2.377 -12.844  -0.139  0.00  0.00    +0.091 A 
ATOM     23  C   UNL     1       1.344 -11.889  -0.040  0.00  0.00    +0.092 A 
ATOM     24  C   UNL     1       1.997 -10.692  -0.102  0.00  0.00    +0.224 A 
ATOM     25  O   UNL     1       3.301 -10.981  -0.232  0.00  0.00    -0.339 OA
ATOM     26  N   UNL     1       3.491 -12.175  -0.246  0.00  0.00    -0.081 NA
BRANCH  22  28
ATOM     27  C   UNL     1       1.669 -14.810  -1.473  0.00  0.00    +0.017 C 
ATOM     28  C   UNL     1       2.223 -14.343  -0.126  0.00  0.00    +0.008 C 
ATOM     29  C   UNL     1       3.586 -14.993   0.118  0.00  0.00    +0.017 C 
ATOM     30  C   UNL     1       1.258 -14.746   0.991  0.00  0.00    +0.017 C 
ENDBRANCH  22  28
ENDBRANCH  18  24
ENDBRANCH  17  19
ENDBRANCH   1  17
TORSDOF 7
