REMARK  Name = ZINC13029143
REMARK  15 active torsions:
REMARK  status: ('A' for Active; 'I' for Inactive)
REMARK    1  A    between atoms: C_1  and  C_2
REMARK    2  A    between atoms: C_2  and  C_3
REMARK    3  A    between atoms: C_2  and  C_4
REMARK    4  A    between atoms: C_2  and  N_5
REMARK    5  A    between atoms: C_6  and  C_8
REMARK    6  A    between atoms: C_8  and  C_10
REMARK    7  A    between atoms: C_8  and  N_20
REMARK    8  A    between atoms: C_12  and  O_18
REMARK    9  A    between atoms: C_14  and  O_16
REMARK   10  A    between atoms: O_16  and  C_17
REMARK   11  A    between atoms: O_18  and  C_19
REMARK   12  A    between atoms: N_20  and  C_21
REMARK   13  A    between atoms: C_21  and  C_22
REMARK   14  A    between atoms: C_27  and  C_29
REMARK   15  A    between atoms: C_29  and  N_30
REMARK                            x       y       z     vdW  Elec       q    Type
REMARK                         _______ _______ _______ _____ _____    ______ ____
ROOT
ATOM      1  C   UNL     1      -2.265   0.708   0.554  0.00  0.00    +0.193 C 
ENDROOT
BRANCH   1   2
ATOM      2  C   UNL     1      -2.289  -0.437  -0.425  0.00  0.00    -0.011 A 
ATOM      3  C   UNL     1      -2.574  -0.200  -1.756  0.00  0.00    +0.051 A 
ATOM      4  C   UNL     1      -2.591  -1.252  -2.661  0.00  0.00    +0.124 A 
ATOM      5  C   UNL     1      -2.334  -2.543  -2.227  0.00  0.00    +0.091 A 
ATOM      6  C   UNL     1      -2.055  -2.779  -0.889  0.00  0.00    +0.124 A 
ATOM      7  C   UNL     1      -2.033  -1.723   0.011  0.00  0.00    +0.051 A 
BRANCH   6   8
ATOM      8  O   UNL     1      -1.802  -4.044  -0.460  0.00  0.00    -0.495 OA
ATOM      9  C   UNL     1      -1.842  -5.082  -1.441  0.00  0.00    +0.277 C 
ENDBRANCH   6   8
BRANCH   4  10
ATOM     10  O   UNL     1      -2.866  -1.018  -3.971  0.00  0.00    -0.495 OA
ATOM     11  C   UNL     1      -2.873  -2.149  -4.845  0.00  0.00    +0.277 C 
ENDBRANCH   4  10
ENDBRANCH   1   2
BRANCH   1  13
ATOM     12  N   UNL     1      -0.039   1.413   1.370  0.00  0.00    -0.309 N 
ATOM     13  C   UNL     1      -0.975   1.472   0.402  0.00  0.00    +0.239 C 
ATOM     14  O   UNL     1      -0.780   2.140  -0.591  0.00  0.00    -0.273 OA
ATOM     15  H   UNL     1      -0.195   0.878   2.164  0.00  0.00    +0.149 HD
BRANCH  12  17
ATOM     16  C   UNL     1       0.919   3.646   1.092  0.00  0.00    +0.031 C 
ATOM     17  C   UNL     1       1.218   2.151   1.219  0.00  0.00    +0.026 C 
ATOM     18  C   UNL     1       2.101   1.909   2.445  0.00  0.00    +0.031 C 
ATOM     19  C   UNL     1       1.946   1.667  -0.037  0.00  0.00    +0.031 C 
ENDBRANCH  12  17
ENDBRANCH   1  13
BRANCH   1  20
ATOM     20  N   UNL     1      -3.396   1.601   0.289  0.00  0.00    -0.277 N 
ATOM     21  C   UNL     1      -4.651   1.109   0.260  0.00  0.00    +0.238 C 
ATOM     22  O   UNL     1      -4.843  -0.072   0.453  0.00  0.00    -0.274 OA
BRANCH  20  23
ATOM     23  C   UNL     1      -3.163   3.028   0.057  0.00  0.00    +0.183 C 
BRANCH  23  24
ATOM     24  C   UNL     1      -3.166   3.303  -1.425  0.00  0.00    +0.122 A 
ATOM     25  C   UNL     1      -4.208   3.766  -2.138  0.00  0.00    +0.046 A 
ATOM     26  C   UNL     1      -3.773   3.874  -3.478  0.00  0.00    +0.041 A 
ATOM     27  C   UNL     1      -2.490   3.471  -3.505  0.00  0.00    +0.195 A 
ATOM     28  O   UNL     1      -2.126   3.131  -2.258  0.00  0.00    -0.466 OA
ENDBRANCH  23  24
ENDBRANCH  20  23
BRANCH  21  29
ATOM     29  C   UNL     1      -5.814   2.028  -0.012  0.00  0.00    +0.241 C 
BRANCH  29  30
ATOM     30  N   UNL     1      -7.060   1.258   0.009  0.00  0.00    -0.235 N 
ATOM     31  C   UNL     1      -7.860   1.018   1.101  0.00  0.00    +0.090 A 
ATOM     32  C   UNL     1      -7.795   1.375   2.443  0.00  0.00    +0.029 A 
ATOM     33  C   UNL     1      -8.777   0.967   3.302  0.00  0.00    +0.002 A 
ATOM     34  C   UNL     1      -9.841   0.199   2.847  0.00  0.00    +0.002 A 
ATOM     35  C   UNL     1      -9.927  -0.164   1.535  0.00  0.00    +0.032 A 
ATOM     36  C   UNL     1      -8.934   0.240   0.633  0.00  0.00    +0.113 A 
ATOM     37  N   UNL     1      -8.751   0.042  -0.688  0.00  0.00    -0.129 NA
ATOM     38  N   UNL     1      -7.674   0.625  -1.082  0.00  0.00    -0.064 NA
ENDBRANCH  29  30
ENDBRANCH  21  29
ENDBRANCH   1  20
TORSDOF 10
