REMARK  Name = ZINC05127370
REMARK  8 active torsions:
REMARK  status: ('A' for Active; 'I' for Inactive)
REMARK    1  A    between atoms: C_1  and  C_2
REMARK    2  A    between atoms: C_5  and  N_8
REMARK    3  A    between atoms: C_13  and  C_14
REMARK    4  A    between atoms: C_13  and  C_15
REMARK    5  A    between atoms: C_15  and  C_16
REMARK    6  A    between atoms: N_22  and  C_23
REMARK    7  A    between atoms: C_24  and  C_30
REMARK    8  A    between atoms: C_28  and  C_29
REMARK                            x       y       z     vdW  Elec       q    Type
REMARK                         _______ _______ _______ _____ _____    ______ ____
ROOT
ATOM      1  N   UNL     1      -6.248   2.316  -0.908  0.00  0.00    -0.270 N 
ATOM      2  C   UNL     1      -5.627   1.139  -0.701  0.00  0.00    +0.143 C 
ATOM      3  S   UNL     1      -6.425  -0.376  -0.702  0.00  0.00    -0.018 S 
ATOM      4  N   UNL     1      -4.316   1.290  -0.494  0.00  0.00    -0.286 N 
ATOM      5  C   UNL     1      -3.943   2.544  -0.541  0.00  0.00    +0.094 C 
ATOM      6  C   UNL     1      -5.199   3.347  -0.816  0.00  0.00    +0.094 C 
ATOM      7  C   UNL     1      -5.486   4.311   0.336  0.00  0.00    +0.040 C 
ATOM      8  N   UNL     1      -2.685   3.028  -0.371  0.00  0.00    -0.304 N 
ATOM      9  H   UNL     1      -2.485   4.101  -0.509  0.00  0.00    +0.153 HD
ATOM     10  H   UNL     1      -3.574   0.502  -0.300  0.00  0.00    +0.155 HD
ENDROOT
BRANCH   8  11
ATOM     11  C   UNL     1      -1.644   2.163  -0.022  0.00  0.00    +0.038 A 
ATOM     12  C   UNL     1      -1.329   1.086  -0.841  0.00  0.00    -0.029 A 
ATOM     13  C   UNL     1      -0.304   0.230  -0.490  0.00  0.00    +0.005 A 
ATOM     14  C   UNL     1       0.416   0.450   0.670  0.00  0.00    +0.001 A 
ATOM     15  C   UNL     1       0.110   1.525   1.484  0.00  0.00    +0.005 A 
ATOM     16  C   UNL     1      -0.918   2.381   1.142  0.00  0.00    -0.029 A 
ATOM     17  C   UNL     1      -1.252   3.552   2.030  0.00  0.00    +0.045 C 
ATOM     18  C   UNL     1      -2.110   0.849  -2.108  0.00  0.00    +0.045 C 
ENDBRANCH   8  11
BRANCH   1  23
ATOM     19  C   UNL     1     -11.771   3.138  -1.909  0.00  0.00    +0.044 C 
ATOM     20  C   UNL     1     -10.304   2.920  -1.643  0.00  0.00    -0.050 A 
ATOM     21  C   UNL     1      -9.513   2.308  -2.599  0.00  0.00    +0.005 A 
ATOM     22  C   UNL     1      -8.168   2.106  -2.358  0.00  0.00    +0.024 A 
ATOM     23  C   UNL     1      -7.610   2.519  -1.155  0.00  0.00    +0.036 A 
ATOM     24  C   UNL     1      -8.408   3.128  -0.195  0.00  0.00    +0.024 A 
ATOM     25  C   UNL     1      -9.751   3.331  -0.444  0.00  0.00    +0.005 A 
ENDBRANCH   1  23
BRANCH   6  26
ATOM     26  C   UNL     1      -5.074   4.106  -2.139  0.00  0.00    +0.068 C 
BRANCH  26  27
ATOM     27  C   UNL     1      -3.982   5.138  -2.025  0.00  0.00    -0.045 A 
ATOM     28  C   UNL     1      -4.251   6.370  -1.458  0.00  0.00    +0.004 A 
ATOM     29  C   UNL     1      -3.248   7.315  -1.349  0.00  0.00    +0.000 A 
ATOM     30  C   UNL     1      -1.978   7.032  -1.815  0.00  0.00    +0.000 A 
ATOM     31  C   UNL     1      -1.710   5.802  -2.388  0.00  0.00    +0.000 A 
ATOM     32  C   UNL     1      -2.712   4.855  -2.492  0.00  0.00    +0.004 A 
ENDBRANCH  26  27
ENDBRANCH   6  26
TORSDOF 4
