REMARK  Name = ZINC47006964
REMARK  7 active torsions:
REMARK  status: ('A' for Active; 'I' for Inactive)
REMARK    1  A    between atoms: C_1  and  C_2
REMARK    2  A    between atoms: C_3  and  C_8
REMARK    3  A    between atoms: N_6  and  C_7
REMARK    4  A    between atoms: C_8  and  C_10
REMARK    5  A    between atoms: C_8  and  N_11
REMARK    6  A    between atoms: N_14  and  N_15
REMARK    7  A    between atoms: N_15  and  C_16
REMARK                            x       y       z     vdW  Elec       q    Type
REMARK                         _______ _______ _______ _____ _____    ______ ____
ROOT
ATOM      1  N   UNL     1       0.884  -1.400  -3.233  0.00  0.00    -0.292 N 
ATOM      2  C   UNL     1       1.314  -1.104  -4.476  0.00  0.00    +0.316 C 
ATOM      3  O   UNL     1       1.482   0.056  -4.801  0.00  0.00    -0.251 OA
ATOM      4  N   UNL     1       1.557  -2.093  -5.359  0.00  0.00    -0.220 N 
ATOM      5  H   UNL     1       0.750  -2.325  -2.974  0.00  0.00    +0.151 HD
ATOM      6  H   UNL     1       1.866  -1.879  -6.253  0.00  0.00    +0.174 HD
ENDROOT
BRANCH   1   7
ATOM      7  C   UNL     1       0.620  -0.325  -2.274  0.00  0.00    +0.105 C 
ATOM      8  C   UNL     1      -0.801   0.205  -2.480  0.00  0.00    +0.033 C 
BRANCH   7  11
ATOM      9  C   UNL     1       1.097   1.380   0.306  0.00  0.00    +0.065 C 
ATOM     10  C   UNL     1       0.965  -0.120   0.244  0.00  0.00    +0.041 A 
ATOM     11  C   UNL     1       0.758  -0.858  -0.871  0.00  0.00    +0.013 A 
ATOM     12  C   UNL     1       0.696  -2.203  -0.492  0.00  0.00    +0.140 A 
ATOM     13  N   UNL     1       0.859  -2.270   0.804  0.00  0.00    -0.179 NA
ATOM     14  N   UNL     1       1.036  -0.969   1.291  0.00  0.00    -0.271 N 
ATOM     15  C   UNL     1       1.256  -0.594   2.691  0.00  0.00    +0.172 C 
ENDBRANCH   7  11
ENDBRANCH   1   7
BRANCH   4  16
ATOM     16  N   UNL     1       1.363  -3.429  -4.984  0.00  0.00    -0.261 N 
ATOM     17  H   UNL     1       0.976  -3.639  -4.120  0.00  0.00    +0.170 HD
BRANCH  16  18
ATOM     18  C   UNL     1       1.728  -4.460  -5.857  0.00  0.00    +0.081 A 
ATOM     19  C   UNL     1       0.961  -5.617  -5.927  0.00  0.00    +0.066 A 
ATOM     20  C   UNL     1       1.324  -6.633  -6.790  0.00  0.00    +0.042 A 
ATOM     21  C   UNL     1       2.449  -6.500  -7.584  0.00  0.00    +0.044 A 
ATOM     22  C   UNL     1       3.214  -5.349  -7.517  0.00  0.00    +0.042 A 
ATOM     23  C   UNL     1       2.853  -4.326  -6.660  0.00  0.00    +0.066 A 
ATOM     24 CL   UNL     1       3.810  -2.879  -6.583  0.00  0.00    -0.081 Cl
ATOM     25 CL   UNL     1       2.902  -7.779  -8.666  0.00  0.00    -0.083 Cl
ATOM     26 CL   UNL     1      -0.450  -5.785  -4.930  0.00  0.00    -0.081 Cl
ENDBRANCH  16  18
ENDBRANCH   4  16
TORSDOF 4
