REMARK  Name = ZINC39772449
REMARK  14 active torsions:
REMARK  status: ('A' for Active; 'I' for Inactive)
REMARK    1  A    between atoms: C_1  and  C_2
REMARK    2  A    between atoms: C_2  and  C_3
REMARK    3  A    between atoms: C_8  and  N_9
REMARK    4  A    between atoms: C_10  and  C_12
REMARK    5  A    between atoms: C_12  and  C_13
REMARK    6  A    between atoms: C_16  and  S_20
REMARK    7  A    between atoms: N_17  and  C_18
REMARK    8  A    between atoms: C_18  and  C_19
REMARK    9  A    between atoms: S_20  and  C_21
REMARK   10  A    between atoms: C_21  and  C_23
REMARK   11  A    between atoms: C_21  and  C_24
REMARK   12  A    between atoms: C_29  and  C_33
REMARK   13  A    between atoms: C_30  and  C_32
REMARK   14  A    between atoms: C_33  and  C_34
REMARK                            x       y       z     vdW  Elec       q    Type
REMARK                         _______ _______ _______ _____ _____    ______ ____
ROOT
ATOM      1  C   UNL     1      -3.993  -0.687   5.069  0.00  0.00    +0.143 A 
ATOM      2  N   UNL     1      -4.416  -1.853   5.468  0.00  0.00    -0.133 NA
ATOM      3  N   UNL     1      -4.782  -1.792   6.699  0.00  0.00    -0.122 NA
ATOM      4  C   UNL     1      -4.611  -0.573   7.155  0.00  0.00    +0.192 A 
ATOM      5  N   UNL     1      -4.097   0.169   6.130  0.00  0.00    -0.306 N 
ENDROOT
BRANCH   5   6
ATOM      6  C   UNL     1      -3.736   1.588   6.160  0.00  0.00    +0.122 C 
ATOM      7  C   UNL     1      -4.947   2.432   5.758  0.00  0.00    +0.027 C 
ENDBRANCH   5   6
BRANCH   1   8
ATOM      8  C   UNL     1      -3.478  -0.347   3.694  0.00  0.00    +0.172 C 
BRANCH   8  10
ATOM      9  N   UNL     1      -1.309  -0.339   2.505  0.00  0.00    -0.285 N 
ATOM     10  C   UNL     1      -1.990  -0.578   3.643  0.00  0.00    +0.225 C 
ATOM     11  O   UNL     1      -1.405  -0.980   4.627  0.00  0.00    -0.275 OA
ATOM     12  H   UNL     1      -1.764   0.044   1.739  0.00  0.00    +0.155 HD
BRANCH   9  18
ATOM     13  C   UNL     1       0.600  -1.100   1.236  0.00  0.00    -0.026 A 
ATOM     14  C   UNL     1       1.948  -1.393   1.163  0.00  0.00    +0.005 A 
ATOM     15  C   UNL     1       2.753  -1.237   2.276  0.00  0.00    +0.000 A 
ATOM     16  C   UNL     1       2.212  -0.786   3.466  0.00  0.00    +0.002 A 
ATOM     17  C   UNL     1       0.865  -0.491   3.546  0.00  0.00    +0.023 A 
ATOM     18  C   UNL     1       0.055  -0.642   2.429  0.00  0.00    +0.037 A 
BRANCH  13  20
ATOM     19  C   UNL     1      -0.393   0.066  -0.714  0.00  0.00    +0.009 C 
ATOM     20  C   UNL     1      -0.277  -1.270   0.022  0.00  0.00    +0.033 C 
ENDBRANCH  13  20
ENDBRANCH   9  18
ENDBRANCH   8  10
ENDBRANCH   1   8
BRANCH   4  21
ATOM     21  S   UNL     1      -4.970  -0.003   8.783  0.00  0.00    -0.074 S 
BRANCH  21  22
ATOM     22  C   UNL     1      -5.610  -1.474   9.631  0.00  0.00    +0.137 C 
ATOM     23  C   UNL     1      -4.502  -2.524   9.736  0.00  0.00    +0.029 C 
BRANCH  22  24
ATOM     24  C   UNL     1      -6.075  -1.094  11.014  0.00  0.00    +0.232 C 
ATOM     25  O   UNL     1      -5.672  -0.073  11.530  0.00  0.00    -0.274 OA
ATOM     26  N   UNL     1      -6.938  -1.889  11.676  0.00  0.00    -0.264 N 
ATOM     27  C   UNL     1      -7.367  -1.539  12.951  0.00  0.00    +0.165 A 
ATOM     28  N   UNL     1      -8.193  -2.188  13.743  0.00  0.00    -0.229 NA
ATOM     29  C   UNL     1      -8.504  -1.719  14.937  0.00  0.00    +0.053 A 
ATOM     30  C   UNL     1      -7.934  -0.545  15.305  0.00  0.00    +0.011 A 
ATOM     31  S   UNL     1      -6.949  -0.186  13.860  0.00  0.00    -0.057 S 
ATOM     32  C   UNL     1      -8.086   0.238  16.584  0.00  0.00    +0.053 C 
ATOM     33  H   UNL     1      -7.260  -2.706  11.264  0.00  0.00    +0.157 HD
BRANCH  29  34
ATOM     34  C   UNL     1      -9.450  -2.455  15.850  0.00  0.00    +0.053 C 
ATOM     35  C   UNL     1      -8.659  -3.423  16.731  0.00  0.00    +0.010 C 
ENDBRANCH  29  34
ENDBRANCH  22  24
ENDBRANCH  21  22
ENDBRANCH   4  21
TORSDOF 9
