REMARK  Name = ZINC05445445
REMARK  7 active torsions:
REMARK  status: ('A' for Active; 'I' for Inactive)
REMARK    1  A    between atoms: C_3  and  N_11
REMARK    2  A    between atoms: C_6  and  N_7
REMARK    3  A    between atoms: N_11  and  N_12
REMARK    4  A    between atoms: C_15  and  C_20
REMARK    5  A    between atoms: C_15  and  C_22
REMARK    6  A    between atoms: C_20  and  O_21
REMARK    7  A    between atoms: C_22  and  O_23
REMARK                            x       y       z     vdW  Elec       q    Type
REMARK                         _______ _______ _______ _____ _____    ______ ____
ROOT
ATOM      1  N   UNL     1      -1.169  -0.709   0.181  0.00  0.00    -0.246 N 
ATOM      2  C   UNL     1       0.002  -0.004   0.002  0.00  0.00    +0.196 C 
ATOM      3  N   UNL     1       1.115  -0.637  -0.172  0.00  0.00    -0.354 N 
ATOM      4  C   UNL     1       2.392   0.046  -0.355  0.00  0.00    +0.120 C 
ATOM      5  C   UNL     1       2.178   1.478  -0.848  0.00  0.00    +0.265 C 
ATOM      6  O   UNL     1       1.182   2.123   0.002  0.00  0.00    -0.457 OA
ATOM      7  C   UNL     1      -0.018   1.488   0.010  0.00  0.00    +0.372 C 
ATOM      8  O   UNL     1      -1.062   2.108   0.019  0.00  0.00    -0.242 OA
ATOM      9  H   UNL     1      -2.117  -0.171   0.330  0.00  0.00    +0.172 HD
ATOM     10  H   UNL     1       1.126  -1.737  -0.187  0.00  0.00    +0.162 HD
ENDROOT
BRANCH   1  11
ATOM     11  N   UNL     1      -1.152  -2.110   0.174  0.00  0.00    -0.264 N 
ATOM     12  H   UNL     1      -0.204  -2.647   0.025  0.00  0.00    +0.170 HD
BRANCH  11  15
ATOM     13  C   UNL     1      -4.709  -2.856   0.722  0.00  0.00    +0.034 A 
ATOM     14  C   UNL     1      -3.537  -2.147   0.543  0.00  0.00    +0.028 A 
ATOM     15  C   UNL     1      -2.339  -2.824   0.355  0.00  0.00    +0.058 A 
ATOM     16  C   UNL     1      -2.324  -4.214   0.342  0.00  0.00    +0.042 A 
ATOM     17  C   UNL     1      -3.499  -4.917   0.527  0.00  0.00    +0.050 A 
ATOM     18  C   UNL     1      -4.690  -4.239   0.714  0.00  0.00    +0.127 A 
ATOM     19 BR   UNL     1      -0.698  -5.141   0.080  0.00  0.00    -0.048 Br
BRANCH  18  20
ATOM     20  N   UNL     1      -5.948  -4.995   0.905  0.00  0.00    +0.056 N 
ATOM     21  O   UNL     1      -6.998  -4.399   1.069  0.00  0.00    -0.126 OA
ATOM     22  O   UNL     1      -5.934  -6.213   0.898  0.00  0.00    -0.126 OA
ENDBRANCH  18  20
ENDBRANCH  11  15
ENDBRANCH   1  11
BRANCH   4  23
ATOM     23  C   UNL     1       3.140   0.080   0.979  0.00  0.00    +0.189 C 
BRANCH  23  24
ATOM     24  O   UNL     1       3.371  -1.257   1.429  0.00  0.00    -0.393 OA
ATOM     25  H   UNL     1       3.900  -1.434   2.377  0.00  0.00    +0.210 HD
ENDBRANCH  23  24
ENDBRANCH   4  23
BRANCH   4  26
ATOM     26  C   UNL     1       3.229  -0.720  -1.381  0.00  0.00    +0.189 C 
BRANCH  26  27
ATOM     27  O   UNL     1       3.361  -2.081  -0.968  0.00  0.00    -0.393 OA
ATOM     28  H   UNL     1       3.934  -2.790  -1.584  0.00  0.00    +0.210 HD
ENDBRANCH  26  27
ENDBRANCH   4  26
TORSDOF 7
