REMARK  Name = ZINC40010995
REMARK  14 active torsions:
REMARK  status: ('A' for Active; 'I' for Inactive)
REMARK    1  A    between atoms: C_1  and  C_2
REMARK    2  A    between atoms: C_2  and  O_3
REMARK    3  A    between atoms: O_3  and  C_4
REMARK    4  A    between atoms: C_4  and  C_5
REMARK    5  A    between atoms: C_5  and  C_6
REMARK    6  A    between atoms: C_6  and  N_7
REMARK    7  A    between atoms: N_7  and  C_8
REMARK    8  A    between atoms: C_8  and  N_10
REMARK    9  A    between atoms: C_15  and  O_36
REMARK   10  A    between atoms: C_16  and  O_34
REMARK   11  A    between atoms: C_19  and  C_21
REMARK   12  A    between atoms: C_28  and  C_33
REMARK   13  A    between atoms: O_34  and  C_35
REMARK   14  A    between atoms: O_36  and  C_37
REMARK                            x       y       z     vdW  Elec       q    Type
REMARK                         _______ _______ _______ _____ _____    ______ ____
ROOT
ATOM      1  N   UNL     1       2.917  -5.787  -5.430  0.00  0.00    -0.304 N 
ATOM      2  C   UNL     1       3.414  -4.744  -6.342  0.00  0.00    +0.112 C 
ATOM      3  C   UNL     1       4.935  -4.867  -6.412  0.00  0.00    +0.054 C 
ATOM      4  C   UNL     1       5.348  -6.299  -6.632  0.00  0.00    -0.037 A 
ATOM      5  C   UNL     1       6.622  -6.530  -7.138  0.00  0.00    +0.053 A 
ATOM      6  C   UNL     1       7.070  -7.819  -7.355  0.00  0.00    +0.162 A 
ATOM      7  C   UNL     1       6.238  -8.896  -7.063  0.00  0.00    +0.162 A 
ATOM      8  C   UNL     1       4.971  -8.663  -6.563  0.00  0.00    +0.055 A 
ATOM      9  C   UNL     1       4.523  -7.365  -6.352  0.00  0.00    -0.019 A 
ATOM     10  C   UNL     1       3.124  -7.184  -5.827  0.00  0.00    +0.121 C 
ENDROOT
BRANCH  10  11
ATOM     11  C   UNL     1       2.914  -8.095  -4.616  0.00  0.00    +0.123 C 
ATOM     12  C   UNL     1       3.758  -7.557  -3.478  0.00  0.00    -0.003 C 
ATOM     13  C   UNL     1       4.684  -8.398  -2.935  0.00  0.00    -0.007 A 
ATOM     14  C   UNL     1       5.541  -7.960  -1.832  0.00  0.00    +0.009 A 
ATOM     15  C   UNL     1       6.449  -8.831  -1.323  0.00  0.00    +0.001 A 
ATOM     16  C   UNL     1       6.578 -10.125  -1.830  0.00  0.00    +0.005 A 
ATOM     17  C   UNL     1       5.814 -10.591  -2.851  0.00  0.00    -0.029 A 
ATOM     18  C   UNL     1       4.841  -9.769  -3.449  0.00  0.00    +0.043 A 
ATOM     19  N   UNL     1       4.096 -10.238  -4.450  0.00  0.00    -0.284 N 
ATOM     20  C   UNL     1       3.168  -9.519  -5.057  0.00  0.00    +0.226 C 
ATOM     21  O   UNL     1       2.520 -10.002  -5.966  0.00  0.00    -0.275 OA
ATOM     22  C   UNL     1       6.009 -12.001  -3.347  0.00  0.00    +0.045 C 
ATOM     23  H   UNL     1       4.243 -11.149  -4.748  0.00  0.00    +0.155 HD
ENDBRANCH  10  11
BRANCH   1  24
ATOM     24  C   UNL     1       2.303  -5.472  -4.273  0.00  0.00    +0.133 C 
ATOM     25  S   UNL     1       1.634  -6.707  -3.294  0.00  0.00    -0.019 S 
BRANCH  24  26
ATOM     26  N   UNL     1       2.214  -4.184  -3.886  0.00  0.00    -0.326 N 
ATOM     27  H   UNL     1       2.656  -3.491  -4.402  0.00  0.00    +0.148 HD
BRANCH  26  28
ATOM     28  C   UNL     1       1.450  -3.830  -2.687  0.00  0.00    +0.105 C 
BRANCH  28  29
ATOM     29  C   UNL     1       1.508  -2.316  -2.474  0.00  0.00    +0.047 C 
BRANCH  29  30
ATOM     30  C   UNL     1       0.710  -1.946  -1.222  0.00  0.00    +0.161 C 
BRANCH  30  31
ATOM     31  O   UNL     1       0.765  -0.532  -1.022  0.00  0.00    -0.380 OA
BRANCH  31  33
ATOM     32  C   UNL     1       0.174   1.441   0.241  0.00  0.00    +0.034 C 
ATOM     33  C   UNL     1       0.047  -0.079   0.127  0.00  0.00    +0.156 C 
ENDBRANCH  31  33
ENDBRANCH  30  31
ENDBRANCH  29  30
ENDBRANCH  28  29
ENDBRANCH  26  28
ENDBRANCH  24  26
ENDBRANCH   1  24
BRANCH   7  34
ATOM     34  O   UNL     1       6.669 -10.170  -7.268  0.00  0.00    -0.491 OA
ATOM     35  C   UNL     1       5.759 -11.223  -6.944  0.00  0.00    +0.277 C 
ENDBRANCH   7  34
BRANCH   6  36
ATOM     36  O   UNL     1       8.318  -8.035  -7.851  0.00  0.00    -0.491 OA
ATOM     37  C   UNL     1       9.114  -6.881  -8.127  0.00  0.00    +0.277 C 
ENDBRANCH   6  36
TORSDOF 10
