REMARK  Name = ZINC40983992
REMARK  8 active torsions:
REMARK  status: ('A' for Active; 'I' for Inactive)
REMARK    1  A    between atoms: C_1  and  C_2
REMARK    2  A    between atoms: C_5  and  N_8
REMARK    3  A    between atoms: C_13  and  C_15
REMARK    4  A    between atoms: C_16  and  C_18
REMARK    5  A    between atoms: N_21  and  C_24
REMARK    6  A    between atoms: C_24  and  C_25
REMARK    7  A    between atoms: C_26  and  C_37
REMARK    8  A    between atoms: C_28  and  C_30
REMARK                            x       y       z     vdW  Elec       q    Type
REMARK                         _______ _______ _______ _____ _____    ______ ____
ROOT
ATOM      1  C   UNL     1      -1.080  -8.736  -1.455  0.00  0.00    +0.072 C 
ATOM      2  C   UNL     1       0.229  -8.450  -2.198  0.00  0.00    -0.006 C 
ATOM      3  C   UNL     1       0.266  -9.272  -3.488  0.00  0.00    -0.078 C 
ATOM      4  N   UNL     1       0.188 -10.701  -3.164  0.00  0.00    +0.383 N 
ATOM      5  C   UNL     1      -1.095 -10.996  -2.515  0.00  0.00    -0.078 C 
ATOM      6  C   UNL     1      -1.185 -10.240  -1.188  0.00  0.00    -0.006 C 
ATOM      7  H   UNL     1       0.943 -10.946  -2.540  0.00  0.00    -0.081 HD
ENDROOT
BRANCH   1  15
ATOM      8  N   UNL     1      -3.243  -4.652   0.223  0.00  0.00    -0.324 N 
ATOM      9  C   UNL     1      -2.753  -5.322   1.435  0.00  0.00    +0.124 C 
ATOM     10  C   UNL     1      -1.375  -5.925   1.139  0.00  0.00    +0.126 C 
ATOM     11  N   UNL     1      -1.456  -6.693  -0.111  0.00  0.00    -0.298 N 
ATOM     12  C   UNL     1      -1.946  -6.022  -1.324  0.00  0.00    +0.130 C 
ATOM     13  C   UNL     1      -3.330  -5.421  -1.026  0.00  0.00    +0.088 C 
ATOM     14  C   UNL     1      -4.358  -6.543  -0.868  0.00  0.00    +0.029 C 
ATOM     15  C   UNL     1      -1.089  -7.989  -0.146  0.00  0.00    +0.219 C 
ATOM     16  O   UNL     1      -0.766  -8.555   0.877  0.00  0.00    -0.275 OA
BRANCH   8  21
ATOM     17  C   UNL     1      -4.791   0.802   0.367  0.00  0.00    +0.044 C 
ATOM     18  C   UNL     1      -4.380  -0.647   0.329  0.00  0.00    -0.050 A 
ATOM     19  C   UNL     1      -4.382  -1.333  -0.872  0.00  0.00    +0.005 A 
ATOM     20  C   UNL     1      -4.005  -2.662  -0.911  0.00  0.00    +0.023 A 
ATOM     21  C   UNL     1      -3.624  -3.308   0.258  0.00  0.00    +0.030 A 
ATOM     22  C   UNL     1      -3.623  -2.616   1.462  0.00  0.00    +0.023 A 
ATOM     23  C   UNL     1      -3.995  -1.286   1.493  0.00  0.00    +0.005 A 
ENDBRANCH   8  21
ENDBRANCH   1  15
BRANCH   4  24
ATOM     24  C   UNL     1       0.303 -11.489  -4.398  0.00  0.00    -0.019 C 
BRANCH  24  25
ATOM     25  C   UNL     1       0.346 -12.956  -4.056  0.00  0.00    +0.066 A 
ATOM     26  C   UNL     1       1.453 -13.678  -3.801  0.00  0.00    +0.124 A 
ATOM     27  O   UNL     1       1.056 -14.940  -3.542  0.00  0.00    -0.440 OA
ATOM     28  C   UNL     1      -0.284 -14.975  -3.641  0.00  0.00    +0.228 A 
ATOM     29  N   UNL     1      -0.712 -13.773  -3.946  0.00  0.00    -0.216 NA
ATOM     30  C   UNL     1       2.872 -13.170  -3.806  0.00  0.00    +0.088 C 
BRANCH  28  31
ATOM     31  C   UNL     1      -1.133 -16.168  -3.434  0.00  0.00    +0.038 A 
ATOM     32  C   UNL     1      -2.519 -16.074  -3.573  0.00  0.00    +0.013 A 
ATOM     33  C   UNL     1      -3.306 -17.189  -3.379  0.00  0.00    +0.002 A 
ATOM     34  C   UNL     1      -2.725 -18.401  -3.047  0.00  0.00    +0.020 A 
ATOM     35  C   UNL     1      -1.352 -18.501  -2.907  0.00  0.00    +0.042 A 
ATOM     36  C   UNL     1      -0.552 -17.393  -3.105  0.00  0.00    +0.033 A 
ATOM     37 CL   UNL     1      -0.633 -20.025  -2.489  0.00  0.00    -0.084 Cl
ENDBRANCH  28  31
ENDBRANCH  24  25
ENDBRANCH   4  24
TORSDOF 5
