REMARK  Name = ZINC04505647
REMARK  6 active torsions:
REMARK  status: ('A' for Active; 'I' for Inactive)
REMARK    1  A    between atoms: C_1  and  O_2
REMARK    2  A    between atoms: O_2  and  C_3
REMARK    3  A    between atoms: C_5  and  C_11
REMARK    4  A    between atoms: C_7  and  O_9
REMARK    5  A    between atoms: O_9  and  C_10
REMARK    6  A    between atoms: N_19  and  C_20
REMARK                            x       y       z     vdW  Elec       q    Type
REMARK                         _______ _______ _______ _____ _____    ______ ____
ROOT
ATOM      1  C   UNL     1       3.777   6.356   0.006  0.00  0.00    +0.166 C 
ATOM      2  N   UNL     1       2.537   5.558   0.008  0.00  0.00    -0.269 N 
ATOM      3  C   UNL     1       1.288   6.314   0.024  0.00  0.00    +0.121 C 
ATOM      4  C   UNL     1       1.464   7.657   0.791  0.00  0.00    +0.090 C 
ATOM      5  S   UNL     1       3.165   8.082   0.204  0.00  0.00    -0.132 S 
ATOM      6  C   UNL     1       2.555   4.210   0.000  0.00  0.00    +0.304 C 
ATOM      7  O   UNL     1       3.616   3.616  -0.013  0.00  0.00    -0.253 OA
ATOM      8  N   UNL     1       1.397   3.520   0.008  0.00  0.00    -0.294 N 
ATOM      9  H   UNL     1       0.550   3.994   0.018  0.00  0.00    +0.151 HD
ENDROOT
BRANCH   8  10
ATOM     10  C   UNL     1       1.417   2.055  -0.000  0.00  0.00    +0.037 C 
ATOM     11  C   UNL     1      -0.019   1.526   0.010  0.00  0.00    +0.029 C 
ATOM     12  C   UNL     1       0.002  -0.004   0.002  0.00  0.00    -0.008 C 
ATOM     13  C   UNL     1       0.718  -0.497  -1.257  0.00  0.00    +0.007 C 
ATOM     14  C   UNL     1       2.154   0.032  -1.268  0.00  0.00    -0.008 C 
ATOM     15  C   UNL     1       2.133   1.562  -1.259  0.00  0.00    +0.029 C 
ATOM     16  C   UNL     1       2.894  -0.475  -0.028  0.00  0.00    +0.007 C 
ATOM     17  C   UNL     1       2.178   0.019   1.231  0.00  0.00    -0.008 C 
ATOM     18  C   UNL     1       0.742  -0.511   1.242  0.00  0.00    +0.007 C 
ATOM     19  C   UNL     1       2.157   1.548   1.239  0.00  0.00    +0.029 C 
ENDBRANCH   8  10
BRANCH   1  22
ATOM     20  C   UNL     1       6.563   6.157  -2.542  0.00  0.00    +0.124 A 
ATOM     21  C   UNL     1       5.886   6.301  -1.339  0.00  0.00    +0.052 A 
ATOM     22  C   UNL     1       4.509   6.199  -1.302  0.00  0.00    -0.010 A 
ATOM     23  C   UNL     1       3.802   5.949  -2.462  0.00  0.00    +0.052 A 
ATOM     24  C   UNL     1       4.473   5.810  -3.669  0.00  0.00    +0.124 A 
ATOM     25  C   UNL     1       5.855   5.911  -3.708  0.00  0.00    +0.091 A 
BRANCH  20  27
ATOM     26  C   UNL     1       8.547   6.098  -3.850  0.00  0.00    +0.277 C 
ATOM     27  O   UNL     1       7.917   6.257  -2.577  0.00  0.00    -0.495 OA
ENDBRANCH  20  27
BRANCH  24  28
ATOM     28  O   UNL     1       3.776   5.569  -4.811  0.00  0.00    -0.495 OA
ATOM     29  C   UNL     1       4.532   5.432  -6.016  0.00  0.00    +0.277 C 
ENDBRANCH  24  28
ENDBRANCH   1  22
TORSDOF 4
