REMARK  Name = ZINC39708526
REMARK  9 active torsions:
REMARK  status: ('A' for Active; 'I' for Inactive)
REMARK    1  A    between atoms: C_1  and  C_2
REMARK    2  A    between atoms: C_6  and  C_8
REMARK    3  A    between atoms: N_10  and  C_11
REMARK    4  A    between atoms: C_11  and  C_12
REMARK    5  A    between atoms: C_15  and  S_25
REMARK    6  A    between atoms: N_16  and  C_17
REMARK    7  A    between atoms: S_25  and  C_26
REMARK    8  A    between atoms: C_26  and  C_27
REMARK    9  A    between atoms: C_27  and  C_29
REMARK                            x       y       z     vdW  Elec       q    Type
REMARK                         _______ _______ _______ _____ _____    ______ ____
ROOT
ATOM      1  C   UNL     1       0.104  -6.416   3.418  0.00  0.00    +0.156 A 
ATOM      2  N   UNL     1      -0.936  -7.187   3.268  0.00  0.00    -0.132 NA
ATOM      3  N   UNL     1      -0.562  -8.393   3.032  0.00  0.00    -0.122 NA
ATOM      4  C   UNL     1       0.749  -8.461   3.016  0.00  0.00    +0.197 A 
ATOM      5  N   UNL     1       1.217  -7.198   3.257  0.00  0.00    -0.273 N 
ENDROOT
BRANCH   5   6
ATOM      6  C   UNL     1       2.557  -6.790   3.327  0.00  0.00    +0.052 A 
ATOM      7  C   UNL     1       3.062  -5.899   2.390  0.00  0.00    +0.028 A 
ATOM      8  C   UNL     1       4.382  -5.498   2.460  0.00  0.00    +0.023 A 
ATOM      9  C   UNL     1       5.202  -5.984   3.463  0.00  0.00    +0.059 A 
ATOM     10  C   UNL     1       4.701  -6.873   4.399  0.00  0.00    +0.061 A 
ATOM     11  C   UNL     1       3.378  -7.272   4.336  0.00  0.00    +0.047 A 
ATOM     12 CL   UNL     1       5.732  -7.482   5.656  0.00  0.00    -0.082 Cl
ATOM     13 CL   UNL     1       6.860  -5.479   3.548  0.00  0.00    -0.082 Cl
ENDBRANCH   5   6
BRANCH   1  14
ATOM     14  C   UNL     1       0.086  -4.937   3.707  0.00  0.00    +0.181 C 
BRANCH  14  17
ATOM     15  C   UNL     1       0.052  -2.845   2.458  0.00  0.00    +0.244 C 
ATOM     16  O   UNL     1       0.049  -2.248   3.516  0.00  0.00    -0.270 OA
ATOM     17  N   UNL     1       0.070  -4.193   2.445  0.00  0.00    -0.304 N 
ATOM     18  H   UNL     1       0.072  -4.670   1.601  0.00  0.00    +0.149 HD
BRANCH  15  24
ATOM     19  C   UNL     1      -0.018   1.503   0.010  0.00  0.00    +0.044 C 
ATOM     20  C   UNL     1       0.002  -0.004   0.002  0.00  0.00    -0.050 A 
ATOM     21  C   UNL     1       0.006  -0.688  -1.201  0.00  0.00    +0.003 A 
ATOM     22  C   UNL     1       0.025  -2.071  -1.218  0.00  0.00    +0.001 A 
ATOM     23  C   UNL     1       0.040  -2.778  -0.033  0.00  0.00    +0.013 A 
ATOM     24  C   UNL     1       0.036  -2.095   1.184  0.00  0.00    +0.037 A 
ATOM     25  C   UNL     1       0.023  -0.699   1.194  0.00  0.00    +0.016 A 
ENDBRANCH  15  24
ENDBRANCH  14  17
ENDBRANCH   1  14
BRANCH   4  26
ATOM     26  S   UNL     1       1.721  -9.902   2.732  0.00  0.00    -0.078 S 
BRANCH  26  27
ATOM     27  C   UNL     1       0.495 -11.215   2.477  0.00  0.00    +0.157 C 
BRANCH  27  28
ATOM     28  C   UNL     1       1.203 -12.520   2.220  0.00  0.00    +0.173 C 
ATOM     29  O   UNL     1       2.415 -12.561   2.210  0.00  0.00    -0.291 OA
BRANCH  28  30
ATOM     30  C   UNL     1       0.424 -13.746   1.980  0.00  0.00    +0.018 A 
ATOM     31  C   UNL     1      -0.974 -13.701   1.985  0.00  0.00    +0.011 A 
ATOM     32  C   UNL     1      -1.698 -14.854   1.760  0.00  0.00    +0.001 A 
ATOM     33  C   UNL     1      -1.044 -16.052   1.529  0.00  0.00    +0.000 A 
ATOM     34  C   UNL     1       0.339 -16.103   1.524  0.00  0.00    +0.001 A 
ATOM     35  C   UNL     1       1.077 -14.959   1.742  0.00  0.00    +0.011 A 
ENDBRANCH  28  30
ENDBRANCH  27  28
ENDBRANCH  26  27
ENDBRANCH   4  26
TORSDOF 8
