REMARK  Name = ZINC40138678
REMARK  10 active torsions:
REMARK  status: ('A' for Active; 'I' for Inactive)
REMARK    1  A    between atoms: C_1  and  C_2
REMARK    2  A    between atoms: C_7  and  O_8
REMARK    3  A    between atoms: O_8  and  C_9
REMARK    4  A    between atoms: C_9  and  C_10
REMARK    5  A    between atoms: N_12  and  N_13
REMARK    6  A    between atoms: N_21  and  C_24
REMARK    7  A    between atoms: C_24  and  C_25
REMARK    8  A    between atoms: C_25  and  C_26
REMARK    9  A    between atoms: C_26  and  O_27
REMARK   10  A    between atoms: O_27  and  C_28
REMARK                            x       y       z     vdW  Elec       q    Type
REMARK                         _______ _______ _______ _____ _____    ______ ____
ROOT
ATOM      1  N   UNL     1       0.066   0.412   7.134  0.00  0.00    -0.174 NA
ATOM      2  C   UNL     1       0.084  -0.097   8.341  0.00  0.00    +0.153 C 
ATOM      3  C   UNL     1       0.081   0.635   9.629  0.00  0.00    +0.030 A 
ATOM      4  C   UNL     1       0.059   1.987   9.956  0.00  0.00    +0.032 A 
ATOM      5  C   UNL     1       0.063   2.371  11.283  0.00  0.00    +0.042 A 
ATOM      6  C   UNL     1       0.089   1.411  12.283  0.00  0.00    +0.022 A 
ATOM      7  C   UNL     1       0.110   0.068  11.967  0.00  0.00    +0.025 A 
ATOM      8  C   UNL     1       0.106  -0.337  10.637  0.00  0.00    +0.046 A 
ATOM      9  N   UNL     1       0.124  -1.601  10.056  0.00  0.00    -0.265 N 
ATOM     10  C   UNL     1       0.106  -1.526   8.715  0.00  0.00    +0.271 C 
ATOM     11  O   UNL     1       0.110  -2.468   7.944  0.00  0.00    -0.268 OA
ATOM     12 CL   UNL     1       0.037   4.056  11.698  0.00  0.00    -0.084 Cl
ENDROOT
BRANCH   1  15
ATOM     13  C   UNL     1       0.047   0.090   4.775  0.00  0.00    +0.270 C 
ATOM     14  O   UNL     1       0.030   1.293   4.625  0.00  0.00    -0.270 OA
ATOM     15  N   UNL     1       0.066  -0.433   6.017  0.00  0.00    -0.203 N 
ATOM     16  H   UNL     1       0.080  -1.396   6.137  0.00  0.00    +0.177 HD
BRANCH  13  17
ATOM     17  C   UNL     1       0.048  -0.820   3.574  0.00  0.00    +0.326 C 
BRANCH  17  18
ATOM     18  O   UNL     1       0.025  -0.033   2.381  0.00  0.00    -0.482 OA
BRANCH  18  25
ATOM     19  C   UNL     1      -0.018   1.503   0.010  0.00  0.00    +0.047 C 
ATOM     20  C   UNL     1       0.002  -0.004   0.002  0.00  0.00    -0.009 A 
ATOM     21  C   UNL     1       0.006  -0.689  -1.198  0.00  0.00    +0.007 A 
ATOM     22  C   UNL     1       0.024  -2.071  -1.206  0.00  0.00    +0.000 A 
ATOM     23  C   UNL     1       0.039  -2.772  -0.014  0.00  0.00    +0.004 A 
ATOM     24  C   UNL     1       0.036  -2.092   1.188  0.00  0.00    +0.046 A 
ATOM     25  C   UNL     1       0.023  -0.705   1.199  0.00  0.00    +0.124 A 
ENDBRANCH  18  25
ENDBRANCH  17  18
ENDBRANCH  13  17
ENDBRANCH   1  15
BRANCH   9  26
ATOM     26  C   UNL     1       0.153  -2.856  10.812  0.00  0.00    +0.117 C 
BRANCH  26  27
ATOM     27  C   UNL     1      -1.280  -3.319  11.086  0.00  0.00    +0.060 C 
BRANCH  27  28
ATOM     28  C   UNL     1      -1.250  -4.629  11.876  0.00  0.00    +0.230 C 
BRANCH  28  29
ATOM     29  O   UNL     1      -2.588  -5.061  12.132  0.00  0.00    -0.492 OA
BRANCH  29  30
ATOM     30  C   UNL     1      -2.740  -6.218  12.828  0.00  0.00    +0.121 A 
ATOM     31  C   UNL     1      -1.624  -6.920  13.261  0.00  0.00    +0.047 A 
ATOM     32  C   UNL     1      -1.781  -8.096  13.968  0.00  0.00    +0.023 A 
ATOM     33  C   UNL     1      -3.049  -8.575  14.245  0.00  0.00    +0.041 A 
ATOM     34  C   UNL     1      -4.163  -7.876  13.814  0.00  0.00    +0.023 A 
ATOM     35  C   UNL     1      -4.011  -6.697  13.112  0.00  0.00    +0.047 A 
ATOM     36 CL   UNL     1      -3.243 -10.053  15.134  0.00  0.00    -0.084 Cl
ENDBRANCH  29  30
ENDBRANCH  28  29
ENDBRANCH  27  28
ENDBRANCH  26  27
ENDBRANCH   9  26
TORSDOF 9
