REMARK  Name = ZINC06189026
REMARK  2 active torsions:
REMARK  status: ('A' for Active; 'I' for Inactive)
REMARK    1  A    between atoms: C_5  and  N_8
REMARK    2  A    between atoms: N_8  and  N_9
REMARK                            x       y       z     vdW  Elec       q    Type
REMARK                         _______ _______ _______ _____ _____    ______ ____
ROOT
ATOM      1  N   UNL     1       1.240  -2.076  -0.022  0.00  0.00    -0.234 N 
ATOM      2  H   UNL     1       2.057  -2.547  -0.250  0.00  0.00    +0.174 HD
ENDROOT
BRANCH   1   7
ATOM      3  C   UNL     1      -0.017   1.378   0.010  0.00  0.00    +0.042 A 
ATOM      4  C   UNL     1       1.171   2.088   0.002  0.00  0.00    +0.044 A 
ATOM      5  C   UNL     1       2.382   1.417  -0.013  0.00  0.00    +0.042 A 
ATOM      6  C   UNL     1       2.409   0.036  -0.022  0.00  0.00    +0.066 A 
ATOM      7  C   UNL     1       1.217  -0.681  -0.014  0.00  0.00    +0.085 A 
ATOM      8  C   UNL     1       0.002  -0.004   0.002  0.00  0.00    +0.066 A 
ATOM      9 CL   UNL     1      -1.489  -0.893   0.012  0.00  0.00    -0.081 Cl
ATOM     10 CL   UNL     1       3.928  -0.804  -0.042  0.00  0.00    -0.081 Cl
ATOM     11 CL   UNL     1       1.143   3.823   0.012  0.00  0.00    -0.083 Cl
ENDBRANCH   1   7
BRANCH   1  12
ATOM     12  N   UNL     1       0.083  -2.798   0.300  0.00  0.00    -0.174 NA
ATOM     13  C   UNL     1       0.104  -4.112   0.292  0.00  0.00    +0.140 C 
ATOM     14  C   UNL     1       1.175  -5.000  -0.001  0.00  0.00    +0.150 C 
ATOM     15  N   UNL     1       0.961  -6.268   0.055  0.00  0.00    -0.228 NA
ATOM     16  C   UNL     1      -0.253  -6.768   0.386  0.00  0.00    +0.187 C 
ATOM     17  N   UNL     1      -0.632  -8.021   0.488  0.00  0.00    -0.276 NA
ATOM     18  S   UNL     1      -1.203  -5.278   0.656  0.00  0.00    -0.028 S 
ATOM     19  H   UNL     1       0.002  -8.735   0.314  0.00  0.00    +0.189 HD
ENDBRANCH   1  12
TORSDOF 2
