REMARK  Name = ZINC19566306
REMARK  6 active torsions:
REMARK  status: ('A' for Active; 'I' for Inactive)
REMARK    1  A    between atoms: C_1  and  C_2
REMARK    2  A    between atoms: C_10  and  C_11
REMARK    3  A    between atoms: N_13  and  C_14
REMARK    4  A    between atoms: C_14  and  C_16
REMARK    5  A    between atoms: C_14  and  C_17
REMARK    6  A    between atoms: C_17  and  N_18
REMARK                            x       y       z     vdW  Elec       q    Type
REMARK                         _______ _______ _______ _____ _____    ______ ____
ROOT
ATOM      1  C   UNL     1      -5.144   1.414   5.939  0.00  0.00    +0.087 C 
ATOM      2  C   UNL     1      -4.376   1.639   7.243  0.00  0.00    +0.029 C 
ENDROOT
BRANCH   1   5
ATOM      3  C   UNL     1      -7.040   0.021   6.571  0.00  0.00    +0.280 C 
ATOM      4  O   UNL     1      -7.567   1.007   7.050  0.00  0.00    -0.267 OA
ATOM      5  N   UNL     1      -5.827   0.120   5.991  0.00  0.00    -0.305 N 
ATOM      6  H   UNL     1      -5.351  -0.772   5.557  0.00  0.00    +0.149 HD
BRANCH   3  16
ATOM      7  C   UNL     1      -9.833  -0.476   7.845  0.00  0.00    +0.048 C 
ATOM      8  C   UNL     1      -8.946  -1.496   7.179  0.00  0.00    +0.008 A 
ATOM      9  C   UNL     1      -9.223  -2.921   7.001  0.00  0.00    +0.024 A 
ATOM     10  C   UNL     1     -10.290  -3.755   7.344  0.00  0.00    +0.012 A 
ATOM     11  C   UNL     1     -10.241  -5.082   7.025  0.00  0.00    +0.001 A 
ATOM     12  C   UNL     1      -9.139  -5.606   6.362  0.00  0.00    +0.004 A 
ATOM     13  C   UNL     1      -8.077  -4.800   6.015  0.00  0.00    +0.047 A 
ATOM     14  C   UNL     1      -8.104  -3.446   6.329  0.00  0.00    +0.136 A 
ATOM     15  O   UNL     1      -7.242  -2.433   6.120  0.00  0.00    -0.450 OA
ATOM     16  C   UNL     1      -7.726  -1.278   6.623  0.00  0.00    +0.193 A 
ENDBRANCH   3  16
ENDBRANCH   1   5
BRANCH   1  17
ATOM     17  C   UNL     1      -4.165   1.427   4.763  0.00  0.00    +0.126 C 
BRANCH  17  18
ATOM     18  N   UNL     1      -4.880   1.094   3.529  0.00  0.00    -0.313 N 
ATOM     19  C   UNL     1      -4.206   1.045   2.338  0.00  0.00    +0.196 A 
ATOM     20  N   UNL     1      -4.880   0.734   1.198  0.00  0.00    -0.295 N 
ATOM     21  H   UNL     1      -5.960   0.529   1.237  0.00  0.00    +0.172 HD
ATOM     22  C   UNL     1      -4.214   0.681   0.027  0.00  0.00    +0.256 A 
ATOM     23  O   UNL     1      -4.802   0.405  -1.006  0.00  0.00    -0.267 OA
ATOM     24  C   UNL     1      -2.829   0.950   0.012  0.00  0.00    +0.038 A 
ATOM     25  C   UNL     1      -2.208   1.262   1.178  0.00  0.00    +0.053 A 
ATOM     26  N   UNL     1      -2.915   1.298   2.314  0.00  0.00    -0.221 NA
ATOM     27  C   UNL     1      -0.738   1.584   1.257  0.00  0.00    +0.056 C 
ATOM     28  C   UNL     1      -0.013   1.086   0.008  0.00  0.00    +0.006 C 
ATOM     29  C   UNL     1      -0.765   1.599  -1.226  0.00  0.00    +0.005 C 
ATOM     30  C   UNL     1      -2.107   0.874  -1.306  0.00  0.00    +0.042 C 
ATOM     31  H   UNL     1      -5.960   0.884   3.558  0.00  0.00    +0.149 HD
ENDBRANCH  17  18
ENDBRANCH   1  17
TORSDOF 4
