REMARK  Name = ZINC65265818
REMARK  7 active torsions:
REMARK  status: ('A' for Active; 'I' for Inactive)
REMARK    1  A    between atoms: C_1  and  C_2
REMARK    2  A    between atoms: C_6  and  C_8
REMARK    3  A    between atoms: C_8  and  C_9
REMARK    4  A    between atoms: N_26  and  C_27
REMARK    5  A    between atoms: C_27  and  C_28
REMARK    6  A    between atoms: C_28  and  O_29
REMARK    7  A    between atoms: O_29  and  C_30
REMARK                            x       y       z     vdW  Elec       q    Type
REMARK                         _______ _______ _______ _____ _____    ______ ____
ROOT
ATOM      1  C   UNL     1       1.524  -3.038   2.919  0.00  0.00    +0.220 C 
ATOM      2  O   UNL     1       2.445  -2.634   2.241  0.00  0.00    -0.275 OA
ATOM      3  N   UNL     1       1.772  -3.713   4.059  0.00  0.00    -0.299 N 
ATOM      4  C   UNL     1       0.753  -4.264   4.971  0.00  0.00    +0.110 C 
ATOM      5  C   UNL     1       1.472  -5.412   5.728  0.00  0.00    +0.050 C 
ATOM      6  C   UNL     1       2.891  -4.837   5.880  0.00  0.00    +0.091 C 
ATOM      7  C   UNL     1       3.107  -4.027   4.597  0.00  0.00    +0.137 C 
ATOM      8  C   UNL     1       3.912  -5.912   6.040  0.00  0.00    +0.095 C 
ATOM      9  N   UNL     1       4.195  -6.306   7.325  0.00  0.00    -0.303 N 
ATOM     10  C   UNL     1       5.200  -5.646   8.025  0.00  0.00    +0.037 A 
ATOM     11  C   UNL     1       6.137  -6.373   8.746  0.00  0.00    +0.023 A 
ATOM     12  C   UNL     1       7.127  -5.721   9.454  0.00  0.00    +0.002 A 
ATOM     13  C   UNL     1       7.175  -4.339   9.437  0.00  0.00    +0.000 A 
ATOM     14  C   UNL     1       6.248  -3.617   8.717  0.00  0.00    +0.007 A 
ATOM     15  C   UNL     1       5.249  -4.258   7.992  0.00  0.00    -0.012 A 
ATOM     16  C   UNL     1       4.308  -3.380   7.207  0.00  0.00    +0.119 C 
ATOM     17  N   UNL     1       2.966  -3.962   7.073  0.00  0.00    -0.299 NA
ATOM     18  N   UNL     1       4.500  -6.447   5.020  0.00  0.00    -0.373 N 
ATOM     19  H   UNL     1       2.261  -3.241   7.037  0.00  0.00    +0.123 HD
ATOM     20  H   UNL     1       4.223  -6.210   4.121  0.00  0.00    +0.161 HD
ATOM     21  H   UNL     1       3.702  -7.033   7.738  0.00  0.00    +0.153 HD
ENDROOT
BRANCH   1  22
ATOM     22  C   UNL     1       0.103  -2.786   2.486  0.00  0.00    +0.131 C 
BRANCH  22  28
ATOM     23  C   UNL     1       0.086   1.575   0.033  0.00  0.00    +0.044 C 
ATOM     24  C   UNL     1       0.092   0.068   0.016  0.00  0.00    -0.050 A 
ATOM     25  C   UNL     1       0.095  -0.609  -1.189  0.00  0.00    +0.003 A 
ATOM     26  C   UNL     1       0.100  -1.992  -1.204  0.00  0.00    +0.001 A 
ATOM     27  C   UNL     1       0.103  -2.696  -0.015  0.00  0.00    +0.004 A 
ATOM     28  C   UNL     1       0.101  -2.018   1.190  0.00  0.00    -0.038 A 
ATOM     29  C   UNL     1       0.100  -0.636   1.205  0.00  0.00    +0.007 A 
ENDBRANCH  22  28
ENDBRANCH   1  22
BRANCH  18  30
ATOM     30  C   UNL     1       5.586  -7.410   5.223  0.00  0.00    +0.141 C 
BRANCH  30  31
ATOM     31  C   UNL     1       6.105  -7.886   3.864  0.00  0.00    +0.180 C 
BRANCH  31  32
ATOM     32  O   UNL     1       6.699  -6.788   3.170  0.00  0.00    -0.381 OA
ATOM     33  C   UNL     1       7.218  -7.127   1.882  0.00  0.00    +0.194 C 
ENDBRANCH  31  32
ENDBRANCH  30  31
ENDBRANCH  18  30
TORSDOF 5
