REMARK  Name = ZINC15449305
REMARK  7 active torsions:
REMARK  status: ('A' for Active; 'I' for Inactive)
REMARK    1  A    between atoms: C_1  and  C_2
REMARK    2  A    between atoms: C_2  and  C_3
REMARK    3  A    between atoms: C_14  and  C_15
REMARK    4  A    between atoms: C_14  and  O_17
REMARK    5  A    between atoms: O_17  and  C_18
REMARK    6  A    between atoms: C_18  and  C_20
REMARK    7  A    between atoms: N_26  and  O_27
REMARK                            x       y       z     vdW  Elec       q    Type
REMARK                         _______ _______ _______ _____ _____    ______ ____
ROOT
ATOM      1  C   UNL     1       0.343  -3.054   3.133  0.00  0.00    +0.025 C 
ATOM      2  C   UNL     1       1.373  -2.010   3.484  0.00  0.00    +0.012 C 
ATOM      3  C   UNL     1       0.929  -0.655   2.896  0.00  0.00    +0.005 C 
ATOM      4  C   UNL     1       0.796  -0.754   1.383  0.00  0.00    -0.000 C 
ATOM      5  C   UNL     1      -0.236  -1.814   0.982  0.00  0.00    -0.003 C 
ATOM      6  C   UNL     1       0.159  -3.121   1.605  0.00  0.00    +0.004 C 
ATOM      7  C   UNL     1      -0.788  -4.317   1.457  0.00  0.00    +0.009 C 
ATOM      8  C   UNL     1      -0.207  -5.333   2.482  0.00  0.00    +0.062 C 
ATOM      9  C   UNL     1       0.684  -4.518   3.457  0.00  0.00    +0.179 C 
ATOM     10  C   UNL     1      -1.642  -1.345   1.324  0.00  0.00    +0.008 C 
ATOM     11  C   UNL     1      -1.971  -0.132   0.440  0.00  0.00    +0.031 C 
ATOM     12  C   UNL     1      -0.943   0.943   0.741  0.00  0.00    -0.064 C 
ATOM     13  C   UNL     1      -1.396   2.160   1.022  0.00  0.00    +0.026 C 
ATOM     14  C   UNL     1      -0.467   3.274   1.269  0.00  0.00    +0.080 C 
ATOM     15  N   UNL     1      -0.873   4.391   1.792  0.00  0.00    -0.092 NA
ATOM     16  C   UNL     1       0.984   3.062   0.889  0.00  0.00    +0.059 C 
ATOM     17  C   UNL     1       1.389   1.666   1.360  0.00  0.00    +0.014 C 
ATOM     18  C   UNL     1       0.511   0.592   0.733  0.00  0.00    +0.019 C 
ENDROOT
BRANCH   1  20
ATOM     19  C   UNL     1      -0.683  -2.661   5.381  0.00  0.00    +0.004 C 
ATOM     20  C   UNL     1      -0.964  -2.760   3.880  0.00  0.00    +0.009 C 
ENDBRANCH   1  20
BRANCH   9  21
ATOM     21  C   UNL     1       2.101  -4.814   3.235  0.00  0.00    -0.058 C 
ATOM     22  C   UNL     1       3.237  -5.051   3.056  0.00  0.00    +0.008 C 
ENDBRANCH   9  21
BRANCH  15  23
ATOM     23  O   UNL     1       0.048   5.443   2.016  0.00  0.00    -0.409 OA
ATOM     24  H   UNL     1      -0.347   6.234   2.409  0.00  0.00    +0.328 HD
ENDBRANCH  15  23
BRANCH   9  25
ATOM     25  O   UNL     1       0.311  -4.808   4.831  0.00  0.00    -0.445 OA
BRANCH  25  26
ATOM     26  C   UNL     1       0.544  -6.053   5.276  0.00  0.00    +0.305 C 
ATOM     27  O   UNL     1       1.042  -6.873   4.542  0.00  0.00    -0.251 OA
ATOM     28  C   UNL     1       0.183  -6.428   6.690  0.00  0.00    +0.136 C 
ENDBRANCH  25  26
ENDBRANCH   9  25
TORSDOF 5
