REMARK  Name = ZINC40207996
REMARK  9 active torsions:
REMARK  status: ('A' for Active; 'I' for Inactive)
REMARK    1  A    between atoms: C_8  and  C_26
REMARK    2  A    between atoms: N_9  and  C_10
REMARK    3  A    between atoms: C_10  and  C_11
REMARK    4  A    between atoms: N_13  and  C_14
REMARK    5  A    between atoms: N_13  and  C_20
REMARK    6  A    between atoms: C_26  and  C_27
REMARK    7  A    between atoms: C_27  and  C_28
REMARK    8  A    between atoms: C_28  and  N_29
REMARK    9  A    between atoms: C_30  and  C_32
REMARK                            x       y       z     vdW  Elec       q    Type
REMARK                         _______ _______ _______ _____ _____    ______ ____
ROOT
ATOM      1  C   UNL     1       0.692   2.497  -0.469  0.00  0.00    +0.002 A 
ATOM      2  C   UNL     1       2.026   2.877  -0.517  0.00  0.00    +0.002 A 
ATOM      3  C   UNL     1       3.025   1.935  -0.392  0.00  0.00    +0.028 A 
ATOM      4  C   UNL     1       2.693   0.599  -0.217  0.00  0.00    +0.069 A 
ATOM      5  C   UNL     1       1.342   0.215  -0.168  0.00  0.00    +0.089 A 
ATOM      6  C   UNL     1       0.346   1.187  -0.297  0.00  0.00    +0.030 A 
ATOM      7  N   UNL     1       1.320  -1.131   0.009  0.00  0.00    -0.232 NA
ATOM      8  C   UNL     1       2.538  -1.585   0.070  0.00  0.00    +0.111 A 
ATOM      9  N   UNL     1       3.425  -0.562  -0.064  0.00  0.00    -0.319 N 
ENDROOT
BRANCH   9  10
ATOM     10  C   UNL     1       4.885  -0.671  -0.048  0.00  0.00    +0.219 C 
BRANCH  10  11
ATOM     11  C   UNL     1       5.385  -0.524   1.366  0.00  0.00    +0.236 C 
ATOM     12  O   UNL     1       4.602  -0.553   2.292  0.00  0.00    -0.274 OA
ATOM     13  N   UNL     1       6.702  -0.361   1.602  0.00  0.00    -0.294 N 
BRANCH  13  14
ATOM     14  C   UNL     1       7.207  -0.373   2.977  0.00  0.00    +0.076 C 
ATOM     15  C   UNL     1       6.879  -1.718   3.629  0.00  0.00    +0.022 C 
ATOM     16  C   UNL     1       7.407  -1.730   5.065  0.00  0.00    +0.002 C 
ATOM     17  C   UNL     1       6.746  -0.603   5.861  0.00  0.00    +0.000 C 
ATOM     18  C   UNL     1       7.074   0.742   5.209  0.00  0.00    +0.002 C 
ATOM     19  C   UNL     1       6.546   0.754   3.773  0.00  0.00    +0.022 C 
ENDBRANCH  13  14
BRANCH  13  20
ATOM     20  C   UNL     1       7.628  -0.171   0.483  0.00  0.00    +0.076 C 
ATOM     21  C   UNL     1       7.320   1.155  -0.215  0.00  0.00    +0.022 C 
ATOM     22  C   UNL     1       8.287   1.353  -1.384  0.00  0.00    +0.002 C 
ATOM     23  C   UNL     1       8.127   0.203  -2.380  0.00  0.00    +0.000 C 
ATOM     24  C   UNL     1       8.435  -1.123  -1.682  0.00  0.00    +0.002 C 
ATOM     25  C   UNL     1       7.468  -1.321  -0.513  0.00  0.00    +0.022 C 
ENDBRANCH  13  20
ENDBRANCH  10  11
ENDBRANCH   9  10
BRANCH   8  26
ATOM     26  C   UNL     1       2.912  -3.032   0.261  0.00  0.00    +0.076 C 
BRANCH  26  27
ATOM     27  C   UNL     1       3.040  -3.710  -1.105  0.00  0.00    +0.026 C 
BRANCH  27  28
ATOM     28  C   UNL     1       3.420  -5.179  -0.911  0.00  0.00    +0.105 C 
BRANCH  28  29
ATOM     29  N   UNL     1       3.542  -5.829  -2.219  0.00  0.00    -0.311 N 
ATOM     30  C   UNL     1       3.872  -7.133  -2.295  0.00  0.00    +0.244 C 
ATOM     31  O   UNL     1       4.066  -7.771  -1.279  0.00  0.00    -0.270 OA
ATOM     32  H   UNL     1       3.387  -5.319  -3.029  0.00  0.00    +0.149 HD
BRANCH  30  33
ATOM     33  C   UNL     1       3.995  -7.788  -3.613  0.00  0.00    +0.037 A 
ATOM     34  C   UNL     1       3.778  -7.056  -4.782  0.00  0.00    +0.016 A 
ATOM     35  C   UNL     1       3.895  -7.671  -6.010  0.00  0.00    +0.039 A 
ATOM     36  C   UNL     1       4.228  -9.015  -6.085  0.00  0.00    +0.123 A 
ATOM     37  C   UNL     1       4.445  -9.747  -4.928  0.00  0.00    +0.039 A 
ATOM     38  C   UNL     1       4.336  -9.140  -3.695  0.00  0.00    +0.016 A 
ATOM     39  F   UNL     1       4.340  -9.614  -7.291  0.00  0.00    -0.205 F 
ENDBRANCH  30  33
ENDBRANCH  28  29
ENDBRANCH  27  28
ENDBRANCH  26  27
ENDBRANCH   8  26
TORSDOF 9
