REMARK  Name = ZINC05066285
REMARK  4 active torsions:
REMARK  status: ('A' for Active; 'I' for Inactive)
REMARK    1  A    between atoms: C_1  and  O_2
REMARK    2  A    between atoms: O_2  and  C_3
REMARK    3  A    between atoms: C_6  and  N_9
REMARK    4  A    between atoms: C_17  and  C_18
REMARK                            x       y       z     vdW  Elec       q    Type
REMARK                         _______ _______ _______ _____ _____    ______ ____
ROOT
ATOM      1  N   UNL     1      -0.742   1.582  -1.169  0.00  0.00    -0.292 N 
ATOM      2  C   UNL     1      -2.151   1.170  -1.159  0.00  0.00    +0.252 C 
ATOM      3  N   UNL     1      -2.809   1.689   0.052  0.00  0.00    -0.241 NA
ATOM      4  C   UNL     1      -2.091   1.843   1.115  0.00  0.00    +0.175 A 
ATOM      5  N   UNL     1      -0.728   1.575   1.218  0.00  0.00    -0.270 N 
ATOM      6  C   UNL     1      -0.136   1.772   2.393  0.00  0.00    +0.268 A 
ATOM      7  O   UNL     1       1.049   1.537   2.545  0.00  0.00    -0.266 OA
ATOM      8  C   UNL     1      -0.952   2.282   3.503  0.00  0.00    +0.081 A 
ATOM      9  C   UNL     1      -0.586   2.571   4.783  0.00  0.00    +0.035 C 
ATOM     10  S   UNL     1      -2.555   2.421   2.723  0.00  0.00    -0.046 S 
ATOM     11  C   UNL     1      -0.013   1.086   0.008  0.00  0.00    +0.237 C 
ENDROOT
BRANCH   1  15
ATOM     12  C   UNL     1       1.134   0.396  -4.698  0.00  0.00    +0.120 A 
ATOM     13  C   UNL     1      -0.023   1.159  -4.750  0.00  0.00    +0.047 A 
ATOM     14  C   UNL     1      -0.646   1.552  -3.582  0.00  0.00    +0.027 A 
ATOM     15  C   UNL     1      -0.112   1.184  -2.354  0.00  0.00    +0.033 A 
ATOM     16  C   UNL     1       1.050   0.425  -2.302  0.00  0.00    +0.027 A 
ATOM     17  C   UNL     1       1.667   0.027  -3.471  0.00  0.00    +0.047 A 
BRANCH  12  19
ATOM     18  C   UNL     1       2.933  -0.775  -5.720  0.00  0.00    +0.277 C 
ATOM     19  O   UNL     1       1.746   0.009  -5.849  0.00  0.00    -0.495 OA
ENDBRANCH  12  19
ENDBRANCH   1  15
BRANCH   9  20
ATOM     20  C   UNL     1      -1.546   3.058   5.701  0.00  0.00    +0.013 A 
ATOM     21  C   UNL     1      -1.384   3.405   7.037  0.00  0.00    +0.015 A 
ATOM     22  C   UNL     1      -2.497   3.860   7.702  0.00  0.00    +0.008 A 
ATOM     23  C   UNL     1      -3.681   3.936   7.040  0.00  0.00    +0.046 A 
ATOM     24  S   UNL     1      -3.283   3.380   5.447  0.00  0.00    -0.097 S 
ENDBRANCH   9  20
TORSDOF 3
