REMARK  Name = ZINC39690286
REMARK  10 active torsions:
REMARK  status: ('A' for Active; 'I' for Inactive)
REMARK    1  A    between atoms: C_1  and  C_2
REMARK    2  A    between atoms: C_2  and  C_3
REMARK    3  A    between atoms: C_3  and  C_4
REMARK    4  A    between atoms: C_4  and  C_5
REMARK    5  A    between atoms: C_5  and  C_7
REMARK    6  A    between atoms: C_5  and  C_8
REMARK    7  A    between atoms: C_12  and  C_21
REMARK    8  A    between atoms: N_23  and  C_24
REMARK    9  A    between atoms: C_24  and  C_25
REMARK   10  A    between atoms: C_28  and  N_31
REMARK                            x       y       z     vdW  Elec       q    Type
REMARK                         _______ _______ _______ _____ _____    ______ ____
ROOT
ATOM      1  C   UNL     1       1.869  -4.283   2.456  0.00  0.00    +0.218 C 
ATOM      2  O   UNL     1       1.576  -4.956   1.490  0.00  0.00    -0.275 OA
ATOM      3  N   UNL     1       2.322  -4.876   3.578  0.00  0.00    -0.300 N 
ATOM      4  C   UNL     1       2.624  -4.241   4.883  0.00  0.00    +0.121 C 
ATOM      5  C   UNL     1       2.121  -5.254   5.936  0.00  0.00    +0.100 C 
ATOM      6  C   UNL     1       2.130  -6.610   5.211  0.00  0.00    -0.004 C 
ATOM      7  C   UNL     1       2.626  -6.312   3.788  0.00  0.00    +0.115 C 
ATOM      8  C   UNL     1       3.080  -7.577   5.911  0.00  0.00    -0.010 C 
ATOM      9  C   UNL     1       3.028  -8.936   5.207  0.00  0.00    -0.082 C 
ATOM     10  N   UNL     1       1.655  -9.456   5.243  0.00  0.00    +0.379 N 
ATOM     11  C   UNL     1       0.764  -8.567   4.488  0.00  0.00    -0.082 C 
ATOM     12  C   UNL     1       0.720  -7.192   5.161  0.00  0.00    -0.010 C 
ATOM     13  H   UNL     1       1.635 -10.377   4.833  0.00  0.00    -0.086 HD
ATOM     14  H   UNL     1       1.342  -9.509   6.200  0.00  0.00    -0.086 HD
ENDROOT
BRANCH   5  15
ATOM     15  C   UNL     1       3.050  -5.284   7.121  0.00  0.00    +0.218 C 
ATOM     16  O   UNL     1       4.227  -5.030   6.976  0.00  0.00    -0.275 OA
ATOM     17  N   UNL     1       2.574  -5.592   8.344  0.00  0.00    -0.311 N 
ATOM     18  H   UNL     1       1.632  -5.795   8.460  0.00  0.00    +0.149 HD
BRANCH  17  19
ATOM     19  C   UNL     1       3.477  -5.621   9.496  0.00  0.00    +0.139 C 
BRANCH  19  20
ATOM     20  C   UNL     1       2.701  -5.990  10.734  0.00  0.00    -0.030 A 
ATOM     21  C   UNL     1       2.116  -5.001  11.503  0.00  0.00    +0.007 A 
ATOM     22  C   UNL     1       1.404  -5.336  12.638  0.00  0.00    +0.026 A 
ATOM     23  C   UNL     1       1.275  -6.668  13.006  0.00  0.00    +0.046 A 
ATOM     24  C   UNL     1       1.863  -7.660  12.232  0.00  0.00    +0.026 A 
ATOM     25  C   UNL     1       2.570  -7.319  11.096  0.00  0.00    +0.007 A 
BRANCH  23  26
ATOM     26  N   UNL     1       0.553  -7.012  14.158  0.00  0.00    -0.323 N 
ATOM     27  C   UNL     1      -0.073  -6.135  14.996  0.00  0.00    +0.091 A 
ATOM     28  C   UNL     1      -0.656  -6.841  15.986  0.00  0.00    +0.019 A 
ATOM     29  C   UNL     1      -0.381  -8.204  15.752  0.00  0.00    +0.019 A 
ATOM     30  C   UNL     1       0.355  -8.280  14.625  0.00  0.00    +0.091 A 
ENDBRANCH  23  26
ENDBRANCH  19  20
ENDBRANCH  17  19
ENDBRANCH   5  15
BRANCH   1  31
ATOM     31  C   UNL     1       1.727  -2.784   2.401  0.00  0.00    +0.072 C 
ATOM     32  C   UNL     1       0.320  -2.388   2.851  0.00  0.00    +0.017 C 
BRANCH  31  33
ATOM     33  C   UNL     1       1.959  -2.302   0.967  0.00  0.00    +0.012 C 
BRANCH  33  34
ATOM     34  C   UNL     1       1.938  -0.773   0.933  0.00  0.00    +0.000 C 
BRANCH  34  36
ATOM     35  C   UNL     1       2.149   1.238  -0.534  0.00  0.00    +0.004 C 
ATOM     36  C   UNL     1       2.170  -0.291  -0.500  0.00  0.00    -0.003 C 
ENDBRANCH  34  36
ENDBRANCH  33  34
ENDBRANCH  31  33
ENDBRANCH   1  31
TORSDOF 8
