REMARK  Name = ZINC33580954
REMARK  11 active torsions:
REMARK  status: ('A' for Active; 'I' for Inactive)
REMARK    1  A    between atoms: C_1  and  C_2
REMARK    2  A    between atoms: C_5  and  C_36
REMARK    3  A    between atoms: C_6  and  C_8
REMARK    4  A    between atoms: C_8  and  C_9
REMARK    5  A    between atoms: C_10  and  C_26
REMARK    6  A    between atoms: C_19  and  C_25
REMARK    7  A    between atoms: C_20  and  C_22
REMARK    8  A    between atoms: C_22  and  C_24
REMARK    9  A    between atoms: C_29  and  N_32
REMARK   10  A    between atoms: N_32  and  C_33
REMARK   11  A    between atoms: N_32  and  C_34
REMARK                            x       y       z     vdW  Elec       q    Type
REMARK                         _______ _______ _______ _____ _____    ______ ____
ROOT
ATOM      1  C   UNL     1      -0.075  -0.401   0.099  0.00  0.00    +0.077 C 
ATOM      2  C   UNL     1       1.270  -1.047  -0.140  0.00  0.00    +0.152 C 
ATOM      3  N   UNL     1       1.014  -2.467  -0.398  0.00  0.00    -0.232 N 
ATOM      4  C   UNL     1      -0.310  -2.690  -0.342  0.00  0.00    +0.293 C 
ATOM      5  O   UNL     1      -0.842  -3.767  -0.517  0.00  0.00    -0.266 OA
ATOM      6  C   UNL     1      -1.029  -1.424  -0.034  0.00  0.00    +0.250 C 
ATOM      7  O   UNL     1      -2.234  -1.297   0.083  0.00  0.00    -0.282 OA
ATOM      8  C   UNL     1       1.977  -3.421  -0.662  0.00  0.00    +0.169 A 
ATOM      9  N   UNL     1       3.292  -3.272  -0.738  0.00  0.00    -0.229 NA
ATOM     10  C   UNL     1       4.081  -4.278  -0.994  0.00  0.00    +0.058 A 
ATOM     11  C   UNL     1       3.494  -5.525  -1.199  0.00  0.00    +0.078 A 
ATOM     12  S   UNL     1       1.768  -5.114  -0.985  0.00  0.00    -0.049 S 
ATOM     13  C   UNL     1       5.575  -4.097  -1.071  0.00  0.00    +0.067 C 
ENDROOT
BRANCH   2  14
ATOM     14  C   UNL     1       2.139  -0.896   1.082  0.00  0.00    -0.022 A 
ATOM     15  C   UNL     1       1.839  -1.602   2.233  0.00  0.00    +0.007 A 
ATOM     16  C   UNL     1       2.636  -1.471   3.353  0.00  0.00    +0.023 A 
ATOM     17  C   UNL     1       3.733  -0.620   3.326  0.00  0.00    +0.029 A 
ATOM     18  C   UNL     1       4.029   0.091   2.171  0.00  0.00    +0.023 A 
ATOM     19  C   UNL     1       3.231  -0.049   1.052  0.00  0.00    +0.007 A 
BRANCH  17  20
ATOM     20  N   UNL     1       4.538  -0.481   4.460  0.00  0.00    -0.336 N 
ATOM     21  C   UNL     1       5.695   0.417   4.430  0.00  0.00    +0.129 C 
ATOM     22  C   UNL     1       4.226  -1.232   5.678  0.00  0.00    +0.129 C 
ENDBRANCH  17  20
ENDBRANCH   2  14
BRANCH  11  23
ATOM     23  C   UNL     1       4.094  -6.766  -1.493  0.00  0.00    +0.168 C 
ATOM     24  O   UNL     1       5.302  -6.846  -1.601  0.00  0.00    -0.292 OA
ATOM     25  C   UNL     1       3.239  -7.993  -1.674  0.00  0.00    +0.092 C 
ENDBRANCH  11  23
BRANCH   1  26
ATOM     26  C   UNL     1      -0.319   0.927   0.383  0.00  0.00    +0.195 C 
ATOM     27  O   UNL     1      -1.569   1.333   0.691  0.00  0.00    -0.287 OA
BRANCH  26  33
ATOM     28  C   UNL     1       3.312   3.237  -2.139  0.00  0.00    +0.044 C 
ATOM     29  C   UNL     1       2.535   3.019  -0.866  0.00  0.00    -0.050 A 
ATOM     30  C   UNL     1       2.859   3.737   0.272  0.00  0.00    +0.003 A 
ATOM     31  C   UNL     1       2.152   3.543   1.446  0.00  0.00    +0.004 A 
ATOM     32  C   UNL     1       1.114   2.636   1.488  0.00  0.00    -0.040 A 
ATOM     33  C   UNL     1       0.785   1.903   0.345  0.00  0.00    +0.025 A 
ATOM     34  C   UNL     1       1.504   2.104  -0.838  0.00  0.00    +0.015 A 
ATOM     35  C   UNL     1       0.341   2.432   2.766  0.00  0.00    +0.044 C 
ENDBRANCH  26  33
ENDBRANCH   1  26
TORSDOF 5
