REMARK  Name = ZINC21706931
REMARK  7 active torsions:
REMARK  status: ('A' for Active; 'I' for Inactive)
REMARK    1  A    between atoms: C_4  and  S_7
REMARK    2  A    between atoms: S_7  and  N_10
REMARK    3  A    between atoms: N_10  and  C_11
REMARK    4  A    between atoms: C_14  and  C_17
REMARK    5  A    between atoms: C_23  and  C_26
REMARK    6  A    between atoms: N_28  and  C_29
REMARK    7  A    between atoms: C_29  and  C_30
REMARK                            x       y       z     vdW  Elec       q    Type
REMARK                         _______ _______ _______ _____ _____    ______ ____
ROOT
ATOM      1  C   UNL     1      -2.022   4.320   0.279  0.00  0.00    +0.247 C 
ATOM      2  O   UNL     1      -2.250   4.872  -0.780  0.00  0.00    -0.270 OA
ATOM      3  N   UNL     1      -1.129   3.312   0.336  0.00  0.00    -0.297 N 
ATOM      4  C   UNL     1      -0.773   2.699   1.623  0.00  0.00    +0.108 C 
ATOM      5  C   UNL     1      -0.980   1.184   1.520  0.00  0.00    +0.020 C 
ATOM      6  C   UNL     1      -0.189   0.645   0.326  0.00  0.00    +0.016 C 
ATOM      7  C   UNL     1      -0.703   1.291  -0.962  0.00  0.00    +0.092 C 
ATOM      8  C   UNL     1      -0.493   2.806  -0.888  0.00  0.00    +0.120 C 
ENDROOT
BRANCH   1  12
ATOM      9  C   UNL     1      -4.041   5.567   3.801  0.00  0.00    +0.048 A 
ATOM     10  C   UNL     1      -2.663   5.369   3.823  0.00  0.00    +0.025 A 
ATOM     11  C   UNL     1      -2.006   4.965   2.684  0.00  0.00    +0.015 A 
ATOM     12  C   UNL     1      -2.724   4.754   1.503  0.00  0.00    +0.037 A 
ATOM     13  C   UNL     1      -4.106   4.959   1.482  0.00  0.00    +0.015 A 
ATOM     14  C   UNL     1      -4.758   5.357   2.626  0.00  0.00    +0.025 A 
BRANCH   9  15
ATOM     15  N   UNL     1      -4.702   5.974   4.954  0.00  0.00    -0.216 N 
ATOM     16  H   UNL     1      -5.316   5.257   5.519  0.00  0.00    +0.174 HD
BRANCH  15  17
ATOM     17  S   UNL     1      -4.567   7.540   5.477  0.00  0.00    +0.072 S 
ATOM     18  O   UNL     1      -5.362   7.647   6.650  0.00  0.00    -0.150 OA
ATOM     19  O   UNL     1      -3.181   7.854   5.465  0.00  0.00    -0.150 OA
BRANCH  17  23
ATOM     20  C   UNL     1      -6.517  10.169   2.350  0.00  0.00    +0.000 A 
ATOM     21  C   UNL     1      -7.245   9.739   3.443  0.00  0.00    +0.002 A 
ATOM     22  C   UNL     1      -6.650   8.936   4.398  0.00  0.00    +0.029 A 
ATOM     23  C   UNL     1      -5.326   8.563   4.260  0.00  0.00    +0.108 A 
ATOM     24  C   UNL     1      -4.596   8.998   3.170  0.00  0.00    +0.029 A 
ATOM     25  C   UNL     1      -5.193   9.797   2.212  0.00  0.00    +0.002 A 
ENDBRANCH  17  23
ENDBRANCH  15  17
ENDBRANCH   9  15
ENDBRANCH   1  12
BRANCH   7  26
ATOM     26  C   UNL     1       0.055   0.735  -2.140  0.00  0.00    +0.218 C 
ATOM     27  O   UNL     1       0.921  -0.096  -1.967  0.00  0.00    -0.275 OA
ATOM     28  N   UNL     1      -0.231   1.161  -3.387  0.00  0.00    -0.315 N 
ATOM     29  H   UNL     1      -1.016   1.915  -3.544  0.00  0.00    +0.149 HD
BRANCH  28  30
ATOM     30  C   UNL     1       0.506   0.621  -4.532  0.00  0.00    +0.107 C 
BRANCH  30  31
ATOM     31  C   UNL     1      -0.009   1.267  -5.820  0.00  0.00    +0.006 C 
ATOM     32  C   UNL     1      -1.466   0.860  -6.048  0.00  0.00    +0.005 C 
ATOM     33  C   UNL     1      -1.980   1.506  -7.336  0.00  0.00    +0.000 C 
ATOM     34  C   UNL     1      -1.129   1.036  -8.517  0.00  0.00    +0.000 C 
ATOM     35  C   UNL     1       0.328   1.443  -8.290  0.00  0.00    +0.000 C 
ATOM     36  C   UNL     1       0.843   0.797  -7.002  0.00  0.00    +0.005 C 
ENDBRANCH  30  31
ENDBRANCH  28  30
ENDBRANCH   7  26
TORSDOF 7
