REMARK  Name = ZINC22512085
REMARK  12 active torsions:
REMARK  status: ('A' for Active; 'I' for Inactive)
REMARK    1  A    between atoms: C_1  and  C_2
REMARK    2  A    between atoms: C_2  and  C_3
REMARK    3  A    between atoms: C_3  and  C_5
REMARK    4  A    between atoms: C_3  and  N_21
REMARK    5  A    between atoms: N_7  and  C_8
REMARK    6  A    between atoms: C_8  and  C_9
REMARK    7  A    between atoms: C_12  and  N_15
REMARK    8  A    between atoms: C_19  and  C_20
REMARK    9  A    between atoms: N_21  and  C_22
REMARK   10  A    between atoms: N_21  and  S_29
REMARK   11  A    between atoms: C_25  and  C_28
REMARK   12  A    between atoms: S_29  and  C_32
REMARK                            x       y       z     vdW  Elec       q    Type
REMARK                         _______ _______ _______ _____ _____    ______ ____
ROOT
ATOM      1  C   UNL     1       1.468   1.977  -0.011  0.00  0.00    +0.236 C 
ATOM      2  O   UNL     1       2.615   1.597   0.087  0.00  0.00    -0.274 OA
ATOM      3  N   UNL     1       0.461   1.081  -0.034  0.00  0.00    -0.310 N 
ATOM      4  H   UNL     1      -0.580   1.426  -0.123  0.00  0.00    +0.149 HD
ENDROOT
BRANCH   1   5
ATOM      5  C   UNL     1       1.167   3.451  -0.108  0.00  0.00    +0.183 C 
BRANCH   5   7
ATOM      6  C   UNL     1      -0.150   5.327   0.887  0.00  0.00    +0.006 C 
ATOM      7  C   UNL     1       0.276   3.868   1.064  0.00  0.00    +0.030 C 
ENDBRANCH   5   7
BRANCH   5   8
ATOM      8  N   UNL     1       2.420   4.209  -0.061  0.00  0.00    -0.196 N 
BRANCH   8   9
ATOM      9  C   UNL     1       3.232   4.147   1.074  0.00  0.00    +0.052 A 
ATOM     10  C   UNL     1       4.442   3.467   1.028  0.00  0.00    +0.025 A 
ATOM     11  C   UNL     1       5.245   3.412   2.151  0.00  0.00    +0.005 A 
ATOM     12  C   UNL     1       4.839   4.024   3.323  0.00  0.00    -0.050 A 
ATOM     13  C   UNL     1       3.633   4.697   3.374  0.00  0.00    +0.005 A 
ATOM     14  C   UNL     1       2.828   4.761   2.253  0.00  0.00    +0.025 A 
ATOM     15  C   UNL     1       5.715   3.957   4.548  0.00  0.00    +0.044 C 
ENDBRANCH   8   9
BRANCH   8  16
ATOM     16  S   UNL     1       2.874   5.138  -1.354  0.00  0.00    +0.043 S 
ATOM     17  O   UNL     1       4.295   5.108  -1.341  0.00  0.00    -0.155 OA
ATOM     18  O   UNL     1       2.148   4.609  -2.454  0.00  0.00    -0.155 OA
ATOM     19  C   UNL     1       2.282   6.807  -0.959  0.00  0.00    +0.218 C 
ENDBRANCH   8  16
ENDBRANCH   5   8
ENDBRANCH   1   5
BRANCH   3  20
ATOM     20  C   UNL     1       0.753  -0.351   0.060  0.00  0.00    +0.139 C 
BRANCH  20  21
ATOM     21  C   UNL     1      -0.536  -1.131   0.012  0.00  0.00    -0.030 A 
ATOM     22  C   UNL     1      -1.205  -1.431   1.184  0.00  0.00    +0.007 A 
ATOM     23  C   UNL     1      -2.389  -2.141   1.143  0.00  0.00    +0.026 A 
ATOM     24  C   UNL     1      -2.902  -2.562  -0.076  0.00  0.00    +0.048 A 
ATOM     25  C   UNL     1      -2.225  -2.264  -1.251  0.00  0.00    +0.026 A 
ATOM     26  C   UNL     1      -1.044  -1.549  -1.204  0.00  0.00    +0.007 A 
BRANCH  24  27
ATOM     27  N   UNL     1      -4.101  -3.288  -0.121  0.00  0.00    -0.305 N 
ATOM     28  C   UNL     1      -5.184  -3.024  -0.920  0.00  0.00    +0.110 A 
ATOM     29  C   UNL     1      -6.110  -3.962  -0.644  0.00  0.00    +0.102 A 
ATOM     30  N   UNL     1      -5.612  -4.778   0.297  0.00  0.00    -0.350 N 
ATOM     31  C   UNL     1      -4.407  -4.388   0.615  0.00  0.00    +0.088 A 
ATOM     32  C   UNL     1      -3.509  -5.045   1.630  0.00  0.00    +0.084 C 
ATOM     33  H   UNL     1      -6.215  -5.618   0.672  0.00  0.00    +0.166 HD
ENDBRANCH  24  27
ENDBRANCH  20  21
ENDBRANCH   3  20
TORSDOF 8
