REMARK  Name = ZINC52121111
REMARK  3 active torsions:
REMARK  status: ('A' for Active; 'I' for Inactive)
REMARK    1  A    between atoms: C_5  and  N_7
REMARK    2  A    between atoms: N_10  and  C_12
REMARK    3  A    between atoms: C_17  and  N_18
REMARK                            x       y       z     vdW  Elec       q    Type
REMARK                         _______ _______ _______ _____ _____    ______ ____
ROOT
ATOM      1  C   UNL     1      -0.008   1.347  -0.007  0.00  0.00    +0.002 A 
ATOM      2  C   UNL     1       1.178   2.052  -0.015  0.00  0.00    +0.005 A 
ATOM      3  C   UNL     1       2.397   1.388  -0.019  0.00  0.00    -0.025 A 
ATOM      4  C   UNL     1       2.429   0.012  -0.009  0.00  0.00    -0.021 A 
ATOM      5  C   UNL     1       1.229  -0.702  -0.009  0.00  0.00    +0.028 A 
ATOM      6  C   UNL     1       0.014  -0.034  -0.007  0.00  0.00    +0.023 A 
ATOM      7  C   UNL     1       3.711  -0.776   0.018  0.00  0.00    +0.056 C 
ATOM      8  C   UNL     1       4.884   0.076  -0.463  0.00  0.00    +0.110 C 
ATOM      9  N   UNL     1       4.817   1.372   0.231  0.00  0.00    -0.323 N 
ATOM     10  C   UNL     1       3.653   2.223  -0.042  0.00  0.00    +0.140 C 
ENDROOT
BRANCH   9  11
ATOM     11  C   UNL     1       5.821   1.777   1.113  0.00  0.00    +0.063 A 
ATOM     12  C   UNL     1       5.685   1.545   2.476  0.00  0.00    +0.063 A 
ATOM     13  C   UNL     1       6.681   1.946   3.347  0.00  0.00    +0.125 A 
ATOM     14  C   UNL     1       7.814   2.579   2.860  0.00  0.00    +0.041 A 
ATOM     15  C   UNL     1       7.951   2.810   1.504  0.00  0.00    +0.037 A 
ATOM     16  C   UNL     1       6.961   2.406   0.629  0.00  0.00    +0.147 A 
ATOM     17  F   UNL     1       6.550   1.722   4.673  0.00  0.00    -0.205 F 
BRANCH  16  18
ATOM     18  N   UNL     1       7.112   2.650  -0.823  0.00  0.00    +0.058 N 
ATOM     19  O   UNL     1       8.144   3.108  -1.255  0.00  0.00    -0.126 OA
ATOM     20  O   UNL     1       6.203   2.390  -1.577  0.00  0.00    -0.126 OA
ENDBRANCH  16  18
ENDBRANCH   9  11
BRANCH   5  21
ATOM     21  N   UNL     1       1.253  -2.099  -0.011  0.00  0.00    -0.358 N 
ATOM     22  H   UNL     1       2.101  -2.569  -0.013  0.00  0.00    +0.142 HD
ATOM     23  H   UNL     1       0.421  -2.598  -0.011  0.00  0.00    +0.142 HD
ENDBRANCH   5  21
TORSDOF 3
