REMARK  Name = ZINC09915217
REMARK  14 active torsions:
REMARK  status: ('A' for Active; 'I' for Inactive)
REMARK    1  A    between atoms: C_1  and  C_2
REMARK    2  A    between atoms: C_2  and  O_3
REMARK    3  A    between atoms: O_3  and  C_4
REMARK    4  A    between atoms: C_4  and  C_6
REMARK    5  A    between atoms: C_7  and  C_34
REMARK    6  A    between atoms: C_8  and  C_27
REMARK    7  A    between atoms: C_9  and  N_11
REMARK    8  A    between atoms: C_12  and  C_14
REMARK    9  A    between atoms: C_14  and  C_15
REMARK   10  A    between atoms: C_15  and  C_16
REMARK   11  A    between atoms: C_16  and  S_17
REMARK   12  A    between atoms: S_17  and  C_20
REMARK   13  A    between atoms: C_30  and  O_32
REMARK   14  A    between atoms: O_32  and  C_33
REMARK                            x       y       z     vdW  Elec       q    Type
REMARK                         _______ _______ _______ _____ _____    ______ ____
ROOT
ATOM      1  C   UNL     1       0.514  -2.628  -0.018  0.00  0.00    +0.102 A 
ATOM      2  C   UNL     1      -0.802  -2.248  -0.003  0.00  0.00    -0.015 A 
ATOM      3  C   UNL     1      -1.080  -0.891   0.008  0.00  0.00    +0.069 A 
ATOM      4  C   UNL     1       0.002  -0.004   0.002  0.00  0.00    +0.085 A 
ATOM      5  S   UNL     1       1.372  -1.065  -0.024  0.00  0.00    -0.066 S 
ATOM      6  C   UNL     1      -1.909  -3.271   0.003  0.00  0.00    +0.046 C 
ENDROOT
BRANCH   3   7
ATOM      7  C   UNL     1      -2.464  -0.400   0.024  0.00  0.00    +0.255 C 
ATOM      8  O   UNL     1      -3.047  -0.190  -1.022  0.00  0.00    -0.270 OA
ATOM      9  N   UNL     1      -3.087  -0.181   1.199  0.00  0.00    -0.217 N 
ATOM     10  C   UNL     1      -4.357   0.270   1.215  0.00  0.00    +0.407 C 
ATOM     11  O   UNL     1      -4.940   0.479   0.170  0.00  0.00    -0.226 OA
ATOM     12  H   UNL     1      -2.621  -0.347   2.034  0.00  0.00    +0.161 HD
BRANCH  10  13
ATOM     13  O   UNL     1      -4.979   0.489   2.388  0.00  0.00    -0.453 OA
ATOM     14  C   UNL     1      -6.346   0.975   2.329  0.00  0.00    +0.282 C 
ENDBRANCH  10  13
ENDBRANCH   3   7
BRANCH   4  15
ATOM     15  N   UNL     1      -0.017   1.377   0.010  0.00  0.00    -0.279 N 
ATOM     16  C   UNL     1       1.141   2.067   0.002  0.00  0.00    +0.218 C 
ATOM     17  O   UNL     1       2.200   1.475  -0.011  0.00  0.00    -0.275 OA
ATOM     18  H   UNL     1      -0.863   1.850   0.016  0.00  0.00    +0.155 HD
BRANCH  16  19
ATOM     19  C   UNL     1       1.121   3.573   0.011  0.00  0.00    +0.098 C 
BRANCH  19  20
ATOM     20  C   UNL     1       2.556   4.103  -0.000  0.00  0.00    +0.032 C 
BRANCH  20  21
ATOM     21  C   UNL     1       2.535   5.633   0.008  0.00  0.00    +0.172 C 
BRANCH  21  22
ATOM     22  S   UNL     1       4.237   6.261  -0.005  0.00  0.00    -0.003 S 
ATOM     23  O   UNL     1       4.883   5.949   1.222  0.00  0.00    -0.169 OA
ATOM     24  O   UNL     1       4.859   5.963  -1.247  0.00  0.00    -0.169 OA
BRANCH  22  25
ATOM     25  C   UNL     1       4.073   8.015   0.006  0.00  0.00    +0.088 A 
ATOM     26  C   UNL     1       4.003   8.710  -1.187  0.00  0.00    +0.030 A 
ATOM     27  C   UNL     1       3.869  10.085  -1.180  0.00  0.00    +0.040 A 
ATOM     28  C   UNL     1       3.816  10.768   0.024  0.00  0.00    +0.124 A 
ATOM     29  C   UNL     1       3.891  10.072   1.218  0.00  0.00    +0.040 A 
ATOM     30  C   UNL     1       4.020   8.696   1.208  0.00  0.00    +0.030 A 
ATOM     31  F   UNL     1       3.689  12.114   0.032  0.00  0.00    -0.205 F 
ENDBRANCH  22  25
ENDBRANCH  21  22
ENDBRANCH  20  21
ENDBRANCH  19  20
ENDBRANCH  16  19
ENDBRANCH   4  15
BRANCH   1  32
ATOM     32  C   UNL     1       1.075  -3.978  -0.031  0.00  0.00    +0.346 C 
ATOM     33  O   UNL     1       0.335  -4.944  -0.029  0.00  0.00    -0.244 OA
BRANCH  32  34
ATOM     34  O   UNL     1       2.412  -4.153  -0.045  0.00  0.00    -0.461 OA
BRANCH  34  36
ATOM     35  C   UNL     1       4.421  -5.497  -0.072  0.00  0.00    +0.048 C 
ATOM     36  C   UNL     1       2.891  -5.499  -0.057  0.00  0.00    +0.229 C 
ENDBRANCH  34  36
ENDBRANCH  32  34
ENDBRANCH   1  32
TORSDOF 11
