REMARK  Name = ZINC64541250
REMARK  5 active torsions:
REMARK  status: ('A' for Active; 'I' for Inactive)
REMARK    1  A    between atoms: C_7  and  C_10
REMARK    2  A    between atoms: C_10  and  C_11
REMARK    3  A    between atoms: C_11  and  N_12
REMARK    4  A    between atoms: C_13  and  C_15
REMARK    5  A    between atoms: N_28  and  C_31
REMARK                            x       y       z     vdW  Elec       q    Type
REMARK                         _______ _______ _______ _____ _____    ______ ____
ROOT
ATOM      1  C   UNL     1      -1.792  -6.489  -2.629  0.00  0.00    +0.037 A 
ATOM      2  C   UNL     1      -2.302  -6.972  -1.411  0.00  0.00    +0.013 A 
ATOM      3  C   UNL     1      -3.137  -8.043  -1.382  0.00  0.00    +0.009 A 
ATOM      4  C   UNL     1      -3.498  -8.680  -2.579  0.00  0.00    -0.013 A 
ATOM      5  C   UNL     1      -4.360  -9.793  -2.601  0.00  0.00    +0.028 A 
ATOM      6  C   UNL     1      -4.670 -10.363  -3.797  0.00  0.00    +0.113 A 
ATOM      7  N   UNL     1      -4.185  -9.903  -4.942  0.00  0.00    -0.240 NA
ATOM      8  C   UNL     1      -3.372  -8.865  -5.005  0.00  0.00    +0.129 A 
ATOM      9  C   UNL     1      -2.990  -8.202  -3.815  0.00  0.00    +0.023 A 
ATOM     10  C   UNL     1      -2.136  -7.096  -3.828  0.00  0.00    +0.025 A 
ATOM     11  N   UNL     1      -2.896  -8.428  -6.227  0.00  0.00    -0.312 N 
ATOM     12  C   UNL     1      -1.594  -8.888  -6.730  0.00  0.00    +0.125 C 
ATOM     13  C   UNL     1      -1.796  -9.507  -8.118  0.00  0.00    +0.124 C 
ATOM     14  N   UNL     1      -2.583  -8.575  -8.938  0.00  0.00    -0.327 N 
ATOM     15  C   UNL     1      -3.885  -8.115  -8.435  0.00  0.00    +0.124 C 
ATOM     16  C   UNL     1      -3.685  -7.500  -7.049  0.00  0.00    +0.125 C 
ENDROOT
BRANCH  14  17
ATOM     17  C   UNL     1      -2.101  -8.133 -10.174  0.00  0.00    +0.030 A 
ATOM     18  C   UNL     1      -2.791  -7.157 -10.881  0.00  0.00    +0.026 A 
ATOM     19  C   UNL     1      -2.313  -6.722 -12.101  0.00  0.00    +0.040 A 
ATOM     20  C   UNL     1      -1.147  -7.258 -12.620  0.00  0.00    +0.124 A 
ATOM     21  C   UNL     1      -0.457  -8.231 -11.918  0.00  0.00    +0.040 A 
ATOM     22  C   UNL     1      -0.928  -8.666 -10.694  0.00  0.00    +0.026 A 
ATOM     23  F   UNL     1      -0.681  -6.831 -13.815  0.00  0.00    -0.205 F 
ENDBRANCH  14  17
BRANCH   1  25
ATOM     24  N   UNL     1      -0.547  -4.729  -1.470  0.00  0.00    -0.311 N 
ATOM     25  C   UNL     1      -0.885  -5.323  -2.632  0.00  0.00    +0.244 C 
ATOM     26  O   UNL     1      -0.445  -4.898  -3.683  0.00  0.00    -0.270 OA
ATOM     27  H   UNL     1      -0.898  -5.068  -0.632  0.00  0.00    +0.149 HD
BRANCH  24  28
ATOM     28  C   UNL     1       0.352  -3.572  -1.474  0.00  0.00    +0.109 C 
BRANCH  28  29
ATOM     29  C   UNL     1       0.572  -3.094  -0.037  0.00  0.00    +0.052 C 
BRANCH  29  36
ATOM     30  C   UNL     1      -0.197   1.430  -0.032  0.00  0.00    +0.001 A 
ATOM     31  C   UNL     1       0.975   2.199  -0.037  0.00  0.00    +0.002 A 
ATOM     32  C   UNL     1       2.208   1.650  -0.043  0.00  0.00    +0.026 A 
ATOM     33  C   UNL     1       2.365   0.237  -0.044  0.00  0.00    +0.043 A 
ATOM     34  N   UNL     1       3.433  -0.523  -0.050  0.00  0.00    -0.380 N 
ATOM     35  C   UNL     1       3.009  -1.927  -0.048  0.00  0.00    +0.144 C 
ATOM     36  C   UNL     1       1.497  -1.904  -0.041  0.00  0.00    -0.040 C 
ATOM     37  C   UNL     1       1.143  -0.599  -0.038  0.00  0.00    -0.001 A 
ATOM     38  C   UNL     1      -0.160   0.078  -0.032  0.00  0.00    +0.010 A 
ATOM     39  H   UNL     1       4.351  -0.209  -0.054  0.00  0.00    +0.160 HD
ENDBRANCH  29  36
ENDBRANCH  28  29
ENDBRANCH  24  28
ENDBRANCH   1  25
TORSDOF 5
