REMARK  Name = ZINC17078723
REMARK  7 active torsions:
REMARK  status: ('A' for Active; 'I' for Inactive)
REMARK    1  A    between atoms: C_1  and  C_2
REMARK    2  A    between atoms: C_5  and  N_8
REMARK    3  A    between atoms: N_8  and  C_9
REMARK    4  A    between atoms: C_12  and  C_31
REMARK    5  A    between atoms: C_18  and  C_21
REMARK    6  A    between atoms: C_22  and  C_24
REMARK    7  A    between atoms: C_29  and  N_30
REMARK                            x       y       z     vdW  Elec       q    Type
REMARK                         _______ _______ _______ _____ _____    ______ ____
ROOT
ATOM      1  C   UNL     1      -3.790   7.771   0.741  0.00  0.00    +0.104 C 
ATOM      2  C   UNL     1      -2.362   8.280   0.943  0.00  0.00    +0.049 C 
ATOM      3  C   UNL     1      -1.412   7.448   0.071  0.00  0.00    +0.081 C 
ATOM      4  N   UNL     1      -1.467   6.059   0.547  0.00  0.00    -0.264 N 
ATOM      5  C   UNL     1      -2.716   5.487   0.824  0.00  0.00    +0.042 A 
ATOM      6  C   UNL     1      -3.850   6.279   0.931  0.00  0.00    -0.006 A 
ATOM      7  C   UNL     1      -5.070   5.689   1.215  0.00  0.00    +0.010 A 
ATOM      8  C   UNL     1      -5.160   4.316   1.377  0.00  0.00    -0.050 A 
ATOM      9  C   UNL     1      -4.028   3.528   1.271  0.00  0.00    +0.005 A 
ATOM     10  C   UNL     1      -2.807   4.111   0.995  0.00  0.00    +0.024 A 
ATOM     11  C   UNL     1      -6.492   3.681   1.680  0.00  0.00    +0.044 C 
ATOM     12  C   UNL     1      -0.335   5.345   0.710  0.00  0.00    +0.253 C 
ATOM     13  O   UNL     1       0.731   5.804   0.348  0.00  0.00    -0.270 OA
ATOM     14  C   UNL     1       0.015   7.985   0.203  0.00  0.00    +0.028 C 
ENDROOT
BRANCH  12  15
ATOM     15  C   UNL     1      -0.390   4.008   1.327  0.00  0.00    +0.058 A 
ATOM     16  C   UNL     1      -0.836   3.858   2.643  0.00  0.00    +0.015 A 
ATOM     17  C   UNL     1      -0.890   2.605   3.213  0.00  0.00    +0.001 A 
ATOM     18  C   UNL     1      -0.493   1.490   2.491  0.00  0.00    +0.002 A 
ATOM     19  C   UNL     1      -0.050   1.621   1.191  0.00  0.00    +0.023 A 
ATOM     20  C   UNL     1       0.006   2.876   0.597  0.00  0.00    +0.037 A 
BRANCH  20  21
ATOM     21  N   UNL     1       0.450   3.010  -0.712  0.00  0.00    -0.357 N 
ATOM     22  H   UNL     1       0.794   2.239  -1.188  0.00  0.00    +0.142 HD
ATOM     23  H   UNL     1       0.418   3.876  -1.149  0.00  0.00    +0.142 HD
ENDBRANCH  20  21
ENDBRANCH  12  15
BRANCH   1  24
ATOM     24  N   UNL     1      -4.234   8.104  -0.615  0.00  0.00    -0.337 N 
ATOM     25  H   UNL     1      -4.187   7.437  -1.318  0.00  0.00    +0.147 HD
BRANCH  24  30
ATOM     26  C   UNL     1      -6.228  13.289  -1.755  0.00  0.00    +0.044 C 
ATOM     27  C   UNL     1      -5.697  11.911  -1.452  0.00  0.00    -0.050 A 
ATOM     28  C   UNL     1      -5.724  10.932  -2.428  0.00  0.00    +0.005 A 
ATOM     29  C   UNL     1      -5.239   9.668  -2.154  0.00  0.00    +0.023 A 
ATOM     30  C   UNL     1      -4.724   9.381  -0.896  0.00  0.00    +0.028 A 
ATOM     31  C   UNL     1      -4.705  10.365   0.084  0.00  0.00    +0.023 A 
ATOM     32  C   UNL     1      -5.186  11.628  -0.199  0.00  0.00    +0.005 A 
ENDBRANCH  24  30
ENDBRANCH   1  24
TORSDOF 4
