REMARK  Name = ZINC04035830
REMARK  16 active torsions:
REMARK  status: ('A' for Active; 'I' for Inactive)
REMARK    1  A    between atoms: C_1  and  C_2
REMARK    2  A    between atoms: C_2  and  C_3
REMARK    3  A    between atoms: C_3  and  C_4
REMARK    4  A    between atoms: C_4  and  N_5
REMARK    5  A    between atoms: N_5  and  C_6
REMARK    6  A    between atoms: N_5  and  C_8
REMARK    7  A    between atoms: C_6  and  C_7
REMARK    8  A    between atoms: C_8  and  C_9
REMARK    9  A    between atoms: C_9  and  N_10
REMARK   10  A    between atoms: C_11  and  C_13
REMARK   11  A    between atoms: C_13  and  N_14
REMARK   12  A    between atoms: N_14  and  C_15
REMARK   13  A    between atoms: N_14  and  S_16
REMARK   14  A    between atoms: S_16  and  C_19
REMARK   15  A    between atoms: N_27  and  C_32
REMARK   16  A    between atoms: N_30  and  C_31
REMARK                            x       y       z     vdW  Elec       q    Type
REMARK                         _______ _______ _______ _____ _____    ______ ____
ROOT
ATOM      1  N   UNL     1       3.405  -8.681  -6.164  0.00  0.00    -0.171 NA
ATOM      2  C   UNL     1       4.830  -8.964  -5.983  0.00  0.00    +0.132 C 
ENDROOT
BRANCH   1   3
ATOM      3  S   UNL     1       2.698  -8.902  -7.645  0.00  0.00    +0.061 S 
ATOM      4  O   UNL     1       3.497  -9.851  -8.339  0.00  0.00    -0.153 OA
ATOM      5  O   UNL     1       1.311  -9.102  -7.408  0.00  0.00    -0.153 OA
BRANCH   3   6
ATOM      6  C   UNL     1       2.844  -7.382  -8.524  0.00  0.00    +0.106 A 
ATOM      7  C   UNL     1       1.848  -6.424  -8.414  0.00  0.00    +0.030 A 
ATOM      8  C   UNL     1       1.945  -5.226  -9.094  0.00  0.00    +0.028 A 
ATOM      9  C   UNL     1       3.048  -4.978  -9.896  0.00  0.00    +0.058 A 
ATOM     10  C   UNL     1       4.058  -5.949 -10.009  0.00  0.00    +0.065 A 
ATOM     11  C   UNL     1       3.951  -7.150  -9.313  0.00  0.00    +0.044 A 
ATOM     12  C   UNL     1       5.217  -5.652 -10.870  0.00  0.00    +0.264 A 
ATOM     13  O   UNL     1       6.118  -6.457 -11.002  0.00  0.00    -0.267 OA
ATOM     14  N   UNL     1       5.252  -4.462 -11.508  0.00  0.00    -0.263 N 
ATOM     15  C   UNL     1       4.262  -3.567 -11.368  0.00  0.00    +0.332 A 
ATOM     16  O   UNL     1       4.343  -2.511 -11.966  0.00  0.00    -0.246 OA
ATOM     17  N   UNL     1       3.184  -3.788 -10.597  0.00  0.00    -0.296 N 
ATOM     18  C   UNL     1       2.143  -2.763 -10.493  0.00  0.00    +0.154 C 
ATOM     19  C   UNL     1       6.393  -4.142 -12.370  0.00  0.00    +0.157 C 
ENDBRANCH   3   6
ENDBRANCH   1   3
BRANCH   1  20
ATOM     20  C   UNL     1       2.604  -8.202  -5.035  0.00  0.00    +0.204 C 
BRANCH  20  22
ATOM     21  N   UNL     1       2.086  -6.042  -3.948  0.00  0.00    -0.316 N 
ATOM     22  C   UNL     1       2.739  -6.706  -4.922  0.00  0.00    +0.229 C 
ATOM     23  O   UNL     1       3.436  -6.099  -5.707  0.00  0.00    -0.274 OA
ATOM     24  H   UNL     1       1.529  -6.527  -3.319  0.00  0.00    +0.149 HD
BRANCH  21  25
ATOM     25  C   UNL     1       2.217  -4.587  -3.838  0.00  0.00    +0.086 C 
BRANCH  25  26
ATOM     26  C   UNL     1       1.381  -4.086  -2.659  0.00  0.00    -0.060 C 
BRANCH  26  27
ATOM     27  N   UNL     1       1.608  -2.647  -2.473  0.00  0.00    +0.381 N 
ATOM     28  H   UNL     1       2.596  -2.473  -2.370  0.00  0.00    -0.082 HD
BRANCH  27  29
ATOM     29  C   UNL     1       0.902  -2.191  -1.268  0.00  0.00    -0.082 C 
ATOM     30  C   UNL     1       1.535  -2.834  -0.032  0.00  0.00    -0.017 C 
ENDBRANCH  27  29
BRANCH  27  31
ATOM     31  C   UNL     1       1.101  -1.917  -3.643  0.00  0.00    -0.079 C 
BRANCH  31  32
ATOM     32  C   UNL     1       1.448  -0.433  -3.507  0.00  0.00    -0.019 C 
BRANCH  32  34
ATOM     33  C   UNL     1       1.268   1.812  -4.589  0.00  0.00    +0.004 C 
ATOM     34  C   UNL     1       0.921   0.328  -4.725  0.00  0.00    -0.005 C 
ENDBRANCH  32  34
ENDBRANCH  31  32
ENDBRANCH  27  31
ENDBRANCH  26  27
ENDBRANCH  25  26
ENDBRANCH  21  25
ENDBRANCH  20  22
ENDBRANCH   1  20
TORSDOF 11
