REMARK  Name = ZINC12597606
REMARK  11 active torsions:
REMARK  status: ('A' for Active; 'I' for Inactive)
REMARK    1  A    between atoms: C_1  and  C_2
REMARK    2  A    between atoms: C_2  and  N_3
REMARK    3  A    between atoms: C_5  and  C_14
REMARK    4  A    between atoms: C_14  and  N_15
REMARK    5  A    between atoms: N_15  and  C_16
REMARK    6  A    between atoms: C_17  and  C_19
REMARK    7  A    between atoms: C_22  and  N_25
REMARK    8  A    between atoms: C_26  and  C_28
REMARK    9  A    between atoms: C_28  and  S_29
REMARK   10  A    between atoms: S_29  and  C_30
REMARK   11  A    between atoms: N_34  and  C_35
REMARK                            x       y       z     vdW  Elec       q    Type
REMARK                         _______ _______ _______ _____ _____    ______ ____
ROOT
ATOM      1  C   UNL     1      -2.083  -2.946   1.492  0.00  0.00    +0.037 A 
ATOM      2  C   UNL     1      -3.133  -3.524   0.773  0.00  0.00    +0.015 A 
ATOM      3  C   UNL     1      -4.097  -4.253   1.432  0.00  0.00    +0.024 A 
ATOM      4  C   UNL     1      -4.032  -4.406   2.814  0.00  0.00    +0.033 A 
ATOM      5  C   UNL     1      -2.992  -3.827   3.533  0.00  0.00    +0.024 A 
ATOM      6  C   UNL     1      -2.021  -3.101   2.879  0.00  0.00    +0.015 A 
ENDROOT
BRANCH   1   9
ATOM      7  N   UNL     1       0.251  -2.306   1.133  0.00  0.00    -0.297 N 
ATOM      8  C   UNL     1       0.620  -3.154   2.269  0.00  0.00    +0.132 C 
ATOM      9  C   UNL     1      -1.045  -2.169   0.787  0.00  0.00    +0.246 C 
ATOM     10  O   UNL     1      -1.358  -1.404  -0.105  0.00  0.00    -0.270 OA
BRANCH   7  11
ATOM     11  C   UNL     1       1.290  -1.607   0.373  0.00  0.00    +0.153 C 
BRANCH  11  14
ATOM     12  N   UNL     1       2.862   1.809   0.832  0.00  0.00    -0.324 N 
ATOM     13  C   UNL     1       2.596   0.523   0.178  0.00  0.00    +0.151 C 
ATOM     14  C   UNL     1       1.536  -0.230   0.992  0.00  0.00    +0.208 C 
ATOM     15  O   UNL     1       0.329   0.538   0.960  0.00  0.00    -0.484 OA
ATOM     16  C   UNL     1       0.450   1.877   1.177  0.00  0.00    +0.142 A 
ATOM     17  C   UNL     1       1.685   2.511   1.114  0.00  0.00    +0.072 A 
ATOM     18  C   UNL     1       1.764   3.882   1.337  0.00  0.00    +0.027 A 
ATOM     19  C   UNL     1       0.624   4.607   1.622  0.00  0.00    +0.002 A 
ATOM     20  C   UNL     1      -0.603   3.973   1.687  0.00  0.00    +0.004 A 
ATOM     21  C   UNL     1      -0.691   2.613   1.460  0.00  0.00    +0.047 A 
BRANCH  12  23
ATOM     22  C   UNL     1       3.087   3.067  -1.257  0.00  0.00    +0.024 C 
ATOM     23  C   UNL     1       3.784   2.627   0.032  0.00  0.00    +0.102 C 
ENDBRANCH  12  23
ENDBRANCH  11  14
ENDBRANCH   7  11
ENDBRANCH   1   9
BRANCH   4  24
ATOM     24  N   UNL     1      -5.013  -5.141   3.479  0.00  0.00    -0.285 N 
ATOM     25  C   UNL     1      -4.682  -5.897   4.544  0.00  0.00    +0.227 C 
ATOM     26  O   UNL     1      -3.549  -5.872   4.977  0.00  0.00    -0.275 OA
ATOM     27  H   UNL     1      -5.934  -5.107   3.175  0.00  0.00    +0.155 HD
BRANCH  25  28
ATOM     28  C   UNL     1      -5.719  -6.774   5.197  0.00  0.00    +0.173 C 
BRANCH  28  29
ATOM     29  S   UNL     1      -4.972  -7.658   6.589  0.00  0.00    -0.077 S 
BRANCH  29  30
ATOM     30  C   UNL     1      -6.365  -8.579   7.150  0.00  0.00    +0.192 A 
ATOM     31  N   UNL     1      -7.572  -8.561   6.633  0.00  0.00    -0.123 NA
ATOM     32  N   UNL     1      -8.341  -9.353   7.292  0.00  0.00    -0.137 NA
ATOM     33  C   UNL     1      -7.676  -9.918   8.260  0.00  0.00    +0.225 A 
ATOM     34  N   UNL     1      -6.393  -9.450   8.201  0.00  0.00    -0.312 N 
ATOM     35  C   UNL     1      -5.279  -9.807   9.084  0.00  0.00    +0.152 C 
ENDBRANCH  29  30
ENDBRANCH  28  29
ENDBRANCH  25  28
ENDBRANCH   4  24
TORSDOF 8
