REMARK  Name = ZINC40744525
REMARK  13 active torsions:
REMARK  status: ('A' for Active; 'I' for Inactive)
REMARK    1  A    between atoms: C_1  and  C_2
REMARK    2  A    between atoms: C_2  and  O_3
REMARK    3  A    between atoms: O_3  and  C_4
REMARK    4  A    between atoms: C_6  and  C_20
REMARK    5  A    between atoms: C_9  and  O_10
REMARK    6  A    between atoms: O_10  and  C_11
REMARK    7  A    between atoms: C_11  and  C_12
REMARK    8  A    between atoms: C_17  and  C_18
REMARK    9  A    between atoms: C_20  and  N_21
REMARK   10  A    between atoms: N_21  and  C_22
REMARK   11  A    between atoms: C_22  and  C_23
REMARK   12  A    between atoms: C_23  and  N_24
REMARK   13  A    between atoms: C_25  and  C_27
REMARK                            x       y       z     vdW  Elec       q    Type
REMARK                         _______ _______ _______ _____ _____    ______ ____
ROOT
ATOM      1  C   UNL     1       0.777  -1.811  -1.336  0.00  0.00    +0.163 A 
ATOM      2  C   UNL     1       0.243  -2.669  -0.388  0.00  0.00    +0.051 A 
ATOM      3  C   UNL     1       0.352  -4.037  -0.554  0.00  0.00    -0.060 A 
ATOM      4  C   UNL     1       0.992  -4.553  -1.665  0.00  0.00    +0.021 A 
ATOM      5  C   UNL     1       1.527  -3.702  -2.616  0.00  0.00    +0.063 A 
ATOM      6  C   UNL     1       1.416  -2.329  -2.458  0.00  0.00    +0.176 A 
ATOM      7 BR   UNL     1       2.403  -4.412  -4.134  0.00  0.00    -0.046 Br
ENDROOT
BRANCH   1   8
ATOM      8  O   UNL     1       0.671  -0.465  -1.174  0.00  0.00    -0.489 OA
BRANCH   8  10
ATOM      9  C   UNL     1      -0.019   1.526   0.010  0.00  0.00    +0.048 C 
ATOM     10  C   UNL     1       0.002  -0.004   0.002  0.00  0.00    +0.226 C 
ENDBRANCH   8  10
ENDBRANCH   1   8
BRANCH   6  11
ATOM     11  O   UNL     1       1.936  -1.491  -3.394  0.00  0.00    -0.483 OA
BRANCH  11  12
ATOM     12  C   UNL     1       3.293  -1.080  -3.215  0.00  0.00    +0.265 C 
BRANCH  12  13
ATOM     13  C   UNL     1       3.692  -0.161  -4.341  0.00  0.00    -0.007 A 
ATOM     14  C   UNL     1       2.780   0.157  -5.330  0.00  0.00    +0.007 A 
ATOM     15  C   UNL     1       3.146   1.000  -6.362  0.00  0.00    +0.000 A 
ATOM     16  C   UNL     1       4.425   1.525  -6.406  0.00  0.00    +0.000 A 
ATOM     17  C   UNL     1       5.336   1.207  -5.417  0.00  0.00    +0.004 A 
ATOM     18  C   UNL     1       4.968   0.368  -4.381  0.00  0.00    -0.044 A 
ATOM     19  C   UNL     1       5.961   0.025  -3.300  0.00  0.00    +0.044 C 
ENDBRANCH  12  13
ENDBRANCH  11  12
ENDBRANCH   6  11
BRANCH   3  20
ATOM     20  C   UNL     1      -0.228  -4.968   0.479  0.00  0.00    -0.047 C 
BRANCH  20  21
ATOM     21  N   UNL     1      -1.619  -5.283   0.128  0.00  0.00    +0.383 N 
ATOM     22  H   UNL     1      -2.160  -4.432   0.101  0.00  0.00    -0.085 HD
ATOM     23  H   UNL     1      -1.646  -5.727  -0.777  0.00  0.00    -0.085 HD
BRANCH  21  24
ATOM     24  C   UNL     1      -2.185  -6.191   1.135  0.00  0.00    -0.063 C 
BRANCH  24  25
ATOM     25  C   UNL     1      -3.634  -6.519   0.770  0.00  0.00    +0.085 C 
BRANCH  25  26
ATOM     26  N   UNL     1      -4.198  -7.424   1.774  0.00  0.00    -0.312 N 
ATOM     27  C   UNL     1      -5.471  -7.850   1.657  0.00  0.00    +0.269 C 
ATOM     28  O   UNL     1      -6.151  -7.484   0.719  0.00  0.00    -0.268 OA
ATOM     29  H   UNL     1      -3.656  -7.716   2.523  0.00  0.00    +0.149 HD
BRANCH  27  30
ATOM     30  C   UNL     1      -6.042  -8.766   2.673  0.00  0.00    +0.209 A 
ATOM     31  C   UNL     1      -7.404  -9.312   2.670  0.00  0.00    +0.192 A 
ATOM     32  N   UNL     1      -7.542 -10.076   3.719  0.00  0.00    -0.033 NA
ATOM     33  O   UNL     1      -6.317 -10.063   4.431  0.00  0.00    -0.240 OA
ATOM     34  N   UNL     1      -5.417  -9.230   3.723  0.00  0.00    -0.042 NA
ATOM     35  N   UNL     1      -8.379  -9.059   1.714  0.00  0.00    -0.339 N 
ATOM     36  H   UNL     1      -8.183  -8.475   0.965  0.00  0.00    +0.144 HD
ATOM     37  H   UNL     1      -9.255  -9.467   1.796  0.00  0.00    +0.144 HD
ENDBRANCH  27  30
ENDBRANCH  25  26
ENDBRANCH  24  25
ENDBRANCH  21  24
ENDBRANCH  20  21
ENDBRANCH   3  20
TORSDOF 11
