REMARK  Name = ZINC14251907
REMARK  11 active torsions:
REMARK  status: ('A' for Active; 'I' for Inactive)
REMARK    1  A    between atoms: C_1  and  C_2
REMARK    2  A    between atoms: C_2  and  C_3
REMARK    3  A    between atoms: C_3  and  C_5
REMARK    4  A    between atoms: C_3  and  N_6
REMARK    5  A    between atoms: C_10  and  S_12
REMARK    6  A    between atoms: S_12  and  C_13
REMARK    7  A    between atoms: C_13  and  C_14
REMARK    8  A    between atoms: N_16  and  C_17
REMARK    9  A    between atoms: N_16  and  C_18
REMARK   10  A    between atoms: C_18  and  C_19
REMARK   11  A    between atoms: N_21  and  C_22
REMARK                            x       y       z     vdW  Elec       q    Type
REMARK                         _______ _______ _______ _____ _____    ______ ____
ROOT
ATOM      1  C   UNL     1      -0.023   0.000  -0.004  0.00  0.00    +0.226 C 
ATOM      2  O   UNL     1       1.038  -0.589  -0.025  0.00  0.00    -0.275 OA
ATOM      3  N   UNL     1      -1.178  -0.694   0.011  0.00  0.00    -0.295 N 
ATOM      4  C   UNL     1      -2.459   0.017   0.036  0.00  0.00    +0.132 C 
ENDROOT
BRANCH   1   5
ATOM      5  C   UNL     1      -0.048   1.507   0.005  0.00  0.00    +0.172 C 
BRANCH   5   6
ATOM      6  S   UNL     1       1.651   2.140  -0.020  0.00  0.00    -0.088 S 
BRANCH   6  11
ATOM      7  N   UNL     1       1.898   7.933   0.010  0.00  0.00    -0.319 N 
ATOM      8  C   UNL     1       1.597   6.576   0.007  0.00  0.00    +0.183 A 
ATOM      9  N   UNL     1       0.420   5.981   0.023  0.00  0.00    -0.125 NA
ATOM     10  N   UNL     1       0.346   4.607   0.016  0.00  0.00    -0.133 NA
ATOM     11  C   UNL     1       1.454   3.891  -0.007  0.00  0.00    +0.160 A 
ATOM     12  S   UNL     1       2.700   5.171  -0.013  0.00  0.00    -0.025 S 
ATOM     13  H   UNL     1       2.823   8.224  -0.004  0.00  0.00    +0.148 HD
BRANCH   7  14
ATOM     14  C   UNL     1       0.819   8.923   0.034  0.00  0.00    +0.069 C 
ATOM     15  C   UNL     1       0.383   9.166   1.480  0.00  0.00    +0.028 C 
BRANCH  14  17
ATOM     16  C   UNL     1       1.635  10.020  -2.057  0.00  0.00    +0.005 C 
ATOM     17  C   UNL     1       1.316  10.235  -0.576  0.00  0.00    +0.018 C 
ENDBRANCH  14  17
ENDBRANCH   7  14
ENDBRANCH   6  11
ENDBRANCH   5   6
ENDBRANCH   1   5
BRANCH   3  18
ATOM     18  C   UNL     1      -1.154  -2.158   0.002  0.00  0.00    +0.203 C 
BRANCH  18  19
ATOM     19  C   UNL     1      -1.122  -2.668   1.420  0.00  0.00    +0.235 C 
ATOM     20  O   UNL     1      -1.120  -1.886   2.346  0.00  0.00    -0.274 OA
ATOM     21  N   UNL     1      -1.095  -3.995   1.658  0.00  0.00    -0.283 N 
ATOM     22  H   UNL     1      -1.163  -4.622   0.921  0.00  0.00    +0.155 HD
BRANCH  21  23
ATOM     23  C   UNL     1      -0.971  -4.468   2.970  0.00  0.00    +0.047 A 
ATOM     24  C   UNL     1      -1.562  -3.775   4.018  0.00  0.00    +0.024 A 
ATOM     25  C   UNL     1      -1.440  -4.246   5.311  0.00  0.00    +0.002 A 
ATOM     26  C   UNL     1      -0.723  -5.402   5.563  0.00  0.00    +0.001 A 
ATOM     27  C   UNL     1      -0.130  -6.092   4.522  0.00  0.00    +0.017 A 
ATOM     28  C   UNL     1      -0.251  -5.628   3.226  0.00  0.00    +0.039 A 
ATOM     29 BR   UNL     1       0.562  -6.571   1.803  0.00  0.00    -0.048 Br
ENDBRANCH  21  23
ENDBRANCH  18  19
ENDBRANCH   3  18
TORSDOF 8
