REMARK  Name = ZINC12558923
REMARK  11 active torsions:
REMARK  status: ('A' for Active; 'I' for Inactive)
REMARK    1  A    between atoms: C_1  and  C_2
REMARK    2  A    between atoms: C_6  and  C_31
REMARK    3  A    between atoms: C_8  and  O_11
REMARK    4  A    between atoms: O_11  and  P_12
REMARK    5  A    between atoms: P_12  and  C_14
REMARK    6  A    between atoms: P_12  and  N_20
REMARK    7  A    between atoms: N_20  and  C_21
REMARK    8  A    between atoms: C_24  and  S_27
REMARK    9  A    between atoms: S_27  and  C_28
REMARK   10  A    between atoms: C_31  and  C_32
REMARK   11  A    between atoms: C_31  and  C_33
REMARK                            x       y       z     vdW  Elec       q    Type
REMARK                         _______ _______ _______ _____ _____    ______ ____
ROOT
ATOM      1  P   UNL     1      -0.014   1.618   0.028  0.00  0.00    +0.318 P 
ATOM      2  O   UNL     1       1.455   1.765  -0.070  0.00  0.00    -0.264 OA
ENDROOT
BRANCH   1   3
ATOM      3  C   UNL     1      -0.604   2.435   1.537  0.00  0.00    +0.055 A 
ATOM      4  C   UNL     1      -0.753   1.708   2.703  0.00  0.00    +0.015 A 
ATOM      5  C   UNL     1      -1.198   2.331   3.854  0.00  0.00    +0.001 A 
ATOM      6  C   UNL     1      -1.504   3.679   3.836  0.00  0.00    +0.000 A 
ATOM      7  C   UNL     1      -1.359   4.405   2.668  0.00  0.00    +0.001 A 
ATOM      8  C   UNL     1      -0.910   3.783   1.519  0.00  0.00    +0.015 A 
ENDBRANCH   1   3
BRANCH   1   9
ATOM      9  N   UNL     1      -0.721   2.310  -1.280  0.00  0.00    -0.271 N 
ATOM     10  H   UNL     1      -0.183   2.803  -1.919  0.00  0.00    +0.156 HD
BRANCH   9  11
ATOM     11  C   UNL     1      -2.102   2.188  -1.475  0.00  0.00    +0.034 A 
ATOM     12  C   UNL     1      -2.885   1.553  -0.520  0.00  0.00    +0.024 A 
ATOM     13  C   UNL     1      -4.248   1.438  -0.710  0.00  0.00    +0.017 A 
ATOM     14  C   UNL     1      -4.834   1.948  -1.861  0.00  0.00    +0.013 A 
ATOM     15  C   UNL     1      -4.050   2.579  -2.819  0.00  0.00    +0.017 A 
ATOM     16  C   UNL     1      -2.688   2.698  -2.626  0.00  0.00    +0.024 A 
BRANCH  14  17
ATOM     17  S   UNL     1      -6.573   1.796  -2.106  0.00  0.00    -0.056 S 
BRANCH  17  18
ATOM     18  C   UNL     1      -7.150   0.923  -0.625  0.00  0.00    +0.404 C 
ATOM     19  F   UNL     1      -6.519  -0.323  -0.541  0.00  0.00    -0.197 F 
ATOM     20  F   UNL     1      -6.842   1.679   0.512  0.00  0.00    -0.197 F 
ENDBRANCH  17  18
ENDBRANCH  14  17
ENDBRANCH   9  11
ENDBRANCH   1   9
BRANCH   1  21
ATOM     21  O   UNL     1      -0.395   0.055   0.081  0.00  0.00    -0.307 OA
BRANCH  21  27
ATOM     22  C   UNL     1      -3.203  -2.789   1.613  0.00  0.00    +0.007 C 
ATOM     23  C   UNL     1      -2.005  -2.197   0.868  0.00  0.00    -0.012 C 
ATOM     24  C   UNL     1      -1.187  -3.326   0.239  0.00  0.00    +0.004 C 
ATOM     25  C   UNL     1       0.011  -2.734  -0.506  0.00  0.00    +0.006 C 
ATOM     26  C   UNL     1       0.888  -1.955   0.477  0.00  0.00    +0.021 C 
ATOM     27  C   UNL     1       0.070  -0.826   1.106  0.00  0.00    +0.131 C 
ATOM     28  C   UNL     1      -1.129  -1.418   1.851  0.00  0.00    +0.035 C 
BRANCH  26  29
ATOM     29  C   UNL     1       2.086  -1.363  -0.268  0.00  0.00    -0.012 C 
ATOM     30  C   UNL     1       2.963  -0.583   0.715  0.00  0.00    +0.007 C 
ATOM     31  C   UNL     1       2.905  -2.492  -0.897  0.00  0.00    +0.007 C 
ENDBRANCH  26  29
ENDBRANCH  21  27
ENDBRANCH   1  21
TORSDOF 8
