REMARK  Name = ZINC12343012
REMARK  8 active torsions:
REMARK  status: ('A' for Active; 'I' for Inactive)
REMARK    1  A    between atoms: C_1  and  C_2
REMARK    2  A    between atoms: C_2  and  C_26
REMARK    3  A    between atoms: N_3  and  N_4
REMARK    4  A    between atoms: C_8  and  C_11
REMARK    5  A    between atoms: C_11  and  C_12
REMARK    6  A    between atoms: N_14  and  C_15
REMARK    7  A    between atoms: C_20  and  C_21
REMARK    8  A    between atoms: C_29  and  N_32
REMARK                            x       y       z     vdW  Elec       q    Type
REMARK                         _______ _______ _______ _____ _____    ______ ____
ROOT
ATOM      1  N   UNL     1       0.017  -0.068   2.258  0.00  0.00    -0.126 NA
ATOM      2  C   UNL     1       0.037  -0.750   3.444  0.00  0.00    +0.183 C 
ATOM      3  N   UNL     1       0.030  -0.221   4.689  0.00  0.00    -0.263 N 
ATOM      4  C   UNL     1       0.051  -0.966   5.786  0.00  0.00    +0.233 C 
ATOM      5  C   UNL     1       0.082  -2.459   5.491  0.00  0.00    +0.149 C 
ATOM      6  S   UNL     1       0.066  -2.418   3.653  0.00  0.00    -0.075 S 
ATOM      7  O   UNL     1       0.046  -0.505   6.907  0.00  0.00    -0.274 OA
ATOM      8  H   UNL     1       0.010   0.744   4.784  0.00  0.00    +0.157 HD
ENDROOT
BRANCH   1  11
ATOM      9  C   UNL     1      -0.025   1.467  -0.032  0.00  0.00    +0.068 C 
ATOM     10  C   UNL     1       0.001  -0.040  -0.030  0.00  0.00    +0.068 C 
ATOM     11  N   UNL     1       0.020  -0.714   1.142  0.00  0.00    -0.152 NA
BRANCH  10  12
ATOM     12  C   UNL     1       0.004  -0.742  -1.242  0.00  0.00    -0.002 A 
ATOM     13  C   UNL     1      -0.010  -0.043  -2.473  0.00  0.00    +0.012 A 
ATOM     14  C   UNL     1      -0.006  -0.739  -3.646  0.00  0.00    +0.033 A 
ATOM     15  C   UNL     1       0.012  -2.129  -3.636  0.00  0.00    +0.126 A 
ATOM     16  C   UNL     1       0.026  -2.828  -2.435  0.00  0.00    +0.033 A 
ATOM     17  C   UNL     1       0.028  -2.158  -1.248  0.00  0.00    +0.012 A 
BRANCH  15  18
ATOM     18  N   UNL     1       0.015  -2.871  -4.917  0.00  0.00    +0.056 N 
ATOM     19  O   UNL     1       0.002  -2.214  -6.059  0.00  0.00    -0.126 OA
ATOM     20  O   UNL     1       0.032  -4.188  -4.915  0.00  0.00    -0.126 OA
ENDBRANCH  15  18
ENDBRANCH  10  12
ENDBRANCH   1  11
BRANCH   5  21
ATOM     21  C   UNL     1      -1.163  -3.160   6.039  0.00  0.00    +0.120 C 
BRANCH  21  22
ATOM     22  C   UNL     1      -1.032  -4.647   5.834  0.00  0.00    +0.219 C 
ATOM     23  O   UNL     1      -0.041  -5.102   5.302  0.00  0.00    -0.275 OA
ATOM     24  N   UNL     1      -2.017  -5.473   6.242  0.00  0.00    -0.285 N 
ATOM     25  H   UNL     1      -2.771  -5.119   6.738  0.00  0.00    +0.155 HD
BRANCH  24  26
ATOM     26  C   UNL     1      -1.950  -6.839   5.949  0.00  0.00    +0.045 A 
ATOM     27  C   UNL     1      -1.214  -7.282   4.858  0.00  0.00    +0.024 A 
ATOM     28  C   UNL     1      -1.150  -8.632   4.572  0.00  0.00    +0.002 A 
ATOM     29  C   UNL     1      -1.819  -9.542   5.370  0.00  0.00    +0.001 A 
ATOM     30  C   UNL     1      -2.553  -9.104   6.457  0.00  0.00    +0.014 A 
ATOM     31  C   UNL     1      -2.615  -7.756   6.753  0.00  0.00    +0.076 A 
BRANCH  31  32
ATOM     32  C   UNL     1      -3.410  -7.280   7.941  0.00  0.00    +0.419 C 
ATOM     33  F   UNL     1      -3.983  -8.380   8.589  0.00  0.00    -0.166 F 
ATOM     34  F   UNL     1      -2.564  -6.606   8.828  0.00  0.00    -0.166 F 
ATOM     35  F   UNL     1      -4.420  -6.414   7.510  0.00  0.00    -0.166 F 
ENDBRANCH  31  32
ENDBRANCH  24  26
ENDBRANCH  21  22
ENDBRANCH   5  21
TORSDOF 7
