REMARK  Name = ZINC36032542
REMARK  10 active torsions:
REMARK  status: ('A' for Active; 'I' for Inactive)
REMARK    1  A    between atoms: C_1  and  C_2
REMARK    2  A    between atoms: C_2  and  C_3
REMARK    3  A    between atoms: C_2  and  C_4
REMARK    4  A    between atoms: C_4  and  C_5
REMARK    5  A    between atoms: N_9  and  C_27
REMARK    6  A    between atoms: C_17  and  C_19
REMARK    7  A    between atoms: C_23  and  O_25
REMARK    8  A    between atoms: O_25  and  C_26
REMARK    9  A    between atoms: C_27  and  C_28
REMARK   10  A    between atoms: C_32  and  C_34
REMARK                            x       y       z     vdW  Elec       q    Type
REMARK                         _______ _______ _______ _____ _____    ______ ____
ROOT
ATOM      1  C   UNL     1       0.377  -1.748   2.218  0.00  0.00    +0.019 C 
ATOM      2  C   UNL     1      -0.769  -1.970   1.255  0.00  0.00    +0.201 C 
ATOM      3  O   UNL     1      -0.962  -1.354   0.228  0.00  0.00    -0.277 OA
ATOM      4  N   UNL     1      -1.540  -2.970   1.731  0.00  0.00    -0.309 N 
ATOM      5  C   UNL     1      -0.977  -3.465   2.990  0.00  0.00    +0.006 C 
ATOM      6  N   UNL     1      -0.042  -2.424   3.470  0.00  0.00    +0.401 N 
ATOM      7  C   UNL     1      -0.217  -4.769   2.753  0.00  0.00    +0.025 C 
ATOM      8  C   UNL     1      -1.185  -5.830   2.218  0.00  0.00    +0.108 C 
ATOM      9  N   UNL     1      -2.321  -5.942   3.143  0.00  0.00    -0.298 N 
ATOM     10  C   UNL     1      -3.070  -4.729   3.494  0.00  0.00    +0.108 C 
ATOM     11  C   UNL     1      -2.087  -3.676   4.018  0.00  0.00    +0.025 C 
ATOM     12  C   UNL     1      -2.669  -7.138   3.660  0.00  0.00    +0.247 C 
ATOM     13  O   UNL     1      -3.647  -7.228   4.375  0.00  0.00    -0.270 OA
ATOM     14  H   UNL     1       0.752  -2.841   3.932  0.00  0.00    -0.082 HD
ATOM     15  H   UNL     1      -0.513  -1.777   4.084  0.00  0.00    -0.082 HD
ENDROOT
BRANCH  12  16
ATOM     16  C   UNL     1      -1.861  -8.338   3.357  0.00  0.00    +0.040 A 
ATOM     17  C   UNL     1      -1.545  -8.654   2.034  0.00  0.00    +0.013 A 
ATOM     18  C   UNL     1      -0.791  -9.775   1.755  0.00  0.00    +0.004 A 
ATOM     19  C   UNL     1      -0.346 -10.588   2.781  0.00  0.00    +0.045 A 
ATOM     20  C   UNL     1      -0.655 -10.281   4.100  0.00  0.00    +0.121 A 
ATOM     21  C   UNL     1      -1.406  -9.155   4.392  0.00  0.00    +0.058 A 
BRANCH  20  22
ATOM     22  O   UNL     1      -0.215 -11.084   5.104  0.00  0.00    -0.495 OA
ATOM     23  C   UNL     1       0.559 -12.226   4.731  0.00  0.00    +0.277 C 
ENDBRANCH  20  22
ENDBRANCH  12  16
BRANCH   1  24
ATOM     24  C   UNL     1       0.583  -0.252   2.463  0.00  0.00    -0.004 C 
BRANCH  24  26
ATOM     25  C   UNL     1       3.045  -0.517   2.795  0.00  0.00    +0.007 C 
ATOM     26  C   UNL     1       1.740  -0.050   3.444  0.00  0.00    -0.018 C 
ATOM     27  C   UNL     1       1.852   1.433   3.804  0.00  0.00    +0.007 C 
ENDBRANCH  24  26
ENDBRANCH   1  24
BRANCH   4  28
ATOM     28  C   UNL     1      -2.753  -3.482   1.088  0.00  0.00    +0.141 C 
BRANCH  28  29
ATOM     29  C   UNL     1      -3.896  -2.534   1.344  0.00  0.00    -0.030 A 
ATOM     30  C   UNL     1      -4.561  -2.566   2.555  0.00  0.00    +0.005 A 
ATOM     31  C   UNL     1      -5.610  -1.696   2.791  0.00  0.00    +0.001 A 
ATOM     32  C   UNL     1      -5.993  -0.795   1.814  0.00  0.00    +0.012 A 
ATOM     33  C   UNL     1      -5.327  -0.763   0.604  0.00  0.00    +0.055 A 
ATOM     34  C   UNL     1      -4.276  -1.630   0.370  0.00  0.00    +0.017 A 
BRANCH  33  35
ATOM     35  C   UNL     1      -5.745   0.218  -0.461  0.00  0.00    +0.417 C 
ATOM     36  F   UNL     1      -6.819   0.983   0.007  0.00  0.00    -0.166 F 
ATOM     37  F   UNL     1      -4.670   1.061  -0.766  0.00  0.00    -0.166 F 
ATOM     38  F   UNL     1      -6.133  -0.477  -1.610  0.00  0.00    -0.166 F 
ENDBRANCH  33  35
ENDBRANCH  28  29
ENDBRANCH   4  28
TORSDOF 7
