REMARK  Name = ZINC17124400
REMARK  9 active torsions:
REMARK  status: ('A' for Active; 'I' for Inactive)
REMARK    1  A    between atoms: C_1  and  N_59
REMARK    2  A    between atoms: C_9  and  O_33
REMARK    3  A    between atoms: C_11  and  C_14
REMARK    4  A    between atoms: C_17  and  O_20
REMARK    5  A    between atoms: O_20  and  C_21
REMARK    6  A    between atoms: C_21  and  C_23
REMARK    7  A    between atoms: C_24  and  C_25
REMARK    8  A    between atoms: C_28  and  O_31
REMARK    9  A    between atoms: O_31  and  C_32
REMARK                            x       y       z     vdW  Elec       q    Type
REMARK                         _______ _______ _______ _____ _____    ______ ____
ROOT
ATOM      1  C   UNL     1      -9.374  -0.854   0.147  0.00  0.00    -0.005 A 
ATOM      2  C   UNL     1      -9.540   0.517   0.083  0.00  0.00    +0.011 A 
ATOM      3  C   UNL     1      -8.435   1.346   0.047  0.00  0.00    +0.047 A 
ATOM      4  C   UNL     1      -7.159   0.802   0.075  0.00  0.00    +0.132 A 
ATOM      5  C   UNL     1      -6.996  -0.574   0.134  0.00  0.00    +0.047 A 
ATOM      6  C   UNL     1      -8.103  -1.399   0.175  0.00  0.00    +0.011 A 
ENDROOT
BRANCH   1  17
ATOM      7  C   UNL     1     -10.772  -2.483   8.592  0.00  0.00    -0.096 C 
ATOM      8  C   UNL     1     -12.117  -1.874   6.673  0.00  0.00    -0.074 C 
ATOM      9  C   UNL     1     -12.044  -1.218   5.291  0.00  0.00    +0.018 C 
ATOM     10  C   UNL     1     -11.195  -2.104   4.388  0.00  0.00    -0.027 A 
ATOM     11  C   UNL     1     -10.379  -3.040   4.932  0.00  0.00    -0.021 A 
ATOM     12  S   UNL     1      -9.601  -3.826   3.547  0.00  0.00    -0.080 S 
ATOM     13  C   UNL     1     -10.341  -2.936   2.286  0.00  0.00    +0.080 A 
ATOM     14  C   UNL     1     -11.187  -2.030   2.939  0.00  0.00    +0.067 A 
ATOM     15  C   UNL     1     -11.974  -1.100   2.088  0.00  0.00    +0.220 C 
ATOM     16  N   UNL     1     -11.685  -1.046   0.818  0.00  0.00    -0.223 NA
ATOM     17  C   UNL     1     -10.580  -1.756   0.186  0.00  0.00    +0.224 C 
ATOM     18  N   UNL     1     -10.236  -2.989   0.919  0.00  0.00    -0.313 N 
ATOM     19  C   UNL     1     -10.196  -3.321   6.389  0.00  0.00    -0.036 C 
ATOM     20  H   UNL     1      -9.950  -3.794   0.460  0.00  0.00    +0.149 HD
ATOM     21  N   UNL     1     -10.751  -2.173   7.147  0.00  0.00    +0.381 N 
ATOM     22  H   UNL     1     -10.155  -1.351   6.991  0.00  0.00    -0.082 HD
BRANCH  15  23
ATOM     23  O   UNL     1     -12.958  -0.335   2.615  0.00  0.00    -0.492 OA
ATOM     24  H   UNL     1     -13.403   0.232   1.970  0.00  0.00    +0.294 HD
ENDBRANCH  15  23
ENDBRANCH   1  17
BRANCH   4  25
ATOM     25  O   UNL     1      -6.071   1.616   0.041  0.00  0.00    -0.423 OA
BRANCH  25  26
ATOM     26  C   UNL     1      -5.728   2.264   1.173  0.00  0.00    +0.337 C 
ATOM     27  O   UNL     1      -6.436   2.182   2.159  0.00  0.00    -0.245 OA
BRANCH  26  28
ATOM     28  C   UNL     1      -4.543   3.041   1.214  0.00  0.00    +0.092 C 
ATOM     29  C   UNL     1      -4.200   3.690   2.348  0.00  0.00    +0.015 C 
BRANCH  29  30
ATOM     30  C   UNL     1      -2.971   4.495   2.391  0.00  0.00    -0.025 A 
ATOM     31  C   UNL     1      -2.613   5.169   3.565  0.00  0.00    +0.011 A 
ATOM     32  C   UNL     1      -1.459   5.917   3.601  0.00  0.00    +0.046 A 
ATOM     33  C   UNL     1      -0.651   6.010   2.473  0.00  0.00    +0.120 A 
ATOM     34  C   UNL     1      -1.005   5.347   1.303  0.00  0.00    +0.046 A 
ATOM     35  C   UNL     1      -2.158   4.596   1.256  0.00  0.00    +0.011 A 
BRANCH  33  36
ATOM     36  O   UNL     1       0.486   6.749   2.514  0.00  0.00    -0.495 OA
ATOM     37  C   UNL     1       1.269   6.801   1.320  0.00  0.00    +0.277 C 
ENDBRANCH  33  36
ENDBRANCH  29  30
ENDBRANCH  26  28
ENDBRANCH  25  26
ENDBRANCH   4  25
TORSDOF 7
