REMARK  Name = ZINC01126200
REMARK  7 active torsions:
REMARK  status: ('A' for Active; 'I' for Inactive)
REMARK    1  A    between atoms: C_1  and  C_2
REMARK    2  A    between atoms: C_2  and  C_30
REMARK    3  A    between atoms: C_9  and  C_22
REMARK    4  A    between atoms: C_9  and  C_26
REMARK    5  A    between atoms: N_13  and  C_14
REMARK    6  A    between atoms: C_17  and  O_20
REMARK    7  A    between atoms: O_20  and  C_21
REMARK                            x       y       z     vdW  Elec       q    Type
REMARK                         _______ _______ _______ _____ _____    ______ ____
ROOT
ATOM      1  C   UNL     1      -3.530   1.623  -2.030  0.00  0.00    +0.011 C 
ATOM      2  C   UNL     1      -4.349   1.061  -0.866  0.00  0.00    -0.023 C 
ATOM      3  C   UNL     1      -4.454   2.108   0.244  0.00  0.00    +0.058 C 
ATOM      4  C   UNL     1      -3.075   2.438   0.759  0.00  0.00    +0.030 C 
ATOM      5  C   UNL     1      -2.097   1.505   0.744  0.00  0.00    +0.053 C 
ATOM      6  C   UNL     1      -2.311   0.214   0.249  0.00  0.00    +0.164 C 
ATOM      7  O   UNL     1      -1.404  -0.594   0.265  0.00  0.00    -0.292 OA
ATOM      8  C   UNL     1      -3.655  -0.185  -0.305  0.00  0.00    +0.086 C 
ATOM      9  C   UNL     1      -0.734   1.887   1.284  0.00  0.00    +0.256 C 
ATOM     10  N   UNL     1      -0.578   3.264   1.784  0.00  0.00    -0.274 N 
ATOM     11  C   UNL     1      -1.645   4.086   1.730  0.00  0.00    +0.312 C 
ATOM     12  O   UNL     1      -1.528   5.225   2.139  0.00  0.00    -0.252 OA
ATOM     13  N   UNL     1      -2.827   3.693   1.244  0.00  0.00    -0.228 N 
ATOM     14  C   UNL     1      -5.750   0.689  -1.357  0.00  0.00    +0.011 C 
ATOM     15  H   UNL     1       0.269   3.571   2.143  0.00  0.00    +0.152 HD
ENDROOT
BRANCH  13  16
ATOM     16  C   UNL     1      -3.876   4.624   1.230  0.00  0.00    +0.043 A 
ATOM     17  C   UNL     1      -4.763   4.686   2.297  0.00  0.00    +0.027 A 
ATOM     18  C   UNL     1      -5.793   5.606   2.285  0.00  0.00    +0.047 A 
ATOM     19  C   UNL     1      -5.948   6.461   1.204  0.00  0.00    +0.120 A 
ATOM     20  C   UNL     1      -5.065   6.395   0.135  0.00  0.00    +0.047 A 
ATOM     21  C   UNL     1      -4.032   5.480   0.148  0.00  0.00    +0.027 A 
BRANCH  19  22
ATOM     22  O   UNL     1      -6.965   7.362   1.190  0.00  0.00    -0.495 OA
ATOM     23  C   UNL     1      -7.836   7.374   2.323  0.00  0.00    +0.277 C 
ENDBRANCH  19  22
ENDBRANCH  13  16
BRANCH   9  24
ATOM     24  C   UNL     1       0.293   1.671   0.171  0.00  0.00    +0.424 C 
ATOM     25  F   UNL     1       0.343   0.312  -0.159  0.00  0.00    -0.168 F 
ATOM     26  F   UNL     1       1.552   2.091   0.609  0.00  0.00    -0.168 F 
ATOM     27  F   UNL     1      -0.080   2.410  -0.957  0.00  0.00    -0.168 F 
ENDBRANCH   9  24
BRANCH   9  28
ATOM     28  C   UNL     1      -0.394   0.929   2.427  0.00  0.00    +0.424 C 
ATOM     29  F   UNL     1       0.824   1.305   3.004  0.00  0.00    -0.168 F 
ATOM     30  F   UNL     1      -1.403   0.980   3.395  0.00  0.00    -0.168 F 
ATOM     31  F   UNL     1      -0.291  -0.374   1.929  0.00  0.00    -0.168 F 
ENDBRANCH   9  28
TORSDOF 4
