REMARK  Name = ZINC14984870
REMARK  10 active torsions:
REMARK  status: ('A' for Active; 'I' for Inactive)
REMARK    1  A    between atoms: C_1  and  C_2
REMARK    2  A    between atoms: C_2  and  C_4
REMARK    3  A    between atoms: C_2  and  C_14
REMARK    4  A    between atoms: C_4  and  C_5
REMARK    5  A    between atoms: C_14  and  N_62
REMARK    6  A    between atoms: C_15  and  C_16
REMARK    7  A    between atoms: C_15  and  N_62
REMARK    8  A    between atoms: C_18  and  C_26
REMARK    9  A    between atoms: C_20  and  N_22
REMARK   10  A    between atoms: C_23  and  C_25
REMARK                            x       y       z     vdW  Elec       q    Type
REMARK                         _______ _______ _______ _____ _____    ______ ____
ROOT
ATOM      1  C   UNL     1       4.122   1.823  -2.598  0.00  0.00    -0.062 A 
ATOM      2  C   UNL     1       4.753   0.599  -2.691  0.00  0.00    +0.015 A 
ATOM      3  C   UNL     1       5.289   0.181  -3.910  0.00  0.00    +0.039 A 
ATOM      4  C   UNL     1       5.193   1.008  -5.029  0.00  0.00    +0.036 A 
ATOM      5  C   UNL     1       4.561   2.238  -4.924  0.00  0.00    +0.034 A 
ATOM      6  C   UNL     1       4.027   2.643  -3.707  0.00  0.00    +0.025 A 
ENDROOT
BRANCH   3   7
ATOM      7  C   UNL     1       5.961  -1.132  -4.014  0.00  0.00    +0.247 C 
ATOM      8  O   UNL     1       5.929  -1.907  -3.078  0.00  0.00    -0.270 OA
ATOM      9  N   UNL     1       6.610  -1.469  -5.146  0.00  0.00    -0.298 N 
ATOM     10  C   UNL     1       6.625  -0.687  -6.391  0.00  0.00    +0.108 C 
ATOM     11  C   UNL     1       7.472  -1.471  -7.415  0.00  0.00    +0.020 C 
ATOM     12  C   UNL     1       7.410  -2.924  -6.874  0.00  0.00    +0.020 C 
ATOM     13  C   UNL     1       7.418  -2.686  -5.343  0.00  0.00    +0.108 C 
ENDBRANCH   3   7
BRANCH   5  14
ATOM     14  N   UNL     1       4.462   3.071  -6.044  0.00  0.00    -0.286 N 
ATOM     15  C   UNL     1       3.366   3.835  -6.220  0.00  0.00    +0.214 C 
ATOM     16  O   UNL     1       2.502   3.863  -5.369  0.00  0.00    -0.276 OA
ATOM     17  C   UNL     1       3.213   4.655  -7.475  0.00  0.00    +0.109 C 
ATOM     18  H   UNL     1       5.183   3.099  -6.693  0.00  0.00    +0.155 HD
ENDBRANCH   5  14
BRANCH   1  19
ATOM     19  C   UNL     1       3.540   2.270  -1.281  0.00  0.00    -0.047 C 
BRANCH  19  20
ATOM     20  N   UNL     1       2.139   1.819  -1.194  0.00  0.00    +0.382 N 
ATOM     21  H   UNL     1       1.603   2.227  -1.969  0.00  0.00    -0.085 HD
ATOM     22  H   UNL     1       2.108   0.794  -1.259  0.00  0.00    -0.085 HD
BRANCH  20  23
ATOM     23  C   UNL     1       1.543   2.243   0.087  0.00  0.00    -0.079 C 
BRANCH  23  25
ATOM     24  C   UNL     1       0.062   0.232   0.170  0.00  0.00    +0.006 C 
ATOM     25  C   UNL     1       0.092   1.762   0.148  0.00  0.00    -0.027 C 
BRANCH  25  26
ATOM     26  C   UNL     1      -0.572   2.303   1.417  0.00  0.00    +0.036 C 
BRANCH  26  27
ATOM     27  C   UNL     1      -2.032   1.932   1.417  0.00  0.00    -0.043 A 
ATOM     28  C   UNL     1      -2.442   0.742   1.988  0.00  0.00    +0.007 A 
ATOM     29  C   UNL     1      -3.781   0.398   1.991  0.00  0.00    +0.050 A 
ATOM     30  C   UNL     1      -4.716   1.246   1.421  0.00  0.00    +0.166 A 
ATOM     31  C   UNL     1      -4.303   2.445   0.845  0.00  0.00    +0.166 A 
ATOM     32  C   UNL     1      -2.961   2.786   0.851  0.00  0.00    +0.053 A 
ATOM     33  O   UNL     1      -5.400   3.095   0.358  0.00  0.00    -0.453 OA
ATOM     34  C   UNL     1      -6.531   2.478   1.001  0.00  0.00    +0.466 C 
ATOM     35  O   UNL     1      -6.071   1.145   1.294  0.00  0.00    -0.453 OA
ENDBRANCH  26  27
ENDBRANCH  25  26
ENDBRANCH  23  25
ENDBRANCH  20  23
ENDBRANCH  19  20
ENDBRANCH   1  19
TORSDOF 8
