REMARK  Name = ZINC22243153
REMARK  5 active torsions:
REMARK  status: ('A' for Active; 'I' for Inactive)
REMARK    1  A    between atoms: C_11  and  C_31
REMARK    2  A    between atoms: C_14  and  C_16
REMARK    3  A    between atoms: C_16  and  S_17
REMARK    4  A    between atoms: S_17  and  C_18
REMARK    5  A    between atoms: N_23  and  C_24
REMARK                            x       y       z     vdW  Elec       q    Type
REMARK                         _______ _______ _______ _____ _____    ______ ____
ROOT
ATOM      1  C   UNL     1       3.808  10.132   0.430  0.00  0.00    +0.002 A 
ATOM      2  C   UNL     1       2.993  10.016  -0.681  0.00  0.00    +0.002 A 
ATOM      3  C   UNL     1       1.652  10.344  -0.599  0.00  0.00    +0.025 A 
ATOM      4  C   UNL     1       1.124  10.790   0.602  0.00  0.00    +0.058 A 
ATOM      5  C   UNL     1       1.943  10.888   1.728  0.00  0.00    +0.055 A 
ATOM      6  C   UNL     1       3.287  10.568   1.635  0.00  0.00    +0.025 A 
ATOM      7  N   UNL     1       1.381  11.278   2.949  0.00  0.00    -0.284 N 
ATOM      8  C   UNL     1       0.589  12.370   3.021  0.00  0.00    +0.219 C 
ATOM      9  O   UNL     1       0.041  12.649   4.066  0.00  0.00    -0.275 OA
ATOM     10  C   UNL     1       0.382  13.244   1.812  0.00  0.00    +0.128 C 
ATOM     11  C   UNL     1      -0.573  12.566   0.824  0.00  0.00    +0.194 C 
ATOM     12  N   UNL     1      -0.228  11.149   0.699  0.00  0.00    -0.257 N 
ATOM     13  C   UNL     1      -1.192  10.207   0.672  0.00  0.00    +0.231 C 
ATOM     14  O   UNL     1      -2.358  10.530   0.756  0.00  0.00    -0.274 OA
ATOM     15  H   UNL     1       1.582  10.694   3.858  0.00  0.00    +0.155 HD
ENDROOT
BRANCH  11  16
ATOM     16  C   UNL     1      -0.460  13.240  -0.545  0.00  0.00    +0.409 C 
ATOM     17  F   UNL     1      -1.337  12.623  -1.443  0.00  0.00    -0.169 F 
ATOM     18  F   UNL     1      -0.789  14.594  -0.426  0.00  0.00    -0.169 F 
ATOM     19  F   UNL     1       0.852  13.119  -1.016  0.00  0.00    -0.169 F 
ENDBRANCH  11  16
BRANCH  13  20
ATOM     20  C   UNL     1      -0.821   8.753   0.536  0.00  0.00    +0.172 C 
BRANCH  20  21
ATOM     21  S   UNL     1      -2.327   7.742   0.531  0.00  0.00    -0.088 S 
BRANCH  21  22
ATOM     22  C   UNL     1      -1.733   6.092   0.368  0.00  0.00    +0.160 A 
ATOM     23  N   UNL     1      -0.491   5.656   0.271  0.00  0.00    -0.133 NA
ATOM     24  N   UNL     1      -0.247   4.307   0.150  0.00  0.00    -0.125 NA
ATOM     25  C   UNL     1      -1.255   3.457   0.132  0.00  0.00    +0.187 A 
ATOM     26  S   UNL     1      -2.651   4.562   0.282  0.00  0.00    -0.024 S 
ATOM     27  N   UNL     1      -1.236   2.071   0.019  0.00  0.00    -0.290 N 
ATOM     28  H   UNL     1      -2.171   1.499   0.118  0.00  0.00    +0.154 HD
BRANCH  27  29
ATOM     29  C   UNL     1      -0.030   1.405  -0.219  0.00  0.00    +0.068 A 
ATOM     30  C   UNL     1       1.114   2.128  -0.532  0.00  0.00    +0.026 A 
ATOM     31  C   UNL     1       2.303   1.466  -0.774  0.00  0.00    +0.002 A 
ATOM     32  C   UNL     1       2.356   0.086  -0.703  0.00  0.00    +0.003 A 
ATOM     33  C   UNL     1       1.220  -0.638  -0.391  0.00  0.00    +0.040 A 
ATOM     34  C   UNL     1       0.026   0.017  -0.149  0.00  0.00    +0.144 A 
ATOM     35  F   UNL     1      -1.084  -0.690   0.155  0.00  0.00    -0.204 F 
ENDBRANCH  27  29
ENDBRANCH  21  22
ENDBRANCH  20  21
ENDBRANCH  13  20
TORSDOF 5
