REMARK  Name = ZINC39654443
REMARK  10 active torsions:
REMARK  status: ('A' for Active; 'I' for Inactive)
REMARK    1  A    between atoms: C_1  and  C_2
REMARK    2  A    between atoms: C_2  and  C_3
REMARK    3  A    between atoms: C_6  and  C_9
REMARK    4  A    between atoms: C_9  and  C_10
REMARK    5  A    between atoms: C_10  and  N_11
REMARK    6  A    between atoms: C_12  and  C_14
REMARK    7  A    between atoms: C_25  and  C_27
REMARK    8  A    between atoms: C_27  and  C_29
REMARK    9  A    between atoms: C_27  and  C_31
REMARK   10  A    between atoms: C_29  and  C_30
REMARK                            x       y       z     vdW  Elec       q    Type
REMARK                         _______ _______ _______ _____ _____    ______ ____
ROOT
ATOM      1  C   UNL     1       5.151  -0.356   8.928  0.00  0.00    +0.100 C 
ATOM      2  C   UNL     1       6.263  -1.366   8.566  0.00  0.00    +0.121 C 
ATOM      3  N   UNL     1       7.498  -0.551   8.486  0.00  0.00    -0.300 N 
ATOM      4  C   UNL     1       7.374   0.416   9.603  0.00  0.00    +0.115 C 
ATOM      5  C   UNL     1       5.884   0.811   9.611  0.00  0.00    -0.004 C 
ATOM      6  C   UNL     1       5.676   2.100   8.822  0.00  0.00    -0.010 C 
ATOM      7  C   UNL     1       6.367   3.256   9.552  0.00  0.00    -0.082 C 
ATOM      8  N   UNL     1       5.807   3.389  10.902  0.00  0.00    +0.379 N 
ATOM      9  C   UNL     1       6.092   2.180  11.684  0.00  0.00    -0.082 C 
ATOM     10  C   UNL     1       5.390   0.979  11.045  0.00  0.00    -0.010 C 
ATOM     11  C   UNL     1       8.506  -0.663   7.598  0.00  0.00    +0.223 C 
ATOM     12  O   UNL     1       8.421  -1.451   6.681  0.00  0.00    -0.275 OA
ATOM     13  H   UNL     1       6.220   4.189  11.358  0.00  0.00    -0.086 HD
ATOM     14  H   UNL     1       4.808   3.520  10.839  0.00  0.00    -0.086 HD
ENDROOT
BRANCH   1  16
ATOM     15  N   UNL     1       3.153   0.482   7.734  0.00  0.00    -0.315 N 
ATOM     16  C   UNL     1       4.451   0.122   7.682  0.00  0.00    +0.218 C 
ATOM     17  O   UNL     1       5.056   0.183   6.632  0.00  0.00    -0.275 OA
ATOM     18  H   UNL     1       2.670   0.434   8.573  0.00  0.00    +0.149 HD
BRANCH  15  19
ATOM     19  C   UNL     1       2.473   0.947   6.522  0.00  0.00    +0.109 C 
BRANCH  19  20
ATOM     20  C   UNL     1       1.019   1.290   6.854  0.00  0.00    +0.054 C 
BRANCH  20  24
ATOM     21  C   UNL     1      -0.967   2.645   3.323  0.00  0.00    -0.048 A 
ATOM     22  C   UNL     1      -0.967   1.300   3.643  0.00  0.00    +0.004 A 
ATOM     23  C   UNL     1      -0.324   0.862   4.786  0.00  0.00    +0.004 A 
ATOM     24  C   UNL     1       0.319   1.768   5.608  0.00  0.00    -0.046 A 
ATOM     25  C   UNL     1       0.320   3.112   5.287  0.00  0.00    +0.004 A 
ATOM     26  C   UNL     1      -0.319   3.550   4.142  0.00  0.00    +0.004 A 
BRANCH  21  28
ATOM     27  C   UNL     1      -0.690   3.099   0.901  0.00  0.00    +0.009 C 
ATOM     28  C   UNL     1      -1.668   3.123   2.078  0.00  0.00    +0.032 C 
ENDBRANCH  21  28
ENDBRANCH  20  24
ENDBRANCH  19  20
ENDBRANCH  15  19
ENDBRANCH   1  16
BRANCH  11  29
ATOM     29  C   UNL     1       9.739   0.191   7.746  0.00  0.00    +0.105 C 
BRANCH  29  30
ATOM     30  C   UNL     1      10.635  -0.009   6.551  0.00  0.00    -0.036 A 
ATOM     31  C   UNL     1      11.127  -1.267   6.260  0.00  0.00    +0.004 A 
ATOM     32  C   UNL     1      11.949  -1.451   5.164  0.00  0.00    +0.000 A 
ATOM     33  C   UNL     1      12.278  -0.377   4.359  0.00  0.00    +0.000 A 
ATOM     34  C   UNL     1      11.785   0.882   4.649  0.00  0.00    +0.000 A 
ATOM     35  C   UNL     1      10.959   1.065   5.743  0.00  0.00    +0.004 A 
ENDBRANCH  29  30
BRANCH  29  36
ATOM     36  C   UNL     1      10.488  -0.210   9.018  0.00  0.00    +0.014 C 
ATOM     37  C   UNL     1      11.657   0.750   9.246  0.00  0.00    +0.005 C 
ENDBRANCH  29  36
ENDBRANCH  11  29
TORSDOF 8
