REMARK  Name = ZINC63139664
REMARK  12 active torsions:
REMARK  status: ('A' for Active; 'I' for Inactive)
REMARK    1  A    between atoms: C_1  and  C_2
REMARK    2  A    between atoms: C_2  and  N_3
REMARK    3  A    between atoms: N_3  and  C_4
REMARK    4  A    between atoms: N_3  and  C_6
REMARK    5  A    between atoms: C_4  and  C_5
REMARK    6  A    between atoms: C_6  and  C_7
REMARK    7  A    between atoms: C_7  and  C_8
REMARK    8  A    between atoms: C_8  and  N_9
REMARK    9  A    between atoms: C_29  and  C_31
REMARK   10  A    between atoms: C_34  and  C_37
REMARK   11  A    between atoms: C_37  and  O_39
REMARK   12  A    between atoms: O_39  and  C_40
REMARK                            x       y       z     vdW  Elec       q    Type
REMARK                         _______ _______ _______ _____ _____    ______ ____
ROOT
ATOM      1  N   UNL     1       2.728  -3.747  -1.215  0.00  0.00    -0.291 N 
ATOM      2  C   UNL     1       2.153  -4.102  -2.502  0.00  0.00    +0.203 C 
ATOM      3  C   UNL     1       3.199  -4.356  -3.536  0.00  0.00    +0.234 C 
ATOM      4  O   UNL     1       2.828  -4.663  -4.649  0.00  0.00    -0.274 OA
ATOM      5  N   UNL     1       4.518  -4.270  -3.323  0.00  0.00    -0.279 N 
ATOM      6  C   UNL     1       5.084  -3.892  -2.032  0.00  0.00    +0.167 C 
ATOM      7  C   UNL     1       4.037  -3.644  -0.996  0.00  0.00    +0.237 C 
ATOM      8  O   UNL     1       4.404  -3.334   0.118  0.00  0.00    -0.274 OA
ATOM      9  C   UNL     1       5.958  -2.635  -2.190  0.00  0.00    +0.065 C 
ATOM     10  C   UNL     1       6.826  -2.864  -3.403  0.00  0.00    -0.034 C 
ATOM     11  C   UNL     1       8.137  -2.763  -3.579  0.00  0.00    -0.001 A 
ATOM     12  C   UNL     1       9.211  -2.284  -2.693  0.00  0.00    +0.010 A 
ATOM     13  C   UNL     1      10.472  -2.339  -3.197  0.00  0.00    +0.001 A 
ATOM     14  C   UNL     1      10.770  -2.816  -4.477  0.00  0.00    +0.002 A 
ATOM     15  C   UNL     1       9.844  -3.266  -5.362  0.00  0.00    +0.026 A 
ATOM     16  C   UNL     1       8.480  -3.250  -4.949  0.00  0.00    +0.043 A 
ATOM     17  N   UNL     1       7.403  -3.596  -5.592  0.00  0.00    -0.375 N 
ATOM     18  C   UNL     1       6.248  -3.316  -4.739  0.00  0.00    +0.131 C 
ATOM     19  C   UNL     1       5.422  -4.574  -4.454  0.00  0.00    +0.133 C 
ATOM     20  H   UNL     1       7.372  -3.974  -6.484  0.00  0.00    +0.160 HD
ENDROOT
BRANCH  19  21
ATOM     21  C   UNL     1       6.337  -5.713  -4.086  0.00  0.00    -0.025 A 
ATOM     22  C   UNL     1       7.174  -5.597  -2.989  0.00  0.00    +0.006 A 
ATOM     23  C   UNL     1       8.014  -6.636  -2.646  0.00  0.00    +0.015 A 
ATOM     24  C   UNL     1       8.019  -7.807  -3.408  0.00  0.00    +0.059 A 
ATOM     25  C   UNL     1       7.172  -7.917  -4.513  0.00  0.00    +0.015 A 
ATOM     26  C   UNL     1       6.333  -6.872  -4.841  0.00  0.00    +0.006 A 
BRANCH  24  27
ATOM     27  C   UNL     1       8.916  -8.923  -3.047  0.00  0.00    +0.339 C 
ATOM     28  O   UNL     1       9.652  -8.825  -2.085  0.00  0.00    -0.245 OA
BRANCH  27  29
ATOM     29  O   UNL     1       8.918 -10.051  -3.784  0.00  0.00    -0.464 OA
ATOM     30  C   UNL     1       9.811 -11.090  -3.377  0.00  0.00    +0.280 C 
ENDBRANCH  27  29
ENDBRANCH  24  27
ENDBRANCH  19  21
BRANCH   1  31
ATOM     31  C   UNL     1       1.816  -3.482  -0.100  0.00  0.00    +0.106 C 
BRANCH  31  32
ATOM     32  C   UNL     1       1.452  -1.996  -0.082  0.00  0.00    +0.000 C 
BRANCH  32  33
ATOM     33  C   UNL     1       0.499  -1.718   1.084  0.00  0.00    -0.077 C 
BRANCH  33  34
ATOM     34  N   UNL     1       0.149  -0.292   1.101  0.00  0.00    +0.379 N 
ATOM     35  H   UNL     1       0.993   0.261   1.130  0.00  0.00    -0.082 HD
BRANCH  34  37
ATOM     36  C   UNL     1      -0.855   1.550  -0.163  0.00  0.00    -0.017 C 
ATOM     37  C   UNL     1      -0.612   0.041  -0.111  0.00  0.00    -0.082 C 
ENDBRANCH  34  37
BRANCH  34  38
ATOM     38  C   UNL     1      -0.667  -0.002   2.287  0.00  0.00    -0.082 C 
ATOM     39  C   UNL     1       0.173  -0.213   3.549  0.00  0.00    -0.017 C 
ENDBRANCH  34  38
ENDBRANCH  33  34
ENDBRANCH  32  33
ENDBRANCH  31  32
ENDBRANCH   1  31
TORSDOF 9
