REMARK  Name = ZINC49545111
REMARK  7 active torsions:
REMARK  status: ('A' for Active; 'I' for Inactive)
REMARK    1  A    between atoms: C_1  and  C_2
REMARK    2  A    between atoms: C_2  and  C_3
REMARK    3  A    between atoms: C_2  and  C_4
REMARK    4  A    between atoms: C_6  and  C_10
REMARK    5  A    between atoms: N_7  and  C_9
REMARK    6  A    between atoms: C_13  and  C_18
REMARK    7  A    between atoms: C_18  and  C_19
REMARK                            x       y       z     vdW  Elec       q    Type
REMARK                         _______ _______ _______ _____ _____    ______ ____
ROOT
ATOM      1  C   UNL     1       3.704  -1.445   3.165  0.00  0.00    +0.150 A 
ATOM      2  N   UNL     1       4.881  -1.333   2.602  0.00  0.00    -0.154 NA
ATOM      3  N   UNL     1       6.040  -1.676   3.286  0.00  0.00    -0.190 N 
ATOM      4  C   UNL     1       7.405  -1.714   3.092  0.00  0.00    +0.160 A 
ATOM      5  N   UNL     1       7.956  -2.159   4.187  0.00  0.00    -0.131 NA
ATOM      6  N   UNL     1       7.049  -2.408   5.067  0.00  0.00    -0.120 NA
ATOM      7  C   UNL     1       5.881  -2.133   4.572  0.00  0.00    +0.218 A 
ATOM      8  S   UNL     1       4.120  -2.063   4.788  0.00  0.00    -0.025 S 
ENDROOT
BRANCH   1  11
ATOM      9  C   UNL     1       0.731  -0.503   1.223  0.00  0.00    +0.066 A 
ATOM     10  C   UNL     1       2.112  -0.658   1.338  0.00  0.00    +0.055 A 
ATOM     11  C   UNL     1       2.375  -1.135   2.604  0.00  0.00    +0.096 A 
ATOM     12  N   UNL     1       1.175  -1.266   3.241  0.00  0.00    -0.264 N 
ATOM     13  N   UNL     1       0.173  -0.858   2.352  0.00  0.00    -0.176 NA
ATOM     14  C   UNL     1       0.973  -1.742   4.612  0.00  0.00    +0.173 C 
BRANCH   9  16
ATOM     15  C   UNL     1      -0.019   1.526   0.010  0.00  0.00    +0.014 C 
ATOM     16  C   UNL     1       0.002  -0.004   0.002  0.00  0.00    +0.033 C 
ATOM     17  C   UNL     1       0.718  -0.497  -1.257  0.00  0.00    +0.014 C 
ENDBRANCH   9  16
ENDBRANCH   1  11
BRANCH   4  18
ATOM     18  C   UNL     1       8.133  -1.313   1.835  0.00  0.00    +0.113 C 
BRANCH  18  19
ATOM     19  C   UNL     1       8.483   0.151   1.903  0.00  0.00    -0.040 A 
ATOM     20  C   UNL     1       7.595   1.095   1.421  0.00  0.00    +0.007 A 
ATOM     21  C   UNL     1       7.915   2.439   1.482  0.00  0.00    +0.038 A 
ATOM     22  C   UNL     1       9.123   2.838   2.027  0.00  0.00    +0.123 A 
ATOM     23  C   UNL     1      10.011   1.891   2.509  0.00  0.00    +0.038 A 
ATOM     24  C   UNL     1       9.688   0.549   2.451  0.00  0.00    +0.007 A 
ATOM     25  F   UNL     1       9.436   4.151   2.087  0.00  0.00    -0.205 F 
ENDBRANCH  18  19
ENDBRANCH   4  18
TORSDOF 4
