REMARK  Name = ZINC36375356
REMARK  8 active torsions:
REMARK  status: ('A' for Active; 'I' for Inactive)
REMARK    1  A    between atoms: C_1  and  C_2
REMARK    2  A    between atoms: C_3  and  O_16
REMARK    3  A    between atoms: C_5  and  C_9
REMARK    4  A    between atoms: C_9  and  C_15
REMARK    5  A    between atoms: C_10  and  C_11
REMARK    6  A    between atoms: C_11  and  C_13
REMARK    7  A    between atoms: C_11  and  O_14
REMARK    8  A    between atoms: O_16  and  C_17
REMARK                            x       y       z     vdW  Elec       q    Type
REMARK                         _______ _______ _______ _____ _____    ______ ____
ROOT
ATOM      1  C   UNL     1      -0.630   1.517   0.026  0.00  0.00    +0.055 C 
ATOM      2  C   UNL     1      -0.460   0.021   0.093  0.00  0.00    +0.075 A 
ATOM      3  C   UNL     1      -1.549  -0.798   0.349  0.00  0.00    +0.133 A 
ATOM      4  C   UNL     1      -1.352  -2.190   0.404  0.00  0.00    +0.092 A 
ATOM      5  C   UNL     1      -0.103  -2.703   0.207  0.00  0.00    +0.138 A 
ATOM      6  O   UNL     1       0.945  -1.895  -0.040  0.00  0.00    -0.422 OA
ATOM      7  C   UNL     1       0.796  -0.560  -0.107  0.00  0.00    +0.344 A 
ATOM      8  O   UNL     1       1.763   0.147  -0.339  0.00  0.00    -0.245 OA
ENDROOT
BRANCH   5   9
ATOM      9  C   UNL     1       0.100  -4.157   0.265  0.00  0.00    -0.009 C 
ATOM     10  C   UNL     1       1.314  -4.667   0.073  0.00  0.00    +0.010 C 
ATOM     11  C   UNL     1      -1.066  -5.071   0.541  0.00  0.00    +0.047 C 
BRANCH  10  12
ATOM     12  C   UNL     1       1.502  -6.161   0.004  0.00  0.00    +0.135 C 
ATOM     13  C   UNL     1       2.232  -6.524  -1.290  0.00  0.00    +0.042 C 
BRANCH  12  14
ATOM     14  O   UNL     1       2.274  -6.596   1.125  0.00  0.00    -0.388 OA
ATOM     15  H   UNL     1       3.155  -6.200   1.173  0.00  0.00    +0.210 HD
ENDBRANCH  12  14
ENDBRANCH  10  12
ENDBRANCH   5   9
BRANCH   3  16
ATOM     16  O   UNL     1      -2.780  -0.268   0.543  0.00  0.00    -0.494 OA
ATOM     17  C   UNL     1      -3.777  -0.568  -0.437  0.00  0.00    +0.277 C 
ENDBRANCH   3  16
TORSDOF 4
