REMARK  Name = ZINC22462433
REMARK  10 active torsions:
REMARK  status: ('A' for Active; 'I' for Inactive)
REMARK    1  A    between atoms: C_1  and  C_2
REMARK    2  A    between atoms: C_2  and  C_3
REMARK    3  A    between atoms: C_2  and  C_4
REMARK    4  A    between atoms: C_6  and  C_16
REMARK    5  A    between atoms: N_10  and  C_13
REMARK    6  A    between atoms: C_13  and  C_14
REMARK    7  A    between atoms: C_13  and  C_15
REMARK    8  A    between atoms: N_18  and  C_19
REMARK    9  A    between atoms: C_19  and  C_20
REMARK   10  A    between atoms: C_20  and  N_26
REMARK                            x       y       z     vdW  Elec       q    Type
REMARK                         _______ _______ _______ _____ _____    ______ ____
ROOT
ATOM      1  C   UNL     1       0.853   4.944   1.270  0.00  0.00    +0.245 C 
ATOM      2  O   UNL     1      -0.081   5.722   1.283  0.00  0.00    -0.270 OA
ATOM      3  N   UNL     1       0.625   3.616   1.265  0.00  0.00    -0.310 N 
ATOM      4  H   UNL     1       1.470   2.913   1.253  0.00  0.00    +0.149 HD
ENDROOT
BRANCH   1   7
ATOM      5  C   UNL     1       4.614   5.105   1.235  0.00  0.00    +0.047 A 
ATOM      6  C   UNL     1       3.328   4.586   1.250  0.00  0.00    +0.037 A 
ATOM      7  C   UNL     1       2.240   5.456   1.259  0.00  0.00    +0.051 A 
ATOM      8  C   UNL     1       2.506   6.844   1.264  0.00  0.00    +0.051 A 
ATOM      9  C   UNL     1       1.692   7.996   1.278  0.00  0.00    +0.145 A 
ATOM     10  N   UNL     1       2.460   9.048   1.276  0.00  0.00    -0.177 NA
ATOM     11  N   UNL     1       3.803   8.652   1.261  0.00  0.00    -0.244 N 
ATOM     12  C   UNL     1       3.845   7.282   1.254  0.00  0.00    +0.159 A 
ATOM     13  N   UNL     1       4.835   6.401   1.240  0.00  0.00    -0.232 NA
BRANCH   5  15
ATOM     14  C   UNL     1       6.120   3.735   2.651  0.00  0.00    +0.014 C 
ATOM     15  C   UNL     1       5.788   4.160   1.219  0.00  0.00    +0.032 C 
ATOM     16  C   UNL     1       5.435   2.924   0.389  0.00  0.00    +0.014 C 
ENDBRANCH   5  15
BRANCH  11  17
ATOM     17  C   UNL     1       4.963   9.548   1.255  0.00  0.00    +0.103 C 
ATOM     18  C   UNL     1       4.913  10.437   0.011  0.00  0.00    +0.032 C 
ATOM     19  C   UNL     1       4.938  10.424   2.509  0.00  0.00    +0.032 C 
ENDBRANCH  11  17
ENDBRANCH   1   7
BRANCH   3  20
ATOM     20  C   UNL     1      -0.750   3.109   1.275  0.00  0.00    +0.126 C 
BRANCH  20  21
ATOM     21  C   UNL     1      -0.729   1.579   1.267  0.00  0.00    +0.038 C 
ATOM     22  C   UNL     1      -0.013   1.086   0.008  0.00  0.00    +0.024 C 
ATOM     23  C   UNL     1      -0.753   1.593  -1.232  0.00  0.00    +0.002 C 
ATOM     24  C   UNL     1      -2.188   1.063  -1.221  0.00  0.00    +0.000 C 
ATOM     25  C   UNL     1      -2.904   1.556   0.038  0.00  0.00    +0.002 C 
ATOM     26  C   UNL     1      -2.164   1.050   1.278  0.00  0.00    +0.024 C 
BRANCH  21  27
ATOM     27  N   UNL     1      -0.018   1.093   2.457  0.00  0.00    -0.291 NA
ATOM     28  C   UNL     1       0.097  -0.373   2.439  0.00  0.00    +0.113 C 
ATOM     29  C   UNL     1       0.894  -0.832   3.663  0.00  0.00    +0.175 C 
ATOM     30  O   UNL     1       0.253  -0.353   4.849  0.00  0.00    -0.377 OA
ATOM     31  C   UNL     1       0.125   1.070   4.900  0.00  0.00    +0.175 C 
ATOM     32  C   UNL     1      -0.680   1.548   3.688  0.00  0.00    +0.113 C 
ENDBRANCH  21  27
ENDBRANCH  20  21
ENDBRANCH   3  20
TORSDOF 6
