REMARK  Name = ZINC11854589
REMARK  5 active torsions:
REMARK  status: ('A' for Active; 'I' for Inactive)
REMARK    1  A    between atoms: C_1  and  C_2
REMARK    2  A    between atoms: C_2  and  C_3
REMARK    3  A    between atoms: C_12  and  N_21
REMARK    4  A    between atoms: C_14  and  C_16
REMARK    5  A    between atoms: C_22  and  C_24
REMARK                            x       y       z     vdW  Elec       q    Type
REMARK                         _______ _______ _______ _____ _____    ______ ____
ROOT
ATOM      1  C   UNL     1       6.167   8.178  -0.017  0.00  0.00    +0.050 A 
ATOM      2  C   UNL     1       7.203   9.065  -0.023  0.00  0.00    +0.093 A 
ATOM      3  C   UNL     1       6.918  10.443  -0.013  0.00  0.00    +0.253 A 
ATOM      4  O   UNL     1       7.819  11.265  -0.019  0.00  0.00    -0.268 OA
ATOM      5  N   UNL     1       5.626  10.837  -0.004  0.00  0.00    -0.291 N 
ATOM      6  H   UNL     1       5.406  11.781  -0.001  0.00  0.00    +0.172 HD
ATOM      7  C   UNL     1       4.636   9.905   0.007  0.00  0.00    +0.234 A 
ATOM      8  N   UNL     1       4.911   8.619  -0.002  0.00  0.00    -0.217 NA
ATOM      9  N   UNL     1       3.318  10.317   0.022  0.00  0.00    -0.185 N 
ATOM     10  C   UNL     1       2.221   9.502   0.028  0.00  0.00    +0.132 A 
ATOM     11  C   UNL     1       1.119  10.293   0.037  0.00  0.00    +0.074 A 
ATOM     12  C   UNL     1       1.552  11.636   0.045  0.00  0.00    +0.102 A 
ATOM     13  N   UNL     1       2.870  11.644   0.033  0.00  0.00    -0.162 NA
ENDROOT
BRANCH  12  14
ATOM     14  C   UNL     1       0.678  12.828   0.059  0.00  0.00    +0.039 A 
ATOM     15  C   UNL     1       1.026  14.153   0.061  0.00  0.00    +0.018 A 
ATOM     16  C   UNL     1       0.026  15.100   0.074  0.00  0.00    +0.008 A 
ATOM     17  C   UNL     1      -1.270  14.694   0.084  0.00  0.00    +0.046 A 
ATOM     18  S   UNL     1      -1.105  12.916   0.067  0.00  0.00    -0.095 S 
ENDBRANCH  12  14
BRANCH  10  19
ATOM     19  N   UNL     1       2.233   8.110   0.021  0.00  0.00    -0.266 N 
ATOM     20  C   UNL     1       1.072   7.426   0.029  0.00  0.00    +0.249 C 
ATOM     21  O   UNL     1       0.014   8.025   0.043  0.00  0.00    -0.270 OA
ATOM     22  H   UNL     1       3.077   7.631   0.011  0.00  0.00    +0.157 HD
BRANCH  20  23
ATOM     23  C   UNL     1       1.084   5.949   0.021  0.00  0.00    +0.038 A 
ATOM     24  C   UNL     1       2.311   5.261   0.006  0.00  0.00    +0.013 A 
ATOM     25  C   UNL     1       2.348   3.904  -0.000  0.00  0.00    +0.009 A 
ATOM     26  C   UNL     1       1.150   3.167   0.008  0.00  0.00    -0.018 A 
ATOM     27  C   UNL     1       1.163   1.762   0.000  0.00  0.00    +0.008 A 
ATOM     28  C   UNL     1      -0.013   1.076   0.008  0.00  0.00    +0.001 A 
ATOM     29  C   UNL     1      -1.235   1.745   0.017  0.00  0.00    +0.001 A 
ATOM     30  C   UNL     1      -1.288   3.105   0.030  0.00  0.00    +0.008 A 
ATOM     31  C   UNL     1      -0.094   3.849   0.023  0.00  0.00    -0.017 A 
ATOM     32  C   UNL     1      -0.113   5.251   0.030  0.00  0.00    +0.021 A 
ENDBRANCH  20  23
ENDBRANCH  10  19
BRANCH   1  34
ATOM     33  C   UNL     1       6.429   6.165   1.407  0.00  0.00    +0.010 C 
ATOM     34  C   UNL     1       6.445   6.696  -0.027  0.00  0.00    +0.052 C 
ENDBRANCH   1  34
TORSDOF 4
