REMARK  Name = ZINC08670672
REMARK  11 active torsions:
REMARK  status: ('A' for Active; 'I' for Inactive)
REMARK    1  A    between atoms: C_1  and  C_2
REMARK    2  A    between atoms: C_2  and  C_3
REMARK    3  A    between atoms: C_3  and  C_4
REMARK    4  A    between atoms: C_4  and  N_5
REMARK    5  A    between atoms: N_5  and  S_6
REMARK    6  A    between atoms: S_6  and  C_9
REMARK    7  A    between atoms: C_16  and  S_19
REMARK    8  A    between atoms: S_19  and  C_20
REMARK    9  A    between atoms: C_20  and  C_21
REMARK   10  A    between atoms: C_25  and  C_32
REMARK   11  A    between atoms: C_28  and  C_31
REMARK                            x       y       z     vdW  Elec       q    Type
REMARK                         _______ _______ _______ _____ _____    ______ ____
ROOT
ATOM      1  C   UNL     1       2.068  -5.084   1.601  0.00  0.00    +0.107 A 
ATOM      2  C   UNL     1       1.292  -5.528   0.540  0.00  0.00    +0.030 A 
ATOM      3  C   UNL     1       1.852  -6.290  -0.465  0.00  0.00    +0.030 A 
ATOM      4  C   UNL     1       3.199  -6.614  -0.416  0.00  0.00    +0.067 A 
ATOM      5  C   UNL     1       3.990  -6.167   0.655  0.00  0.00    +0.092 A 
ATOM      6  C   UNL     1       3.409  -5.393   1.662  0.00  0.00    +0.058 A 
ATOM      7  N   UNL     1       5.250  -6.628   0.442  0.00  0.00    -0.222 NA
ATOM      8  C   UNL     1       5.284  -7.318  -0.672  0.00  0.00    +0.168 A 
ATOM      9  N   UNL     1       4.042  -7.340  -1.242  0.00  0.00    -0.333 N 
ATOM     10  H   UNL     1       3.797  -7.782  -2.069  0.00  0.00    +0.168 HD
ENDROOT
BRANCH   1  11
ATOM     11  S   UNL     1       1.335  -4.113   2.875  0.00  0.00    +0.058 S 
ATOM     12  O   UNL     1       2.148  -4.276   4.029  0.00  0.00    -0.153 OA
ATOM     13  O   UNL     1      -0.052  -4.418   2.871  0.00  0.00    -0.153 OA
BRANCH  11  14
ATOM     14  N   UNL     1       1.471  -2.526   2.420  0.00  0.00    -0.190 NA
ATOM     15  H   UNL     1       2.020  -1.918   2.940  0.00  0.00    +0.148 HD
BRANCH  14  16
ATOM     16  C   UNL     1       0.763  -2.041   1.233  0.00  0.00    +0.106 C 
BRANCH  16  17
ATOM     17  C   UNL     1       0.742  -0.511   1.242  0.00  0.00    +0.017 C 
BRANCH  17  19
ATOM     18  C   UNL     1      -0.019   1.526   0.010  0.00  0.00    +0.004 C 
ATOM     19  C   UNL     1       0.002  -0.004   0.002  0.00  0.00    -0.002 C 
ENDBRANCH  17  19
ENDBRANCH  16  17
ENDBRANCH  14  16
ENDBRANCH  11  14
ENDBRANCH   1  11
BRANCH   8  20
ATOM     20  S   UNL     1       6.717  -8.100  -1.336  0.00  0.00    -0.079 S 
BRANCH  20  21
ATOM     21  C   UNL     1       8.023  -7.712  -0.139  0.00  0.00    +0.173 C 
BRANCH  21  22
ATOM     22  C   UNL     1       9.320  -8.329  -0.592  0.00  0.00    +0.226 C 
ATOM     23  O   UNL     1       9.360  -8.969  -1.622  0.00  0.00    -0.275 OA
ATOM     24  N   UNL     1      10.437  -8.171   0.146  0.00  0.00    -0.296 N 
ATOM     25  C   UNL     1      10.412  -7.405   1.402  0.00  0.00    +0.139 C 
ATOM     26  C   UNL     1      11.063  -8.254   2.499  0.00  0.00    +0.133 C 
ATOM     27  O   UNL     1      12.347  -8.698   2.052  0.00  0.00    -0.371 OA
ATOM     28  C   UNL     1      12.304  -9.544   0.900  0.00  0.00    +0.133 C 
ATOM     29  C   UNL     1      11.715  -8.765  -0.277  0.00  0.00    +0.139 C 
ATOM     30  C   UNL     1      13.721 -10.006   0.552  0.00  0.00    +0.039 C 
ATOM     31  C   UNL     1      10.179  -9.466   2.801  0.00  0.00    +0.039 C 
ENDBRANCH  21  22
ENDBRANCH  20  21
ENDBRANCH   8  20
TORSDOF 8
