REMARK  Name = ZINC24171777
REMARK  9 active torsions:
REMARK  status: ('A' for Active; 'I' for Inactive)
REMARK    1  A    between atoms: C_1  and  C_2
REMARK    2  A    between atoms: C_7  and  C_8
REMARK    3  A    between atoms: C_8  and  C_9
REMARK    4  A    between atoms: C_9  and  N_10
REMARK    5  A    between atoms: C_11  and  C_13
REMARK    6  A    between atoms: C_13  and  S_14
REMARK    7  A    between atoms: S_14  and  C_15
REMARK    8  A    between atoms: C_18  and  S_21
REMARK    9  A    between atoms: S_21  and  N_24
REMARK                            x       y       z     vdW  Elec       q    Type
REMARK                         _______ _______ _______ _____ _____    ______ ____
ROOT
ATOM      1  C   UNL     1      -1.808   2.933   3.919  0.00  0.00    +0.097 A 
ATOM      2  C   UNL     1      -0.429   2.763   3.848  0.00  0.00    +0.037 A 
ATOM      3  C   UNL     1       0.140   2.368   2.651  0.00  0.00    +0.032 A 
ATOM      4  C   UNL     1      -0.694   2.155   1.560  0.00  0.00    +0.124 A 
ATOM      5  C   UNL     1      -2.053   2.348   1.699  0.00  0.00    +0.140 A 
ATOM      6  N   UNL     1      -2.569   2.719   2.856  0.00  0.00    -0.247 NA
ENDROOT
BRANCH   4   7
ATOM      7  S   UNL     1      -0.020   1.652   0.011  0.00  0.00    +0.062 S 
ATOM      8  O   UNL     1       1.336   2.076   0.001  0.00  0.00    -0.153 OA
ATOM      9  O   UNL     1      -0.952   2.051  -0.985  0.00  0.00    -0.153 OA
BRANCH   7  10
ATOM     10  N   UNL     1       0.002  -0.004   0.002  0.00  0.00    -0.177 NA
ATOM     11  C   UNL     1       1.179  -0.684   0.495  0.00  0.00    +0.109 C 
ATOM     12  C   UNL     1       2.184  -0.897  -0.656  0.00  0.00    +0.017 C 
ATOM     13  C   UNL     1       1.684  -1.920  -1.587  0.00  0.00    +0.001 C 
ATOM     14  C   UNL     1       0.379  -1.550  -2.286  0.00  0.00    +0.001 C 
ATOM     15  C   UNL     1      -0.785  -1.921  -1.401  0.00  0.00    +0.017 C 
ATOM     16  C   UNL     1      -1.178  -0.725  -0.515  0.00  0.00    +0.109 C 
ENDBRANCH   7  10
ENDBRANCH   4   7
BRANCH   1  17
ATOM     17  S   UNL     1      -2.550   3.435   5.436  0.00  0.00    -0.097 S 
BRANCH  17  18
ATOM     18  C   UNL     1      -4.321   3.522   5.052  0.00  0.00    +0.171 C 
BRANCH  18  20
ATOM     19  N   UNL     1      -6.421   4.079   6.233  0.00  0.00    -0.314 N 
ATOM     20  C   UNL     1      -5.081   3.946   6.282  0.00  0.00    +0.223 C 
ATOM     21  O   UNL     1      -4.487   4.169   7.316  0.00  0.00    -0.275 OA
ATOM     22  H   UNL     1      -6.960   3.877   5.295  0.00  0.00    +0.149 HD
BRANCH  19  23
ATOM     23  C   UNL     1      -7.161   4.492   7.428  0.00  0.00    +0.109 C 
BRANCH  23  24
ATOM     24  C   UNL     1      -8.654   4.564   7.104  0.00  0.00    +0.054 C 
BRANCH  24  31
ATOM     25  C   UNL     1      -8.936   7.371   7.731  0.00  0.00    +0.044 C 
ATOM     26  C   UNL     1      -9.550   6.332   8.634  0.00  0.00    -0.047 A 
ATOM     27  C   UNL     1     -10.248   6.721   9.762  0.00  0.00    +0.003 A 
ATOM     28  C   UNL     1     -10.811   5.769  10.590  0.00  0.00    +0.000 A 
ATOM     29  C   UNL     1     -10.676   4.426  10.290  0.00  0.00    +0.000 A 
ATOM     30  C   UNL     1      -9.982   4.036   9.160  0.00  0.00    +0.004 A 
ATOM     31  C   UNL     1      -9.415   4.989   8.334  0.00  0.00    -0.043 A 
ENDBRANCH  24  31
ENDBRANCH  23  24
ENDBRANCH  19  23
ENDBRANCH  18  20
ENDBRANCH  17  18
ENDBRANCH   1  17
TORSDOF 8
