REMARK  Name = ZINC36288138
REMARK  5 active torsions:
REMARK  status: ('A' for Active; 'I' for Inactive)
REMARK    1  A    between atoms: C_1  and  C_2
REMARK    2  A    between atoms: C_2  and  C_3
REMARK    3  A    between atoms: C_3  and  C_4
REMARK    4  A    between atoms: C_4  and  N_5
REMARK    5  A    between atoms: N_8  and  C_9
REMARK                            x       y       z     vdW  Elec       q    Type
REMARK                         _______ _______ _______ _____ _____    ______ ____
ROOT
ATOM      1  C   UNL     1       2.422  -5.737   3.939  0.00  0.00    +0.075 C 
ATOM      2  C   UNL     1       3.660  -6.244   3.191  0.00  0.00    +0.022 C 
ATOM      3  C   UNL     1       3.734  -7.760   3.367  0.00  0.00    +0.004 C 
ATOM      4  C   UNL     1       3.817  -8.149   4.821  0.00  0.00    -0.027 C 
ATOM      5  C   UNL     1       5.116  -7.674   5.497  0.00  0.00    -0.079 C 
ATOM      6  N   UNL     1       4.809  -7.734   6.946  0.00  0.00    +0.379 N 
ATOM      7  C   UNL     1       3.346  -7.651   7.121  0.00  0.00    -0.079 C 
ATOM      8  C   UNL     1       2.740  -7.496   5.706  0.00  0.00    -0.025 C 
ATOM      9  C   UNL     1       2.614  -6.008   5.429  0.00  0.00    +0.024 C 
ATOM     10  H   UNL     1       5.149  -8.604   7.330  0.00  0.00    -0.086 HD
ATOM     11  H   UNL     1       5.252  -6.960   7.419  0.00  0.00    -0.086 HD
ENDROOT
BRANCH   1  15
ATOM     12  N   UNL     1       1.471  -2.526   2.420  0.00  0.00    -0.299 N 
ATOM     13  C   UNL     1       1.615  -3.850   2.625  0.00  0.00    +0.300 C 
ATOM     14  O   UNL     1       1.156  -4.643   1.825  0.00  0.00    -0.253 OA
ATOM     15  N   UNL     1       2.266  -4.297   3.717  0.00  0.00    -0.297 N 
ATOM     16  H   UNL     1       1.837  -1.894   3.058  0.00  0.00    +0.150 HD
ATOM     17  H   UNL     1       2.632  -3.665   4.355  0.00  0.00    +0.151 HD
BRANCH  12  18
ATOM     18  C   UNL     1       0.763  -2.041   1.233  0.00  0.00    +0.106 C 
BRANCH  18  19
ATOM     19  C   UNL     1       0.742  -0.511   1.242  0.00  0.00    +0.018 C 
BRANCH  19  21
ATOM     20  C   UNL     1      -0.019   1.526   0.010  0.00  0.00    +0.004 C 
ATOM     21  C   UNL     1       0.002  -0.004   0.002  0.00  0.00    -0.002 C 
ENDBRANCH  19  21
ENDBRANCH  18  19
ENDBRANCH  12  18
ENDBRANCH   1  15
TORSDOF 4
