REMARK  Name = ZINC22433389
REMARK  7 active torsions:
REMARK  status: ('A' for Active; 'I' for Inactive)
REMARK    1  A    between atoms: C_1  and  C_2
REMARK    2  A    between atoms: C_2  and  C_3
REMARK    3  A    between atoms: C_2  and  C_4
REMARK    4  A    between atoms: C_2  and  O_18
REMARK    5  A    between atoms: N_6  and  C_7
REMARK    6  A    between atoms: C_8  and  C_15
REMARK    7  A    between atoms: O_18  and  C_19
REMARK                            x       y       z     vdW  Elec       q    Type
REMARK                         _______ _______ _______ _____ _____    ______ ____
ROOT
ATOM      1  C   UNL     1      -0.136   1.230   0.343  0.00  0.00    +0.261 C 
ATOM      2  O   UNL     1       0.969   1.724   0.411  0.00  0.00    -0.271 OA
ATOM      3  N   UNL     1      -0.299  -0.090   0.564  0.00  0.00    -0.276 N 
ATOM      4  H   UNL     1      -1.302  -0.538   0.502  0.00  0.00    +0.155 HD
ENDROOT
BRANCH   3   5
ATOM      5  C   UNL     1       0.797  -0.882   0.870  0.00  0.00    +0.085 A 
ATOM      6  C   UNL     1       0.830  -2.240   1.133  0.00  0.00    +0.068 A 
ATOM      7  C   UNL     1       2.131  -2.842   1.428  0.00  0.00    -0.023 A 
ATOM      8  C   UNL     1       3.170  -1.988   1.419  0.00  0.00    -0.004 A 
ATOM      9  S   UNL     1       2.455  -0.410   1.024  0.00  0.00    -0.077 S 
ATOM     10  C   UNL     1       4.470  -2.678   1.733  0.00  0.00    +0.043 C 
ATOM     11  C   UNL     1       4.175  -4.179   1.519  0.00  0.00    +0.010 C 
ATOM     12  C   UNL     1       2.654  -4.239   1.765  0.00  0.00    +0.037 C 
BRANCH   6  13
ATOM     13  C   UNL     1      -0.393  -3.048   1.113  0.00  0.00    +0.244 C 
ATOM     14  O   UNL     1      -0.755  -3.579   0.079  0.00  0.00    -0.270 OA
ATOM     15  N   UNL     1      -1.117  -3.203   2.239  0.00  0.00    -0.325 N 
ATOM     16  H   UNL     1      -2.035  -3.809   2.224  0.00  0.00    +0.145 HD
ATOM     17  H   UNL     1      -0.790  -2.724   3.173  0.00  0.00    +0.145 HD
ENDBRANCH   6  13
ENDBRANCH   3   5
BRANCH   1  19
ATOM     18  C   UNL     1      -1.977   1.576  -1.283  0.00  0.00    +0.065 C 
ATOM     19  C   UNL     1      -1.327   2.089   0.004  0.00  0.00    +0.180 C 
ATOM     20  C   UNL     1      -2.342   2.029   1.147  0.00  0.00    +0.065 C 
BRANCH  19  21
ATOM     21  O   UNL     1      -0.901   3.440  -0.184  0.00  0.00    -0.477 OA
BRANCH  21  22
ATOM     22  C   UNL     1      -0.004   3.672  -1.179  0.00  0.00    +0.122 A 
ATOM     23  C   UNL     1       0.543   2.609  -1.882  0.00  0.00    +0.046 A 
ATOM     24  C   UNL     1       1.450   2.848  -2.897  0.00  0.00    +0.004 A 
ATOM     25  C   UNL     1       1.820   4.144  -3.204  0.00  0.00    +0.000 A 
ATOM     26  C   UNL     1       1.280   5.205  -2.501  0.00  0.00    +0.004 A 
ATOM     27  C   UNL     1       0.369   4.972  -1.489  0.00  0.00    +0.046 A 
ENDBRANCH  21  22
ENDBRANCH  19  21
ENDBRANCH   1  19
TORSDOF 5
