REMARK  Name = ZINC21082143
REMARK  11 active torsions:
REMARK  status: ('A' for Active; 'I' for Inactive)
REMARK    1  A    between atoms: C_1  and  C_2
REMARK    2  A    between atoms: C_2  and  C_25
REMARK    3  A    between atoms: N_3  and  N_4
REMARK    4  A    between atoms: C_7  and  S_10
REMARK    5  A    between atoms: S_10  and  C_11
REMARK    6  A    between atoms: C_11  and  C_12
REMARK    7  A    between atoms: C_18  and  S_20
REMARK    8  A    between atoms: S_20  and  C_21
REMARK    9  A    between atoms: C_21  and  C_22
REMARK   10  A    between atoms: C_22  and  O_23
REMARK   11  A    between atoms: O_23  and  C_24
REMARK                            x       y       z     vdW  Elec       q    Type
REMARK                         _______ _______ _______ _____ _____    ______ ____
ROOT
ATOM      1  N   UNL     1      -1.300 -10.461  -0.041  0.00  0.00    -0.205 N 
ATOM      2  C   UNL     1      -0.786  -9.172  -0.038  0.00  0.00    +0.232 A 
ATOM      3  N   UNL     1      -1.515  -8.016  -0.025  0.00  0.00    -0.186 NA
ATOM      4  C   UNL     1      -0.641  -6.966  -0.028  0.00  0.00    +0.211 A 
ATOM      5  N   UNL     1       0.577  -7.452  -0.048  0.00  0.00    -0.144 NA
ATOM      6  N   UNL     1       0.485  -8.850  -0.048  0.00  0.00    -0.245 N 
ATOM      7  H   UNL     1      -2.389 -10.618  -0.032  0.00  0.00    +0.177 HD
ATOM      8  H   UNL     1       1.252  -9.638  -0.055  0.00  0.00    +0.192 HD
ENDROOT
BRANCH   1  11
ATOM      9  C   UNL     1      -2.407 -12.983  -0.045  0.00  0.00    +0.068 C 
ATOM     10  C   UNL     1      -0.915 -12.768  -0.057  0.00  0.00    +0.063 C 
ATOM     11  N   UNL     1      -0.434 -11.561  -0.054  0.00  0.00    -0.184 NA
BRANCH  10  12
ATOM     12  C   UNL     1      -0.004 -13.925  -0.071  0.00  0.00    -0.002 A 
ATOM     13  C   UNL     1      -0.531 -15.230  -0.073  0.00  0.00    +0.010 A 
ATOM     14  C   UNL     1       0.288 -16.312  -0.086  0.00  0.00    +0.009 A 
ATOM     15  C   UNL     1       1.685 -16.137  -0.098  0.00  0.00    -0.018 A 
ATOM     16  C   UNL     1       2.552 -17.242  -0.112  0.00  0.00    +0.008 A 
ATOM     17  C   UNL     1       3.899 -17.043  -0.123  0.00  0.00    +0.001 A 
ATOM     18  C   UNL     1       4.434 -15.756  -0.121  0.00  0.00    +0.001 A 
ATOM     19  C   UNL     1       3.626 -14.662  -0.108  0.00  0.00    +0.008 A 
ATOM     20  C   UNL     1       2.229 -14.828  -0.095  0.00  0.00    -0.017 A 
ATOM     21  C   UNL     1       1.367 -13.721  -0.087  0.00  0.00    +0.018 A 
ENDBRANCH  10  12
ENDBRANCH   1  11
BRANCH   4  22
ATOM     22  S   UNL     1      -1.074  -5.258  -0.015  0.00  0.00    -0.075 S 
BRANCH  22  23
ATOM     23  C   UNL     1       0.524  -4.400  -0.026  0.00  0.00    +0.173 C 
BRANCH  23  24
ATOM     24  C   UNL     1       0.294  -2.910  -0.016  0.00  0.00    +0.229 C 
ATOM     25  O   UNL     1      -0.836  -2.471  -0.003  0.00  0.00    -0.275 OA
ATOM     26  N   UNL     1       1.345  -2.067  -0.021  0.00  0.00    -0.263 N 
ATOM     27  C   UNL     1       1.133  -0.690  -0.013  0.00  0.00    +0.189 A 
ATOM     28  N   UNL     1       0.002  -0.004   0.002  0.00  0.00    -0.125 NA
ATOM     29  N   UNL     1      -0.015   1.257   0.009  0.00  0.00    -0.133 NA
ATOM     30  C   UNL     1       1.100   1.973   0.002  0.00  0.00    +0.160 A 
ATOM     31  S   UNL     1       2.314   0.656  -0.017  0.00  0.00    -0.024 S 
ATOM     32  H   UNL     1       2.370  -2.465  -0.033  0.00  0.00    +0.157 HD
BRANCH  30  33
ATOM     33  S   UNL     1       1.324   3.720   0.009  0.00  0.00    -0.095 S 
BRANCH  33  34
ATOM     34  C   UNL     1      -0.365   4.380   0.028  0.00  0.00    +0.104 C 
BRANCH  34  35
ATOM     35  C   UNL     1      -0.316   5.909   0.035  0.00  0.00    +0.170 C 
BRANCH  35  36
ATOM     36  O   UNL     1      -1.647   6.428   0.051  0.00  0.00    -0.382 OA
ATOM     37  C   UNL     1      -1.714   7.856   0.058  0.00  0.00    +0.194 C 
ENDBRANCH  35  36
ENDBRANCH  34  35
ENDBRANCH  33  34
ENDBRANCH  30  33
ENDBRANCH  23  24
ENDBRANCH  22  23
ENDBRANCH   4  22
TORSDOF 9
