REMARK  Name = ZINC35577766
REMARK  6 active torsions:
REMARK  status: ('A' for Active; 'I' for Inactive)
REMARK    1  A    between atoms: C_5  and  C_7
REMARK    2  A    between atoms: C_9  and  N_37
REMARK    3  A    between atoms: N_10  and  C_30
REMARK    4  A    between atoms: N_19  and  C_22
REMARK    5  A    between atoms: C_22  and  C_23
REMARK    6  A    between atoms: C_23  and  N_24
REMARK                            x       y       z     vdW  Elec       q    Type
REMARK                         _______ _______ _______ _____ _____    ______ ____
ROOT
ATOM      1  C   UNL     1       1.213  -2.166  -0.278  0.00  0.00    +0.091 A 
ATOM      2  C   UNL     1       0.038  -2.912  -0.029  0.00  0.00    +0.086 A 
ATOM      3  C   UNL     1      -1.297  -2.614   0.212  0.00  0.00    +0.131 A 
ATOM      4  N   UNL     1      -1.950  -3.781   0.379  0.00  0.00    -0.216 N 
ATOM      5  N   UNL     1      -1.054  -4.849   0.250  0.00  0.00    -0.144 NA
ATOM      6  C   UNL     1       0.150  -4.381   0.006  0.00  0.00    +0.189 A 
ATOM      7  N   UNL     1       1.364  -4.925  -0.203  0.00  0.00    -0.193 NA
ATOM      8  C   UNL     1       2.409  -4.154  -0.429  0.00  0.00    +0.220 A 
ATOM      9  N   UNL     1       2.347  -2.827  -0.472  0.00  0.00    -0.213 NA
ATOM     10  N   UNL     1       3.635  -4.759  -0.637  0.00  0.00    -0.297 N 
ATOM     11  C   UNL     1       4.840  -3.955  -0.888  0.00  0.00    +0.123 C 
ATOM     12  C   UNL     1       5.941  -4.413   0.074  0.00  0.00    +0.103 C 
ATOM     13  N   UNL     1       6.125  -5.865  -0.053  0.00  0.00    -0.301 NA
ATOM     14  C   UNL     1       4.911  -6.593   0.339  0.00  0.00    +0.103 C 
ATOM     15  C   UNL     1       3.769  -6.224  -0.607  0.00  0.00    +0.123 C 
ENDROOT
BRANCH   1  20
ATOM     16  C   UNL     1       0.681   1.417   0.718  0.00  0.00    +0.001 A 
ATOM     17  C   UNL     1       1.110   2.081  -0.418  0.00  0.00    +0.003 A 
ATOM     18  C   UNL     1       1.572   1.369  -1.509  0.00  0.00    +0.039 A 
ATOM     19  C   UNL     1       1.609  -0.013  -1.472  0.00  0.00    +0.133 A 
ATOM     20  C   UNL     1       1.177  -0.688  -0.327  0.00  0.00    +0.036 A 
ATOM     21  C   UNL     1       0.712   0.039   0.770  0.00  0.00    +0.013 A 
ATOM     22  F   UNL     1       2.060  -0.708  -2.538  0.00  0.00    -0.205 F 
ENDBRANCH   1  20
BRANCH   4  23
ATOM     23  C   UNL     1      -3.319  -3.906   0.642  0.00  0.00    +0.070 A 
ATOM     24  C   UNL     1      -3.967  -2.960   1.426  0.00  0.00    +0.028 A 
ATOM     25  C   UNL     1      -5.317  -3.086   1.685  0.00  0.00    +0.005 A 
ATOM     26  C   UNL     1      -6.027  -4.152   1.164  0.00  0.00    +0.038 A 
ATOM     27  C   UNL     1      -5.385  -5.098   0.382  0.00  0.00    +0.125 A 
ATOM     28  C   UNL     1      -4.033  -4.974   0.115  0.00  0.00    +0.066 A 
ATOM     29  F   UNL     1      -6.081  -6.139  -0.125  0.00  0.00    -0.205 F 
ENDBRANCH   4  23
BRANCH   3  30
ATOM     30  N   UNL     1      -1.855  -1.350   0.270  0.00  0.00    -0.342 N 
ATOM     31  H   UNL     1      -1.296  -0.567   0.148  0.00  0.00    +0.144 HD
ATOM     32  H   UNL     1      -2.806  -1.247   0.433  0.00  0.00    +0.144 HD
ENDBRANCH   3  30
BRANCH  13  33
ATOM     33  C   UNL     1       7.286  -6.319   0.725  0.00  0.00    +0.066 C 
BRANCH  33  34
ATOM     34  C   UNL     1       7.596  -7.776   0.374  0.00  0.00    -0.063 C 
BRANCH  34  35
ATOM     35  N   UNL     1       8.757  -8.230   1.153  0.00  0.00    +0.381 N 
ATOM     36  C   UNL     1       9.943  -7.464   0.751  0.00  0.00    -0.079 C 
ATOM     37  C   UNL     1      11.137  -7.876   1.615  0.00  0.00    -0.019 C 
ATOM     38  C   UNL     1      11.405  -9.371   1.425  0.00  0.00    -0.004 C 
ATOM     39  C   UNL     1      10.137 -10.156   1.776  0.00  0.00    -0.019 C 
ATOM     40  C   UNL     1       8.980  -9.659   0.906  0.00  0.00    -0.079 C 
ATOM     41  H   UNL     1       8.580  -8.082   2.135  0.00  0.00    -0.082 HD
ENDBRANCH  34  35
ENDBRANCH  33  34
ENDBRANCH  13  33
TORSDOF 6
