REMARK  Name = ZINC58848621
REMARK  11 active torsions:
REMARK  status: ('A' for Active; 'I' for Inactive)
REMARK    1  A    between atoms: C_1  and  C_2
REMARK    2  A    between atoms: C_2  and  O_3
REMARK    3  A    between atoms: O_3  and  C_4
REMARK    4  A    between atoms: C_7  and  N_10
REMARK    5  A    between atoms: N_10  and  S_11
REMARK    6  A    between atoms: S_11  and  C_14
REMARK    7  A    between atoms: C_27  and  C_30
REMARK    8  A    between atoms: C_33  and  O_38
REMARK    9  A    between atoms: C_35  and  O_36
REMARK   10  A    between atoms: O_36  and  C_37
REMARK   11  A    between atoms: O_38  and  C_39
REMARK                            x       y       z     vdW  Elec       q    Type
REMARK                         _______ _______ _______ _____ _____    ______ ____
ROOT
ATOM      1  C   UNL     1       2.503  -6.592  -4.110  0.00  0.00    +0.109 A 
ATOM      2  C   UNL     1       2.174  -5.356  -4.636  0.00  0.00    +0.030 A 
ATOM      3  C   UNL     1       3.046  -4.724  -5.498  0.00  0.00    +0.025 A 
ATOM      4  C   UNL     1       4.254  -5.326  -5.835  0.00  0.00    +0.031 A 
ATOM      5  C   UNL     1       4.591  -6.559  -5.298  0.00  0.00    -0.018 A 
ATOM      6  C   UNL     1       3.705  -7.187  -4.435  0.00  0.00    +0.034 A 
ATOM      7  C   UNL     1       5.894  -7.218  -5.605  0.00  0.00    +0.049 C 
ATOM      8  C   UNL     1       5.740  -8.350  -6.588  0.00  0.00    -0.023 C 
ATOM      9  C   UNL     1       6.777  -8.399  -7.387  0.00  0.00    -0.030 C 
ATOM     10  C   UNL     1       7.767  -7.305  -7.055  0.00  0.00    +0.033 C 
ATOM     11  C   UNL     1       6.939  -6.295  -6.227  0.00  0.00    +0.029 C 
ATOM     12  C   UNL     1       6.359  -5.268  -7.177  0.00  0.00    +0.108 C 
ATOM     13  N   UNL     1       5.114  -4.686  -6.719  0.00  0.00    -0.336 N 
ATOM     14  H   UNL     1       4.857  -3.817  -7.064  0.00  0.00    +0.147 HD
ENDROOT
BRANCH  12  15
ATOM     15  C   UNL     1       6.149  -5.922  -8.519  0.00  0.00    +0.015 A 
ATOM     16  C   UNL     1       7.114  -5.806  -9.502  0.00  0.00    +0.012 A 
ATOM     17  C   UNL     1       6.925  -6.404 -10.732  0.00  0.00    +0.046 A 
ATOM     18  C   UNL     1       5.765  -7.123 -10.985  0.00  0.00    +0.124 A 
ATOM     19  C   UNL     1       4.795  -7.240 -10.001  0.00  0.00    +0.091 A 
ATOM     20  C   UNL     1       4.990  -6.644  -8.765  0.00  0.00    +0.128 A 
BRANCH  20  21
ATOM     21  O   UNL     1       4.044  -6.762  -7.796  0.00  0.00    -0.495 OA
ATOM     22  C   UNL     1       2.876  -7.520  -8.119  0.00  0.00    +0.277 C 
ENDBRANCH  20  21
BRANCH  18  23
ATOM     23  O   UNL     1       5.579  -7.710 -12.196  0.00  0.00    -0.495 OA
ATOM     24  C   UNL     1       6.619  -7.548 -13.163  0.00  0.00    +0.277 C 
ENDBRANCH  18  23
ENDBRANCH  12  15
BRANCH   1  25
ATOM     25  S   UNL     1       1.387  -7.407  -3.016  0.00  0.00    +0.072 S 
ATOM     26  O   UNL     1       1.765  -8.776  -2.995  0.00  0.00    -0.150 OA
ATOM     27  O   UNL     1       0.080  -6.982  -3.378  0.00  0.00    -0.150 OA
BRANCH  25  28
ATOM     28  N   UNL     1       1.672  -6.814  -1.496  0.00  0.00    -0.216 N 
ATOM     29  H   UNL     1       0.967  -6.354  -1.015  0.00  0.00    +0.174 HD
BRANCH  28  33
ATOM     30  C   UNL     1       5.419  -7.304   0.264  0.00  0.00    +0.121 A 
ATOM     31  C   UNL     1       4.788  -6.071   0.310  0.00  0.00    +0.047 A 
ATOM     32  C   UNL     1       3.546  -5.907  -0.273  0.00  0.00    +0.028 A 
ATOM     33  C   UNL     1       2.930  -6.979  -0.905  0.00  0.00    +0.048 A 
ATOM     34  C   UNL     1       3.563  -8.214  -0.952  0.00  0.00    +0.028 A 
ATOM     35  C   UNL     1       4.807  -8.374  -0.373  0.00  0.00    +0.047 A 
BRANCH  30  36
ATOM     36  O   UNL     1       6.642  -7.464   0.838  0.00  0.00    -0.492 OA
BRANCH  36  38
ATOM     37  C   UNL     1       8.578  -6.691   2.059  0.00  0.00    +0.048 C 
ATOM     38  C   UNL     1       7.213  -6.321   1.476  0.00  0.00    +0.225 C 
ENDBRANCH  36  38
ENDBRANCH  30  36
ENDBRANCH  28  33
ENDBRANCH  25  28
ENDBRANCH   1  25
TORSDOF 8
