REMARK  Name = ZINC48857133
REMARK  7 active torsions:
REMARK  status: ('A' for Active; 'I' for Inactive)
REMARK    1  A    between atoms: C_1  and  C_2
REMARK    2  A    between atoms: C_2  and  C_3
REMARK    3  A    between atoms: C_9  and  N_11
REMARK    4  A    between atoms: N_14  and  C_15
REMARK    5  A    between atoms: C_15  and  C_16
REMARK    6  A    between atoms: C_18  and  C_22
REMARK    7  A    between atoms: C_19  and  C_21
REMARK                            x       y       z     vdW  Elec       q    Type
REMARK                         _______ _______ _______ _____ _____    ______ ____
ROOT
ATOM      1  N   UNL     1       1.622  -2.405  -0.021  0.00  0.00    -0.296 N 
ATOM      2  C   UNL     1       1.460  -3.627   0.522  0.00  0.00    +0.300 C 
ATOM      3  O   UNL     1       0.673  -4.412   0.030  0.00  0.00    -0.253 OA
ATOM      4  N   UNL     1       2.172  -3.980   1.611  0.00  0.00    -0.291 N 
ATOM      5  H   UNL     1       2.251  -1.779   0.371  0.00  0.00    +0.151 HD
ATOM      6  H   UNL     1       2.800  -3.354   2.004  0.00  0.00    +0.151 HD
ENDROOT
BRANCH   1  12
ATOM      7  C   UNL     1       0.718  -0.497  -1.257  0.00  0.00    +0.009 C 
ATOM      8  C   UNL     1      -0.089  -0.097  -2.493  0.00  0.00    +0.005 C 
ATOM      9  C   UNL     1       0.627  -0.590  -3.752  0.00  0.00    +0.000 C 
ATOM     10  C   UNL     1       0.758  -2.114  -3.700  0.00  0.00    +0.002 C 
ATOM     11  C   UNL     1       1.565  -2.514  -2.464  0.00  0.00    +0.022 C 
ATOM     12  C   UNL     1       0.849  -2.021  -1.205  0.00  0.00    +0.078 C 
BRANCH   7  14
ATOM     13  C   UNL     1      -0.019   1.526   0.010  0.00  0.00    +0.004 C 
ATOM     14  C   UNL     1       0.002  -0.004   0.002  0.00  0.00    +0.002 C 
ENDBRANCH   7  14
ENDBRANCH   1  12
BRANCH   4  15
ATOM     15  C   UNL     1       1.996  -5.309   2.202  0.00  0.00    +0.201 C 
BRANCH  15  16
ATOM     16  C   UNL     1       2.900  -5.450   3.400  0.00  0.00    +0.213 A 
ATOM     17  N   UNL     1       2.586  -5.148   4.627  0.00  0.00    -0.217 NA
ATOM     18  C   UNL     1       3.642  -5.407   5.419  0.00  0.00    +0.079 A 
ATOM     19  C   UNL     1       4.627  -5.883   4.640  0.00  0.00    +0.125 A 
ATOM     20  O   UNL     1       4.157  -5.913   3.378  0.00  0.00    -0.443 OA
ATOM     21  C   UNL     1       6.000  -6.309   5.094  0.00  0.00    +0.088 C 
ATOM     22  C   UNL     1       3.707  -5.200   6.910  0.00  0.00    +0.069 C 
ENDBRANCH  15  16
ENDBRANCH   4  15
TORSDOF 4
