REMARK  Name = ZINC09291637
REMARK  11 active torsions:
REMARK  status: ('A' for Active; 'I' for Inactive)
REMARK    1  A    between atoms: C_1  and  C_2
REMARK    2  A    between atoms: C_2  and  C_3
REMARK    3  A    between atoms: C_3  and  C_4
REMARK    4  A    between atoms: C_4  and  O_5
REMARK    5  A    between atoms: O_5  and  C_6
REMARK    6  A    between atoms: C_6  and  C_8
REMARK    7  A    between atoms: C_9  and  N_37
REMARK    8  A    between atoms: N_29  and  C_32
REMARK    9  A    between atoms: C_32  and  C_33
REMARK   10  A    between atoms: C_33  and  O_35
REMARK   11  A    between atoms: O_35  and  C_36
REMARK                            x       y       z     vdW  Elec       q    Type
REMARK                         _______ _______ _______ _____ _____    ______ ____
ROOT
ATOM      1  C   UNL     1      -1.732   2.468   1.177  0.00  0.00    +0.117 C 
ATOM      2  C   UNL     1      -2.050   3.789   1.155  0.00  0.00    +0.196 C 
ATOM      3  O   UNL     1      -1.937   4.519   0.032  0.00  0.00    -0.440 OA
ATOM      4  C   UNL     1      -1.877   3.912  -1.168  0.00  0.00    +0.152 A 
ATOM      5  C   UNL     1      -2.162   4.668  -2.397  0.00  0.00    +0.060 A 
ATOM      6  C   UNL     1      -2.493   6.024  -2.349  0.00  0.00    +0.015 A 
ATOM      7  C   UNL     1      -2.753   6.703  -3.519  0.00  0.00    +0.001 A 
ATOM      8  C   UNL     1      -2.688   6.046  -4.739  0.00  0.00    +0.004 A 
ATOM      9  C   UNL     1      -2.363   4.707  -4.800  0.00  0.00    +0.047 A 
ATOM     10  C   UNL     1      -2.097   4.004  -3.633  0.00  0.00    +0.143 A 
ATOM     11  O   UNL     1      -1.776   2.693  -3.673  0.00  0.00    -0.422 OA
ATOM     12  C   UNL     1      -1.511   1.997  -2.557  0.00  0.00    +0.346 A 
ATOM     13  O   UNL     1      -1.225   0.816  -2.649  0.00  0.00    -0.245 OA
ATOM     14  C   UNL     1      -1.553   2.592  -1.284  0.00  0.00    +0.104 A 
ATOM     15  C   UNL     1      -1.244   1.775  -0.062  0.00  0.00    +0.145 C 
ATOM     16  C   UNL     1       0.224   1.490   0.028  0.00  0.00    -0.002 A 
ATOM     17  C   UNL     1       1.310   2.330   0.146  0.00  0.00    +0.007 A 
ATOM     18  C   UNL     1       2.566   1.734   0.196  0.00  0.00    +0.000 A 
ATOM     19  C   UNL     1       2.713   0.363   0.132  0.00  0.00    +0.002 A 
ATOM     20  C   UNL     1       1.625  -0.487   0.014  0.00  0.00    +0.024 A 
ATOM     21  C   UNL     1       0.359   0.099  -0.038  0.00  0.00    +0.042 A 
ATOM     22  N   UNL     1      -0.883  -0.500  -0.152  0.00  0.00    -0.259 N 
ATOM     23  C   UNL     1      -1.882   0.406  -0.173  0.00  0.00    +0.240 C 
ATOM     24  O   UNL     1      -3.068   0.170  -0.265  0.00  0.00    -0.274 OA
ENDROOT
BRANCH   2  25
ATOM     25  N   UNL     1      -2.496   4.390   2.302  0.00  0.00    -0.329 N 
ATOM     26  H   UNL     1      -2.798   5.311   2.281  0.00  0.00    +0.145 HD
ATOM     27  H   UNL     1      -2.509   3.894   3.135  0.00  0.00    +0.145 HD
ENDBRANCH   2  25
BRANCH   1  28
ATOM     28  C   UNL     1      -1.863   1.743   2.372  0.00  0.00    +0.342 C 
ATOM     29  O   UNL     1      -0.878   1.493   3.043  0.00  0.00    -0.245 OA
BRANCH  28  30
ATOM     30  O   UNL     1      -3.081   1.322   2.776  0.00  0.00    -0.461 OA
BRANCH  30  31
ATOM     31  C   UNL     1      -3.130   0.507   3.949  0.00  0.00    +0.232 C 
BRANCH  31  32
ATOM     32  C   UNL     1      -4.565   0.029   4.179  0.00  0.00    +0.041 C 
BRANCH  32  34
ATOM     33  C   UNL     1      -6.045  -1.322   5.670  0.00  0.00    +0.004 C 
ATOM     34  C   UNL     1      -4.641  -0.741   5.499  0.00  0.00    -0.000 C 
ENDBRANCH  32  34
ENDBRANCH  31  32
ENDBRANCH  30  31
ENDBRANCH  28  30
ENDBRANCH   1  28
BRANCH  22  35
ATOM     35  C   UNL     1      -1.089  -1.948  -0.242  0.00  0.00    +0.234 C 
BRANCH  35  36
ATOM     36  C   UNL     1      -1.128  -2.536   1.145  0.00  0.00    +0.325 C 
ATOM     37  O   UNL     1      -1.086  -1.810   2.111  0.00  0.00    -0.249 OA
BRANCH  36  38
ATOM     38  O   UNL     1      -1.209  -3.866   1.308  0.00  0.00    -0.467 OA
ATOM     39  C   UNL     1      -1.356  -4.356   2.667  0.00  0.00    +0.280 C 
ENDBRANCH  36  38
ENDBRANCH  35  36
ENDBRANCH  22  35
TORSDOF 9
