REMARK  Name = ZINC39675415
REMARK  12 active torsions:
REMARK  status: ('A' for Active; 'I' for Inactive)
REMARK    1  A    between atoms: C_1  and  C_2
REMARK    2  A    between atoms: C_4  and  C_7
REMARK    3  A    between atoms: C_8  and  C_13
REMARK    4  A    between atoms: C_9  and  C_12
REMARK    5  A    between atoms: C_17  and  C_26
REMARK    6  A    between atoms: N_28  and  C_29
REMARK    7  A    between atoms: C_29  and  C_31
REMARK    8  A    between atoms: C_29  and  C_32
REMARK    9  A    between atoms: C_32  and  C_33
REMARK   10  A    between atoms: C_33  and  C_34
REMARK   11  A    between atoms: C_37  and  O_40
REMARK   12  A    between atoms: O_40  and  C_41
REMARK                            x       y       z     vdW  Elec       q    Type
REMARK                         _______ _______ _______ _____ _____    ______ ____
ROOT
ATOM      1  C   UNL     1       0.361  -5.017  -0.095  0.00  0.00    +0.252 C 
ATOM      2  O   UNL     1       1.030  -5.382   0.853  0.00  0.00    -0.270 OA
ATOM      3  N   UNL     1       0.863  -5.094  -1.343  0.00  0.00    -0.296 N 
ATOM      4  C   UNL     1       0.250  -4.605  -2.600  0.00  0.00    +0.121 C 
ATOM      5  C   UNL     1       1.429  -4.017  -3.407  0.00  0.00    +0.100 C 
ATOM      6  C   UNL     1       2.675  -4.732  -2.858  0.00  0.00    -0.004 C 
ATOM      7  C   UNL     1       2.157  -5.681  -1.768  0.00  0.00    +0.115 C 
ATOM      8  C   UNL     1       3.642  -3.719  -2.252  0.00  0.00    -0.010 C 
ATOM      9  C   UNL     1       4.897  -4.447  -1.765  0.00  0.00    -0.082 C 
ATOM     10  N   UNL     1       5.530  -5.143  -2.892  0.00  0.00    +0.379 N 
ATOM     11  C   UNL     1       4.629  -6.179  -3.410  0.00  0.00    -0.082 C 
ATOM     12  C   UNL     1       3.361  -5.525  -3.967  0.00  0.00    -0.010 C 
ATOM     13  H   UNL     1       5.733  -4.479  -3.624  0.00  0.00    -0.086 HD
ATOM     14  H   UNL     1       6.389  -5.571  -2.581  0.00  0.00    -0.086 HD
ENDROOT
BRANCH   1  16
ATOM     15  C   UNL     1      -1.330  -3.186   0.458  0.00  0.00    +0.201 A 
ATOM     16  C   UNL     1      -0.997  -4.490   0.122  0.00  0.00    +0.108 A 
ATOM     17  C   UNL     1      -2.207  -5.222   0.025  0.00  0.00    +0.093 A 
ATOM     18  N   UNL     1      -3.191  -4.413   0.285  0.00  0.00    -0.082 NA
ATOM     19  O   UNL     1      -2.667  -3.130   0.565  0.00  0.00    -0.352 OA
ATOM     20  C   UNL     1      -2.331  -6.683  -0.319  0.00  0.00    +0.070 C 
BRANCH  15  24
ATOM     21  C   UNL     1       0.498   1.468   1.320  0.00  0.00    +0.089 C 
ATOM     22  C   UNL     1       0.403  -0.011   1.047  0.00  0.00    +0.135 A 
ATOM     23  C   UNL     1      -0.734  -0.716   0.915  0.00  0.00    +0.079 A 
ATOM     24  C   UNL     1      -0.386  -2.067   0.666  0.00  0.00    +0.152 A 
ATOM     25  N   UNL     1       0.924  -2.147   0.655  0.00  0.00    -0.075 NA
ATOM     26  O   UNL     1       1.439  -0.849   0.890  0.00  0.00    -0.359 OA
ENDBRANCH  15  24
ENDBRANCH   1  16
BRANCH   5  27
ATOM     27  C   UNL     1       1.531  -2.531  -3.180  0.00  0.00    +0.218 C 
ATOM     28  O   UNL     1       1.111  -2.044  -2.152  0.00  0.00    -0.275 OA
ATOM     29  N   UNL     1       2.091  -1.742  -4.120  0.00  0.00    -0.312 N 
ATOM     30  H   UNL     1       2.364  -2.120  -4.970  0.00  0.00    +0.149 HD
BRANCH  29  31
ATOM     31  C   UNL     1       2.286  -0.315  -3.856  0.00  0.00    +0.070 C 
ATOM     32  C   UNL     1       3.629  -0.105  -3.154  0.00  0.00    +0.028 C 
BRANCH  31  33
ATOM     33  C   UNL     1       2.276   0.454  -5.179  0.00  0.00    +0.026 C 
BRANCH  33  34
ATOM     34  C   UNL     1       0.882   0.376  -5.804  0.00  0.00    +0.037 C 
BRANCH  34  35
ATOM     35  C   UNL     1       0.902   1.034  -7.160  0.00  0.00    -0.047 A 
ATOM     36  C   UNL     1       0.631   2.385  -7.275  0.00  0.00    +0.007 A 
ATOM     37  C   UNL     1       0.648   2.991  -8.516  0.00  0.00    +0.046 A 
ATOM     38  C   UNL     1       0.938   2.243  -9.648  0.00  0.00    +0.120 A 
ATOM     39  C   UNL     1       1.210   0.887  -9.530  0.00  0.00    +0.046 A 
ATOM     40  C   UNL     1       1.197   0.287  -8.285  0.00  0.00    +0.007 A 
BRANCH  38  41
ATOM     41  O   UNL     1       0.955   2.836 -10.870  0.00  0.00    -0.495 OA
ATOM     42  C   UNL     1       1.261   2.004 -11.991  0.00  0.00    +0.277 C 
ENDBRANCH  38  41
ENDBRANCH  34  35
ENDBRANCH  33  34
ENDBRANCH  31  33
ENDBRANCH  29  31
ENDBRANCH   5  27
TORSDOF 8
