REMARK  Name = ZINC08207920
REMARK  11 active torsions:
REMARK  status: ('A' for Active; 'I' for Inactive)
REMARK    1  A    between atoms: C_1  and  C_2
REMARK    2  A    between atoms: C_2  and  C_3
REMARK    3  A    between atoms: C_3  and  N_4
REMARK    4  A    between atoms: N_4  and  C_5
REMARK    5  A    between atoms: C_5  and  C_6
REMARK    6  A    between atoms: C_9  and  C_12
REMARK    7  A    between atoms: C_13  and  C_15
REMARK    8  A    between atoms: C_15  and  S_16
REMARK    9  A    between atoms: S_16  and  C_17
REMARK   10  A    between atoms: C_20  and  C_23
REMARK   11  A    between atoms: N_21  and  C_22
REMARK                            x       y       z     vdW  Elec       q    Type
REMARK                         _______ _______ _______ _____ _____    ______ ____
ROOT
ATOM      1  N   UNL     1       0.738  -1.962  -1.265  0.00  0.00    -0.296 N 
ATOM      2  C   UNL     1       1.764  -2.626  -0.695  0.00  0.00    +0.226 C 
ATOM      3  O   UNL     1       1.780  -3.838  -0.701  0.00  0.00    -0.275 OA
ENDROOT
BRANCH   1   4
ATOM      4  C   UNL     1       0.718  -0.497  -1.257  0.00  0.00    +0.108 C 
BRANCH   4   6
ATOM      5  C   UNL     1      -0.019   1.526   0.010  0.00  0.00    +0.005 C 
ATOM      6  C   UNL     1       0.002  -0.004   0.002  0.00  0.00    +0.016 C 
ENDBRANCH   4   6
ENDBRANCH   1   4
BRANCH   1   7
ATOM      7  C   UNL     1      -0.357  -2.706  -1.893  0.00  0.00    +0.142 C 
BRANCH   7   8
ATOM      8  C   UNL     1      -0.033  -2.945  -3.345  0.00  0.00    -0.030 A 
ATOM      9  C   UNL     1      -0.415  -2.021  -4.299  0.00  0.00    +0.005 A 
ATOM     10  C   UNL     1      -0.119  -2.240  -5.632  0.00  0.00    +0.003 A 
ATOM     11  C   UNL     1       0.560  -3.383  -6.010  0.00  0.00    -0.050 A 
ATOM     12  C   UNL     1       0.943  -4.307  -5.056  0.00  0.00    +0.003 A 
ATOM     13  C   UNL     1       0.650  -4.086  -3.723  0.00  0.00    +0.005 A 
ATOM     14  C   UNL     1       0.882  -3.622  -7.462  0.00  0.00    +0.044 C 
ENDBRANCH   7   8
ENDBRANCH   1   7
BRANCH   2  15
ATOM     15  C   UNL     1       2.890  -1.860  -0.049  0.00  0.00    +0.173 C 
BRANCH  15  16
ATOM     16  S   UNL     1       4.106  -3.026   0.623  0.00  0.00    -0.077 S 
BRANCH  16  17
ATOM     17  C   UNL     1       5.342  -1.991   1.334  0.00  0.00    +0.192 A 
ATOM     18  N   UNL     1       5.339  -0.677   1.357  0.00  0.00    -0.122 NA
ATOM     19  N   UNL     1       6.390  -0.242   1.954  0.00  0.00    -0.125 NA
ATOM     20  C   UNL     1       7.131  -1.253   2.351  0.00  0.00    +0.200 A 
ATOM     21  N   UNL     1       6.478  -2.405   1.971  0.00  0.00    -0.303 N 
ATOM     22  C   UNL     1       6.913  -3.786   2.198  0.00  0.00    +0.153 C 
BRANCH  20  23
ATOM     23  C   UNL     1       8.412  -1.170   3.070  0.00  0.00    +0.172 A 
ATOM     24  C   UNL     1       8.906  -0.068   3.701  0.00  0.00    +0.053 A 
ATOM     25  C   UNL     1      10.148  -0.438   4.251  0.00  0.00    +0.042 A 
ATOM     26  C   UNL     1      10.351  -1.732   3.934  0.00  0.00    +0.196 A 
ATOM     27  O   UNL     1       9.299  -2.173   3.225  0.00  0.00    -0.460 OA
ENDBRANCH  20  23
ENDBRANCH  16  17
ENDBRANCH  15  16
ENDBRANCH   2  15
TORSDOF 8
