REMARK  Name = ZINC58550544
REMARK  9 active torsions:
REMARK  status: ('A' for Active; 'I' for Inactive)
REMARK    1  A    between atoms: C_1  and  C_2
REMARK    2  A    between atoms: C_5  and  N_9
REMARK    3  A    between atoms: C_7  and  C_8
REMARK    4  A    between atoms: C_13  and  S_14
REMARK    5  A    between atoms: S_14  and  C_15
REMARK    6  A    between atoms: C_15  and  C_16
REMARK    7  A    between atoms: N_18  and  N_19
REMARK    8  A    between atoms: C_20  and  C_22
REMARK    9  A    between atoms: C_24  and  C_27
REMARK                            x       y       z     vdW  Elec       q    Type
REMARK                         _______ _______ _______ _____ _____    ______ ____
ROOT
ATOM      1  C   UNL     1      -3.905  -5.820  -3.337  0.00  0.00    +0.239 C 
ATOM      2  O   UNL     1      -4.226  -4.677  -3.584  0.00  0.00    -0.273 OA
ATOM      3  N   UNL     1      -4.570  -6.845  -3.905  0.00  0.00    -0.233 N 
ATOM      4  H   UNL     1      -4.313  -7.759  -3.707  0.00  0.00    +0.173 HD
ENDROOT
BRANCH   3   5
ATOM      5  N   UNL     1      -5.632  -6.590  -4.783  0.00  0.00    -0.229 N 
ATOM      6  C   UNL     1      -6.297  -7.615  -5.352  0.00  0.00    +0.282 C 
ATOM      7  O   UNL     1      -5.975  -8.760  -5.104  0.00  0.00    -0.267 OA
ATOM      8  H   UNL     1      -5.889  -5.676  -4.981  0.00  0.00    +0.173 HD
BRANCH   6   9
ATOM      9  C   UNL     1      -7.421  -7.345  -6.281  0.00  0.00    +0.170 A 
ATOM     10  C   UNL     1      -8.205  -8.317  -6.940  0.00  0.00    +0.086 A 
ATOM     11  C   UNL     1      -9.128  -7.667  -7.697  0.00  0.00    +0.168 A 
ATOM     12  O   UNL     1      -8.943  -6.344  -7.531  0.00  0.00    -0.354 OA
ATOM     13  N   UNL     1      -7.866  -6.161  -6.630  0.00  0.00    -0.073 NA
BRANCH  11  14
ATOM     14  C   UNL     1     -10.153  -8.301  -8.553  0.00  0.00    +0.020 A 
ATOM     15  C   UNL     1     -10.239  -9.692  -8.631  0.00  0.00    +0.011 A 
ATOM     16  C   UNL     1     -11.198 -10.277  -9.431  0.00  0.00    +0.001 A 
ATOM     17  C   UNL     1     -12.074  -9.488 -10.156  0.00  0.00    +0.000 A 
ATOM     18  C   UNL     1     -11.994  -8.109 -10.084  0.00  0.00    +0.001 A 
ATOM     19  C   UNL     1     -11.043  -7.511  -9.283  0.00  0.00    +0.011 A 
ENDBRANCH  11  14
ENDBRANCH   6   9
ENDBRANCH   3   5
BRANCH   1  20
ATOM     20  C   UNL     1      -2.762  -6.094  -2.393  0.00  0.00    +0.174 C 
BRANCH  20  21
ATOM     21  S   UNL     1      -2.078  -4.522  -1.799  0.00  0.00    -0.076 S 
BRANCH  21  26
ATOM     22  N   UNL     1       0.057  -4.173  -0.021  0.00  0.00    -0.277 N 
ATOM     23  C   UNL     1       0.904  -4.994   0.676  0.00  0.00    +0.230 A 
ATOM     24  N   UNL     1       0.580  -6.222   0.385  0.00  0.00    -0.137 NA
ATOM     25  N   UNL     1      -0.404  -6.236  -0.442  0.00  0.00    -0.122 NA
ATOM     26  C   UNL     1      -0.771  -5.006  -0.722  0.00  0.00    +0.196 A 
BRANCH  22  31
ATOM     27  C   UNL     1      -0.018   1.503   0.010  0.00  0.00    +0.044 C 
ATOM     28  C   UNL     1       0.002  -0.004   0.002  0.00  0.00    -0.047 A 
ATOM     29  C   UNL     1       0.006  -0.688  -1.200  0.00  0.00    +0.005 A 
ATOM     30  C   UNL     1       0.024  -2.068  -1.211  0.00  0.00    +0.026 A 
ATOM     31  C   UNL     1       0.039  -2.771  -0.013  0.00  0.00    +0.050 A 
ATOM     32  C   UNL     1       0.036  -2.082   1.192  0.00  0.00    +0.030 A 
ATOM     33  C   UNL     1       0.023  -0.700   1.196  0.00  0.00    -0.046 A 
ATOM     34  C   UNL     1       0.025   0.048   2.504  0.00  0.00    +0.044 C 
ENDBRANCH  22  31
ENDBRANCH  21  26
ENDBRANCH  20  21
ENDBRANCH   1  20
TORSDOF 7
