REMARK  Name = ZINC39684358
REMARK  10 active torsions:
REMARK  status: ('A' for Active; 'I' for Inactive)
REMARK    1  A    between atoms: C_1  and  C_2
REMARK    2  A    between atoms: C_2  and  C_4
REMARK    3  A    between atoms: C_2  and  N_8
REMARK    4  A    between atoms: C_4  and  C_5
REMARK    5  A    between atoms: C_4  and  C_6
REMARK    6  A    between atoms: C_4  and  C_7
REMARK    7  A    between atoms: C_9  and  C_11
REMARK    8  A    between atoms: C_22  and  C_24
REMARK    9  A    between atoms: C_29  and  O_30
REMARK   10  A    between atoms: O_30  and  C_31
REMARK                            x       y       z     vdW  Elec       q    Type
REMARK                         _______ _______ _______ _____ _____    ______ ____
ROOT
ATOM      1  C   UNL     1       2.777  -1.101   2.400  0.00  0.00    +0.100 C 
ATOM      2  C   UNL     1       2.275  -2.507   2.794  0.00  0.00    +0.121 C 
ATOM      3  N   UNL     1       3.225  -3.441   2.144  0.00  0.00    -0.296 N 
ATOM      4  C   UNL     1       4.548  -2.790   2.303  0.00  0.00    +0.115 C 
ATOM      5  C   UNL     1       4.270  -1.290   2.081  0.00  0.00    -0.004 C 
ATOM      6  C   UNL     1       4.553  -0.910   0.631  0.00  0.00    -0.010 C 
ATOM      7  C   UNL     1       6.052  -1.052   0.354  0.00  0.00    -0.082 C 
ATOM      8  N   UNL     1       6.804  -0.180   1.265  0.00  0.00    +0.379 N 
ATOM      9  C   UNL     1       6.599  -0.610   2.653  0.00  0.00    -0.082 C 
ATOM     10  C   UNL     1       5.123  -0.450   3.027  0.00  0.00    -0.010 C 
ATOM     11  C   UNL     1       2.949  -4.615   1.544  0.00  0.00    +0.250 C 
ATOM     12  O   UNL     1       1.794  -4.972   1.408  0.00  0.00    -0.270 OA
ATOM     13  H   UNL     1       7.787  -0.229   1.040  0.00  0.00    -0.086 HD
ATOM     14  H   UNL     1       6.485   0.771   1.158  0.00  0.00    -0.086 HD
ENDROOT
BRANCH  11  15
ATOM     15  C   UNL     1       4.048  -5.469   1.053  0.00  0.00    +0.078 A 
ATOM     16  C   UNL     1       5.256  -5.529   1.751  0.00  0.00    +0.017 A 
ATOM     17  C   UNL     1       6.278  -6.329   1.287  0.00  0.00    +0.001 A 
ATOM     18  C   UNL     1       6.113  -7.073   0.130  0.00  0.00    +0.004 A 
ATOM     19  C   UNL     1       4.924  -7.022  -0.569  0.00  0.00    +0.046 A 
ATOM     20  C   UNL     1       3.883  -6.227  -0.114  0.00  0.00    +0.132 A 
BRANCH  20  21
ATOM     21  O   UNL     1       2.712  -6.181  -0.797  0.00  0.00    -0.494 OA
ATOM     22  C   UNL     1       2.617  -6.981  -1.977  0.00  0.00    +0.277 C 
ENDBRANCH  20  21
ENDBRANCH  11  15
BRANCH   1  24
ATOM     23  N   UNL     1       1.833   0.719   1.016  0.00  0.00    -0.312 N 
ATOM     24  C   UNL     1       2.040  -0.602   1.184  0.00  0.00    +0.218 C 
ATOM     25  O   UNL     1       1.634  -1.389   0.356  0.00  0.00    -0.275 OA
ATOM     26  H   UNL     1       2.158   1.349   1.678  0.00  0.00    +0.149 HD
BRANCH  23  28
ATOM     27  C   UNL     1       2.098   1.359  -1.329  0.00  0.00    +0.028 C 
ATOM     28  C   UNL     1       1.117   1.204  -0.166  0.00  0.00    +0.075 C 
BRANCH  28  29
ATOM     29  C   UNL     1       0.476   2.558   0.145  0.00  0.00    -0.020 C 
ATOM     30  C   UNL     1      -0.272   3.064  -1.090  0.00  0.00    +0.012 C 
ATOM     31  C   UNL     1      -0.505   2.403   1.308  0.00  0.00    +0.012 C 
ATOM     32  C   UNL     1       1.566   3.562   0.528  0.00  0.00    +0.012 C 
ENDBRANCH  28  29
ENDBRANCH  23  28
ENDBRANCH   1  24
TORSDOF 5
