REMARK  Name = ZINC49057526
REMARK  6 active torsions:
REMARK  status: ('A' for Active; 'I' for Inactive)
REMARK    1  A    between atoms: C_1  and  C_2
REMARK    2  A    between atoms: C_2  and  C_4
REMARK    3  A    between atoms: C_2  and  S_11
REMARK    4  A    between atoms: S_11  and  C_12
REMARK    5  A    between atoms: C_13  and  N_18
REMARK    6  A    between atoms: N_16  and  C_17
REMARK                            x       y       z     vdW  Elec       q    Type
REMARK                         _______ _______ _______ _____ _____    ______ ____
ROOT
ATOM      1  S   UNL     1      -1.706  -0.636   0.170  0.00  0.00    -0.096 S 
ENDROOT
BRANCH   1   2
ATOM      2  C   UNL     1      -2.452  -0.227  -1.373  0.00  0.00    +0.127 A 
ATOM      3  C   UNL     1      -2.649  -1.060  -2.423  0.00  0.00    +0.247 A 
ATOM      4  N   UNL     1      -3.245  -0.363  -3.403  0.00  0.00    -0.212 NA
ATOM      5  C   UNL     1      -3.429   0.867  -3.010  0.00  0.00    +0.202 A 
ATOM      6  N   UNL     1      -2.952   0.996  -1.741  0.00  0.00    -0.327 N 
ATOM      7  C   UNL     1      -2.967   2.212  -0.924  0.00  0.00    +0.151 C 
BRANCH   3   8
ATOM      8  N   UNL     1      -2.270  -2.493  -2.480  0.00  0.00    +0.078 N 
ATOM      9  O   UNL     1      -1.649  -2.990  -1.570  0.00  0.00    -0.125 OA
ATOM     10  O   UNL     1      -2.582  -3.163  -3.437  0.00  0.00    -0.125 OA
ENDBRANCH   3   8
ENDBRANCH   1   2
BRANCH   1  12
ATOM     11  C   UNL     1       0.263   1.212  -0.268  0.00  0.00    +0.024 C 
ATOM     12  C   UNL     1       0.057  -0.294  -0.091  0.00  0.00    +0.081 C 
BRANCH  12  13
ATOM     13  C   UNL     1       0.843  -0.772   1.102  0.00  0.00    -0.016 A 
ATOM     14  C   UNL     1       0.229  -0.883   2.336  0.00  0.00    +0.006 A 
ATOM     15  C   UNL     1       0.950  -1.321   3.430  0.00  0.00    +0.000 A 
ATOM     16  C   UNL     1       2.286  -1.649   3.292  0.00  0.00    +0.001 A 
ATOM     17  C   UNL     1       2.901  -1.539   2.060  0.00  0.00    +0.020 A 
ATOM     18  C   UNL     1       2.178  -1.105   0.962  0.00  0.00    +0.045 A 
ATOM     19 CL   UNL     1       2.949  -0.973  -0.588  0.00  0.00    -0.083 Cl
ENDBRANCH  12  13
ENDBRANCH   1  12
TORSDOF 4
