REMARK  Name = ZINC11762313
REMARK  7 active torsions:
REMARK  status: ('A' for Active; 'I' for Inactive)
REMARK    1  A    between atoms: C_1  and  C_2
REMARK    2  A    between atoms: C_2  and  C_3
REMARK    3  A    between atoms: C_3  and  C_29
REMARK    4  A    between atoms: N_6  and  C_10
REMARK    5  A    between atoms: C_10  and  C_11
REMARK    6  A    between atoms: C_22  and  C_23
REMARK    7  A    between atoms: C_22  and  N_62
REMARK                            x       y       z     vdW  Elec       q    Type
REMARK                         _______ _______ _______ _____ _____    ______ ____
ROOT
ATOM      1  C   UNL     1       4.037   6.477  -7.895  0.00  0.00    +0.237 C 
ATOM      2  O   UNL     1       5.055   6.381  -7.243  0.00  0.00    -0.274 OA
ATOM      3  N   UNL     1       2.844   6.218  -7.325  0.00  0.00    -0.263 N 
ATOM      4  C   UNL     1       2.779   5.840  -5.989  0.00  0.00    +0.165 A 
ATOM      5  N   UNL     1       3.762   5.683  -5.125  0.00  0.00    -0.229 NA
ATOM      6  C   UNL     1       3.544   5.314  -3.867  0.00  0.00    +0.050 A 
ATOM      7  C   UNL     1       2.245   5.108  -3.521  0.00  0.00    -0.002 A 
ATOM      8  S   UNL     1       1.382   5.455  -5.028  0.00  0.00    -0.059 S 
ATOM      9  C   UNL     1       1.724   4.690  -2.189  0.00  0.00    -0.033 C 
ATOM     10  C   UNL     1       3.982   5.141  -1.437  0.00  0.00    -0.072 C 
ATOM     11  C   UNL     1       4.636   5.117  -2.822  0.00  0.00    +0.038 C 
ATOM     12  H   UNL     1       2.030   6.295  -7.847  0.00  0.00    +0.157 HD
ATOM     13  N   UNL     1       2.868   4.173  -1.398  0.00  0.00    +0.386 N 
ATOM     14  H   UNL     1       3.183   3.285  -1.807  0.00  0.00    -0.081 HD
ENDROOT
BRANCH   1  15
ATOM     15  C   UNL     1       4.106   6.887  -9.344  0.00  0.00    +0.214 C 
BRANCH  15  19
ATOM     16  C   UNL     1       7.649   6.834 -10.459  0.00  0.00    +0.138 C 
ATOM     17  C   UNL     1       6.316   6.154 -10.216  0.00  0.00    +0.251 C 
ATOM     18  O   UNL     1       6.039   4.992 -10.422  0.00  0.00    -0.272 OA
ATOM     19  N   UNL     1       5.504   7.109  -9.722  0.00  0.00    -0.215 N 
ATOM     20  C   UNL     1       6.130   8.287  -9.625  0.00  0.00    +0.310 C 
ATOM     21  O   UNL     1       5.603   9.301  -9.211  0.00  0.00    -0.252 OA
ATOM     22  N   UNL     1       7.410   8.224 -10.034  0.00  0.00    -0.281 N 
ATOM     23  H   UNL     1       8.051   8.953 -10.049  0.00  0.00    +0.152 HD
BRANCH  16  24
ATOM     24  C   UNL     1       8.014   6.778 -11.920  0.00  0.00    -0.015 A 
ATOM     25  C   UNL     1       8.763   5.722 -12.405  0.00  0.00    +0.006 A 
ATOM     26  C   UNL     1       9.094   5.668 -13.746  0.00  0.00    +0.000 A 
ATOM     27  C   UNL     1       8.684   6.675 -14.600  0.00  0.00    +0.000 A 
ATOM     28  C   UNL     1       7.940   7.733 -14.114  0.00  0.00    +0.000 A 
ATOM     29  C   UNL     1       7.605   7.785 -12.774  0.00  0.00    +0.006 A 
ENDBRANCH  16  24
BRANCH  16  31
ATOM     30  C   UNL     1       8.375   6.309  -8.127  0.00  0.00    +0.007 C 
ATOM     31  C   UNL     1       8.745   6.191  -9.607  0.00  0.00    +0.037 C 
ENDBRANCH  16  31
ENDBRANCH  15  19
ENDBRANCH   1  15
BRANCH  13  32
ATOM     32  C   UNL     1       2.451   3.937   0.001  0.00  0.00    -0.043 C 
BRANCH  32  33
ATOM     33  C   UNL     1       1.156   3.165   0.008  0.00  0.00    -0.064 A 
ATOM     34  C   UNL     1       1.175   1.783   0.000  0.00  0.00    +0.002 A 
ATOM     35  C   UNL     1      -0.013   1.076   0.008  0.00  0.00    +0.000 A 
ATOM     36  C   UNL     1      -1.219   1.751   0.017  0.00  0.00    +0.000 A 
ATOM     37  C   UNL     1      -1.238   3.133   0.029  0.00  0.00    +0.000 A 
ATOM     38  C   UNL     1      -0.050   3.840   0.023  0.00  0.00    +0.002 A 
ENDBRANCH  32  33
ENDBRANCH  13  32
TORSDOF 6
