REMARK  Name = ZINC67293277
REMARK  3 active torsions:
REMARK  status: ('A' for Active; 'I' for Inactive)
REMARK    1  A    between atoms: C_8  and  C_10
REMARK    2  A    between atoms: C_15  and  O_28
REMARK    3  A    between atoms: N_20  and  C_21
REMARK                            x       y       z     vdW  Elec       q    Type
REMARK                         _______ _______ _______ _____ _____    ______ ____
ROOT
ATOM      1  C   UNL     1       0.168  -4.203   0.239  0.00  0.00    +0.098 A 
ATOM      2  C   UNL     1      -1.006  -4.942   0.236  0.00  0.00    +0.030 A 
ATOM      3  C   UNL     1      -0.909  -6.354   0.316  0.00  0.00    +0.018 A 
ATOM      4  C   UNL     1      -2.043  -7.157   0.115  0.00  0.00    +0.015 A 
ATOM      5  C   UNL     1      -1.929  -8.515   0.152  0.00  0.00    +0.046 A 
ATOM      6  C   UNL     1      -0.695  -9.115   0.397  0.00  0.00    +0.120 A 
ATOM      7  C   UNL     1       0.432  -8.339   0.618  0.00  0.00    +0.092 A 
ATOM      8  C   UNL     1       0.334  -6.958   0.590  0.00  0.00    +0.141 A 
ATOM      9  O   UNL     1       1.421  -6.189   0.847  0.00  0.00    -0.438 OA
ATOM     10  C   UNL     1       1.440  -4.950   0.287  0.00  0.00    +0.212 A 
ATOM     11  N   UNL     1       2.552  -4.434  -0.192  0.00  0.00    -0.325 N 
ATOM     12  H   UNL     1       2.526  -3.596  -0.681  0.00  0.00    +0.169 HD
ENDROOT
BRANCH   1  20
ATOM     13  C   UNL     1       0.153   1.414  -0.144  0.00  0.00    +0.005 A 
ATOM     14  C   UNL     1       1.234   2.077   0.421  0.00  0.00    +0.020 A 
ATOM     15  C   UNL     1       2.285   1.343   0.933  0.00  0.00    +0.113 A 
ATOM     16  N   UNL     1       2.274   0.025   0.891  0.00  0.00    -0.240 NA
ATOM     17  C   UNL     1       1.262  -0.644   0.361  0.00  0.00    +0.125 A 
ATOM     18  C   UNL     1       0.169   0.031  -0.173  0.00  0.00    +0.044 A 
ATOM     19  N   UNL     1       1.291  -2.037   0.338  0.00  0.00    -0.266 N 
ATOM     20  C   UNL     1       0.147  -2.733   0.191  0.00  0.00    +0.254 C 
ATOM     21  O   UNL     1      -0.904  -2.145   0.018  0.00  0.00    -0.270 OA
ATOM     22  H   UNL     1       2.136  -2.505   0.427  0.00  0.00    +0.157 HD
ENDBRANCH   1  20
BRANCH  11  23
ATOM     23  C   UNL     1       3.743  -5.077   0.000  0.00  0.00    +0.045 A 
ATOM     24  C   UNL     1       4.063  -5.603   1.255  0.00  0.00    +0.026 A 
ATOM     25  C   UNL     1       5.265  -6.251   1.443  0.00  0.00    +0.005 A 
ATOM     26  C   UNL     1       6.156  -6.382   0.392  0.00  0.00    +0.038 A 
ATOM     27  C   UNL     1       5.847  -5.864  -0.856  0.00  0.00    +0.125 A 
ATOM     28  C   UNL     1       4.643  -5.217  -1.059  0.00  0.00    +0.064 A 
ATOM     29  F   UNL     1       6.722  -5.996  -1.876  0.00  0.00    -0.205 F 
ENDBRANCH  11  23
BRANCH   6  30
ATOM     30  O   UNL     1      -0.597 -10.468   0.420  0.00  0.00    -0.507 OA
ATOM     31  H   UNL     1      -0.398 -10.863  -0.440  0.00  0.00    +0.292 HD
ENDBRANCH   6  30
TORSDOF 3
