REMARK  Name = ZINC18123331
REMARK  8 active torsions:
REMARK  status: ('A' for Active; 'I' for Inactive)
REMARK    1  A    between atoms: C_1  and  O_2
REMARK    2  A    between atoms: O_2  and  C_3
REMARK    3  A    between atoms: C_6  and  C_9
REMARK    4  A    between atoms: C_14  and  C_24
REMARK    5  A    between atoms: C_27  and  O_32
REMARK    6  A    between atoms: C_28  and  O_30
REMARK    7  A    between atoms: O_30  and  C_31
REMARK    8  A    between atoms: O_32  and  C_33
REMARK                            x       y       z     vdW  Elec       q    Type
REMARK                         _______ _______ _______ _____ _____    ______ ____
ROOT
ATOM      1  C   UNL     1       2.517   7.732   4.064  0.00  0.00    +0.032 C 
ATOM      2  C   UNL     1       2.250   8.790   2.995  0.00  0.00    +0.059 C 
ATOM      3  C   UNL     1       1.093   8.355   2.111  0.00  0.00    +0.017 C 
ATOM      4  C   UNL     1       0.091   7.613   2.614  0.00  0.00    +0.036 C 
ATOM      5  C   UNL     1      -1.118   7.126   1.853  0.00  0.00    +0.136 C 
ATOM      6  N   UNL     1      -1.293   7.730   0.549  0.00  0.00    -0.331 N 
ATOM      7  C   UNL     1      -0.364   7.520  -0.468  0.00  0.00    +0.049 A 
ATOM      8  C   UNL     1      -0.701   6.841  -1.629  0.00  0.00    +0.025 A 
ATOM      9  C   UNL     1       0.269   6.616  -2.590  0.00  0.00    +0.002 A 
ATOM     10  C   UNL     1       1.565   7.060  -2.396  0.00  0.00    +0.002 A 
ATOM     11  C   UNL     1       1.900   7.754  -1.245  0.00  0.00    +0.025 A 
ATOM     12  C   UNL     1       0.925   8.000  -0.293  0.00  0.00    +0.052 A 
ATOM     13  N   UNL     1       1.163   8.787   0.827  0.00  0.00    -0.316 N 
ATOM     14  C   UNL     1       0.112   7.215   3.972  0.00  0.00    +0.163 C 
ATOM     15  O   UNL     1      -0.815   6.560   4.406  0.00  0.00    -0.292 OA
ATOM     16  C   UNL     1       1.238   7.574   4.895  0.00  0.00    +0.088 C 
ATOM     17  H   UNL     1      -2.068   8.289   0.381  0.00  0.00    +0.147 HD
ATOM     18  H   UNL     1       1.397   9.717   0.679  0.00  0.00    +0.152 HD
ENDROOT
BRANCH   1  22
ATOM     19  C   UNL     1       5.731   8.996   6.581  0.00  0.00    +0.120 A 
ATOM     20  C   UNL     1       5.837   7.817   5.858  0.00  0.00    +0.046 A 
ATOM     21  C   UNL     1       4.797   7.410   5.045  0.00  0.00    +0.007 A 
ATOM     22  C   UNL     1       3.651   8.178   4.952  0.00  0.00    -0.043 A 
ATOM     23  C   UNL     1       3.545   9.356   5.667  0.00  0.00    +0.007 A 
ATOM     24  C   UNL     1       4.580   9.765   6.485  0.00  0.00    +0.046 A 
BRANCH  19  26
ATOM     25  C   UNL     1       6.574  10.623   8.096  0.00  0.00    +0.277 C 
ATOM     26  O   UNL     1       6.753   9.399   7.382  0.00  0.00    -0.495 OA
ENDBRANCH  19  26
ENDBRANCH   1  22
BRANCH   5  27
ATOM     27  C   UNL     1      -1.003   5.634   1.677  0.00  0.00    -0.019 A 
ATOM     28  C   UNL     1       0.019   5.108   0.908  0.00  0.00    +0.009 A 
ATOM     29  C   UNL     1       0.130   3.740   0.743  0.00  0.00    +0.050 A 
ATOM     30  C   UNL     1      -0.785   2.893   1.348  0.00  0.00    +0.162 A 
ATOM     31  C   UNL     1      -1.817   3.423   2.116  0.00  0.00    +0.162 A 
ATOM     32  C   UNL     1      -1.919   4.795   2.283  0.00  0.00    +0.055 A 
BRANCH  31  33
ATOM     33  O   UNL     1      -2.720   2.596   2.708  0.00  0.00    -0.491 OA
ATOM     34  C   UNL     1      -3.753   3.210   3.482  0.00  0.00    +0.277 C 
ENDBRANCH  31  33
BRANCH  30  35
ATOM     35  O   UNL     1      -0.678   1.547   1.186  0.00  0.00    -0.491 OA
ATOM     36  C   UNL     1       0.402   1.074   0.379  0.00  0.00    +0.277 C 
ENDBRANCH  30  35
ENDBRANCH   5  27
TORSDOF 5
