REMARK  Name = ZINC20855230
REMARK  5 active torsions:
REMARK  status: ('A' for Active; 'I' for Inactive)
REMARK    1  A    between atoms: C_1  and  C_2
REMARK    2  A    between atoms: C_2  and  C_3
REMARK    3  A    between atoms: C_2  and  C_4
REMARK    4  A    between atoms: C_7  and  C_10
REMARK    5  A    between atoms: C_13  and  C_21
REMARK                            x       y       z     vdW  Elec       q    Type
REMARK                         _______ _______ _______ _____ _____    ______ ____
ROOT
ATOM      1  C   UNL     1       1.167   1.842   0.001  0.00  0.00    +0.138 C 
ATOM      2  C   UNL     1       0.639   3.251   0.013  0.00  0.00    +0.038 A 
ATOM      3  C   UNL     1       0.930   4.621   0.018  0.00  0.00    +0.133 A 
ATOM      4  N   UNL     1      -0.221   5.268   0.033  0.00  0.00    -0.170 NA
ATOM      5  N   UNL     1      -1.206   4.442   0.037  0.00  0.00    -0.272 N 
ATOM      6  H   UNL     1      -2.240   4.819   0.049  0.00  0.00    +0.189 HD
ATOM      7  C   UNL     1      -0.739   3.158   0.026  0.00  0.00    +0.126 A 
ATOM      8  C   UNL     1      -1.112   1.739   0.016  0.00  0.00    +0.263 C 
ATOM      9  O   UNL     1      -2.254   1.321   0.018  0.00  0.00    -0.269 OA
ATOM     10  N   UNL     1      -0.011   0.966   0.007  0.00  0.00    -0.299 N 
ATOM     11  H   UNL     1       0.116  -0.127   0.005  0.00  0.00    +0.150 HD
ENDROOT
BRANCH   1  15
ATOM     12  C   UNL     1       3.479   1.171  -3.528  0.00  0.00    -0.045 A 
ATOM     13  C   UNL     1       4.112   1.404  -2.321  0.00  0.00    +0.004 A 
ATOM     14  C   UNL     1       3.364   1.621  -1.179  0.00  0.00    +0.006 A 
ATOM     15  C   UNL     1       1.983   1.606  -1.244  0.00  0.00    -0.023 A 
ATOM     16  C   UNL     1       1.351   1.367  -2.450  0.00  0.00    +0.006 A 
ATOM     17  C   UNL     1       2.099   1.154  -3.592  0.00  0.00    +0.004 A 
BRANCH  12  19
ATOM     18  C   UNL     1       3.969  -0.449  -5.341  0.00  0.00    +0.012 C 
ATOM     19  C   UNL     1       4.295   0.934  -4.772  0.00  0.00    +0.013 C 
ATOM     20  C   UNL     1       3.961   2.005  -5.813  0.00  0.00    +0.012 C 
ENDBRANCH  12  19
ENDBRANCH   1  15
BRANCH   3  21
ATOM     21  C   UNL     1       2.277   5.231   0.008  0.00  0.00    +0.155 A 
ATOM     22  C   UNL     1       2.627   6.381  -0.624  0.00  0.00    +0.051 A 
ATOM     23  C   UNL     1       3.998   6.586  -0.366  0.00  0.00    +0.042 A 
ATOM     24  C   UNL     1       4.414   5.556   0.396  0.00  0.00    +0.196 A 
ATOM     25  O   UNL     1       3.371   4.739   0.621  0.00  0.00    -0.461 OA
ENDBRANCH   3  21
TORSDOF 3
