REMARK  Name = ZINC39727164
REMARK  12 active torsions:
REMARK  status: ('A' for Active; 'I' for Inactive)
REMARK    1  A    between atoms: C_1  and  C_2
REMARK    2  A    between atoms: C_3  and  C_35
REMARK    3  A    between atoms: C_4  and  C_34
REMARK    4  A    between atoms: C_7  and  C_8
REMARK    5  A    between atoms: C_8  and  C_10
REMARK    6  A    between atoms: C_10  and  S_11
REMARK    7  A    between atoms: S_11  and  C_12
REMARK    8  A    between atoms: C_15  and  C_25
REMARK    9  A    between atoms: N_17  and  C_18
REMARK   10  A    between atoms: C_25  and  C_27
REMARK   11  A    between atoms: C_25  and  N_28
REMARK   12  A    between atoms: C_35  and  C_37
REMARK                            x       y       z     vdW  Elec       q    Type
REMARK                         _______ _______ _______ _____ _____    ______ ____
ROOT
ATOM      1  C   UNL     1       0.100  -1.960   6.434  0.00  0.00    +0.180 C 
ATOM      2  N   UNL     1       0.114  -3.205   6.094  0.00  0.00    -0.162 NA
ATOM      3  N   UNL     1       0.097  -4.043   7.215  0.00  0.00    -0.248 N 
ATOM      4  C   UNL     1       0.069  -3.156   8.391  0.00  0.00    +0.168 C 
ATOM      5  N   UNL     1       0.078  -1.802   7.812  0.00  0.00    -0.260 N 
ATOM      6  H   UNL     1       0.102  -5.013   7.218  0.00  0.00    +0.170 HD
ENDROOT
BRANCH   5   7
ATOM      7  C   UNL     1       0.064  -0.592   8.514  0.00  0.00    +0.038 A 
ATOM      8  C   UNL     1       1.156  -0.227   9.291  0.00  0.00    +0.026 A 
ATOM      9  C   UNL     1       1.140   0.968   9.984  0.00  0.00    +0.040 A 
ATOM     10  C   UNL     1       0.037   1.802   9.903  0.00  0.00    +0.124 A 
ATOM     11  C   UNL     1      -1.052   1.440   9.129  0.00  0.00    +0.040 A 
ATOM     12  C   UNL     1      -1.038   0.248   8.431  0.00  0.00    +0.026 A 
ATOM     13  F   UNL     1       0.024   2.970  10.582  0.00  0.00    -0.205 F 
ENDBRANCH   5   7
BRANCH   4  14
ATOM     14  C   UNL     1      -1.203  -3.390   9.209  0.00  0.00    -0.031 C 
ATOM     15  C   UNL     1      -2.426  -3.260   8.300  0.00  0.00    -0.010 C 
BRANCH  14  16
ATOM     16  N   UNL     1      -1.168  -4.737   9.794  0.00  0.00    +0.384 N 
ATOM     17  C   UNL     1      -2.392  -4.963  10.571  0.00  0.00    -0.078 C 
ATOM     18  C   UNL     1      -2.398  -6.394  11.115  0.00  0.00    -0.019 C 
ATOM     19  C   UNL     1      -1.175  -6.598  12.014  0.00  0.00    -0.004 C 
ATOM     20  C   UNL     1       0.092  -6.287  11.213  0.00  0.00    -0.019 C 
ATOM     21  C   UNL     1       0.006  -4.860  10.666  0.00  0.00    -0.078 C 
ATOM     22  H   UNL     1      -1.110  -5.421   9.055  0.00  0.00    -0.081 HD
ENDBRANCH  14  16
ENDBRANCH   4  14
BRANCH   1  23
ATOM     23  S   UNL     1       0.115  -0.624   5.286  0.00  0.00    -0.081 S 
BRANCH  23  24
ATOM     24  C   UNL     1       0.143  -1.437   3.665  0.00  0.00    +0.158 C 
BRANCH  24  25
ATOM     25  C   UNL     1       0.157  -0.392   2.579  0.00  0.00    +0.190 C 
ATOM     26  O   UNL     1       0.150   0.786   2.870  0.00  0.00    -0.290 OA
BRANCH  25  33
ATOM     27  C   UNL     1       0.190   1.568   0.168  0.00  0.00    +0.047 C 
ATOM     28  C   UNL     1       0.195   0.061   0.133  0.00  0.00    -0.012 A 
ATOM     29  C   UNL     1       0.222  -0.755  -1.021  0.00  0.00    +0.041 A 
ATOM     30  C   UNL     1       0.216  -2.073  -0.589  0.00  0.00    +0.024 A 
ATOM     31  N   UNL     1       0.187  -2.084   0.751  0.00  0.00    -0.355 N 
ATOM     32  H   UNL     1       0.178  -2.880   1.305  0.00  0.00    +0.166 HD
ATOM     33  C   UNL     1       0.180  -0.785   1.219  0.00  0.00    +0.087 A 
ATOM     34  C   UNL     1       0.239  -3.289  -1.478  0.00  0.00    +0.064 C 
BRANCH  29  35
ATOM     35  C   UNL     1       0.250  -0.294  -2.413  0.00  0.00    +0.162 C 
ATOM     36  O   UNL     1      -0.784  -0.190  -3.039  0.00  0.00    -0.292 OA
ATOM     37  C   UNL     1       1.564   0.049  -3.067  0.00  0.00    +0.091 C 
ENDBRANCH  29  35
ENDBRANCH  25  33
ENDBRANCH  24  25
ENDBRANCH  23  24
ENDBRANCH   1  23
TORSDOF 8
