REMARK  Name = ZINC44940237
REMARK  6 active torsions:
REMARK  status: ('A' for Active; 'I' for Inactive)
REMARK    1  A    between atoms: C_15  and  C_17
REMARK    2  A    between atoms: C_23  and  C_25
REMARK    3  A    between atoms: N_27  and  C_28
REMARK    4  A    between atoms: C_28  and  C_29
REMARK    5  A    between atoms: C_29  and  N_30
REMARK    6  A    between atoms: C_34  and  N_37
REMARK                            x       y       z     vdW  Elec       q    Type
REMARK                         _______ _______ _______ _____ _____    ______ ____
ROOT
ATOM      1  C   UNL     1       4.717  -5.460   1.845  0.00  0.00    +0.091 C 
ATOM      2  C   UNL     1       5.093  -4.402   2.885  0.00  0.00    +0.040 C 
ATOM      3  C   UNL     1       6.285  -4.856   3.676  0.00  0.00    -0.030 C 
ATOM      4  C   UNL     1       6.699  -6.081   3.725  0.00  0.00    -0.030 C 
ATOM      5  C   UNL     1       6.052  -7.218   2.989  0.00  0.00    +0.040 C 
ATOM      6  C   UNL     1       4.643  -6.826   2.541  0.00  0.00    +0.091 C 
ENDROOT
BRANCH   1  21
ATOM      7  C   UNL     1       3.710  -4.207  -6.322  0.00  0.00    +0.001 A 
ATOM      8  C   UNL     1       2.340  -4.216  -6.548  0.00  0.00    +0.002 A 
ATOM      9  C   UNL     1       1.455  -4.186  -5.494  0.00  0.00    +0.026 A 
ATOM     10  C   UNL     1       1.934  -4.147  -4.189  0.00  0.00    +0.047 A 
ATOM     11  C   UNL     1       3.324  -4.139  -3.964  0.00  0.00    +0.003 A 
ATOM     12  C   UNL     1       4.203  -4.169  -5.049  0.00  0.00    +0.010 A 
ATOM     13  C   UNL     1       3.494  -4.096  -2.514  0.00  0.00    -0.016 A 
ATOM     14  C   UNL     1       2.263  -4.080  -1.968  0.00  0.00    +0.038 A 
ATOM     15  N   UNL     1       1.320  -4.111  -2.955  0.00  0.00    -0.356 N 
ATOM     16  H   UNL     1       0.361  -4.108  -2.810  0.00  0.00    +0.166 HD
ATOM     17  C   UNL     1       2.014  -4.028  -0.477  0.00  0.00    +0.161 C 
ATOM     18  N   UNL     1       3.300  -4.283   0.194  0.00  0.00    -0.295 N 
ATOM     19  C   UNL     1       4.499  -3.597  -0.310  0.00  0.00    +0.113 C 
ATOM     20  C   UNL     1       4.785  -4.079  -1.738  0.00  0.00    +0.056 C 
ATOM     21  C   UNL     1       3.376  -5.125   1.244  0.00  0.00    +0.220 C 
ATOM     22  O   UNL     1       2.366  -5.613   1.705  0.00  0.00    -0.275 OA
ENDBRANCH   1  21
BRANCH   6  23
ATOM     23  C   UNL     1       3.741  -6.734   3.744  0.00  0.00    +0.217 C 
ATOM     24  O   UNL     1       4.121  -6.162   4.744  0.00  0.00    -0.275 OA
ATOM     25  N   UNL     1       2.513  -7.287   3.709  0.00  0.00    -0.314 N 
ATOM     26  H   UNL     1       2.209  -7.744   2.910  0.00  0.00    +0.149 HD
BRANCH  25  27
ATOM     27  C   UNL     1       1.636  -7.197   4.880  0.00  0.00    +0.123 C 
BRANCH  27  28
ATOM     28  C   UNL     1       0.311  -7.900   4.579  0.00  0.00    +0.121 C 
BRANCH  28  29
ATOM     29  N   UNL     1      -0.566  -7.811   5.749  0.00  0.00    -0.328 N 
ATOM     30  C   UNL     1      -1.833  -8.381   5.713  0.00  0.00    +0.119 A 
ATOM     31  C   UNL     1      -2.260  -9.041   4.565  0.00  0.00    +0.046 A 
ATOM     32  C   UNL     1      -3.523  -9.604   4.543  0.00  0.00    +0.037 A 
ATOM     33  C   UNL     1      -4.320  -9.489   5.675  0.00  0.00    +0.144 A 
ATOM     34  C   UNL     1      -3.833  -8.820   6.780  0.00  0.00    +0.145 A 
ATOM     35  N   UNL     1      -2.621  -8.297   6.774  0.00  0.00    -0.238 NA
ATOM     36  H   UNL     1      -0.263  -7.353   6.549  0.00  0.00    +0.148 HD
BRANCH  33  37
ATOM     37  N   UNL     1      -5.678 -10.076   5.696  0.00  0.00    +0.058 N 
ATOM     38  O   UNL     1      -6.100 -10.659   4.724  0.00  0.00    -0.126 OA
ATOM     39  O   UNL     1      -6.367  -9.972   6.684  0.00  0.00    -0.126 OA
ENDBRANCH  33  37
ENDBRANCH  28  29
ENDBRANCH  27  28
ENDBRANCH  25  27
ENDBRANCH   6  23
TORSDOF 6
