REMARK  Name = ZINC36313394
REMARK  14 active torsions:
REMARK  status: ('A' for Active; 'I' for Inactive)
REMARK    1  A    between atoms: C_1  and  C_2
REMARK    2  A    between atoms: C_2  and  C_3
REMARK    3  A    between atoms: C_2  and  O_4
REMARK    4  A    between atoms: O_4  and  C_5
REMARK    5  A    between atoms: C_5  and  C_6
REMARK    6  A    between atoms: C_6  and  C_8
REMARK    7  A    between atoms: C_6  and  O_36
REMARK    8  A    between atoms: C_8  and  N_9
REMARK    9  A    between atoms: N_9  and  C_10
REMARK   10  A    between atoms: N_9  and  C_29
REMARK   11  A    between atoms: C_10  and  C_11
REMARK   12  A    between atoms: C_12  and  C_22
REMARK   13  A    between atoms: C_15  and  N_16
REMARK   14  A    between atoms: C_29  and  C_30
REMARK                            x       y       z     vdW  Elec       q    Type
REMARK                         _______ _______ _______ _____ _____    ______ ____
ROOT
ATOM      1  C   UNL     1      -6.269  -2.166  -4.590  0.00  0.00    -0.035 C 
ENDROOT
BRANCH   1   2
ATOM      2  C   UNL     1      -7.617  -2.608  -4.082  0.00  0.00    +0.025 A 
ATOM      3  C   UNL     1      -7.910  -3.851  -3.482  0.00  0.00    +0.119 A 
ATOM      4  N   UNL     1      -9.187  -3.860  -3.175  0.00  0.00    -0.076 NA
ATOM      5  O   UNL     1      -9.742  -2.619  -3.571  0.00  0.00    -0.339 OA
ATOM      6  C   UNL     1      -8.760  -1.878  -4.114  0.00  0.00    +0.222 A 
BRANCH   3   7
ATOM      7  C   UNL     1      -6.947  -4.954  -3.242  0.00  0.00    +0.039 A 
ATOM      8  C   UNL     1      -5.584  -4.682  -3.143  0.00  0.00    +0.013 A 
ATOM      9  C   UNL     1      -4.692  -5.711  -2.919  0.00  0.00    +0.001 A 
ATOM     10  C   UNL     1      -5.148  -7.011  -2.793  0.00  0.00    +0.003 A 
ATOM     11  C   UNL     1      -6.498  -7.289  -2.890  0.00  0.00    +0.039 A 
ATOM     12  C   UNL     1      -7.403  -6.265  -3.108  0.00  0.00    +0.133 A 
ATOM     13  F   UNL     1      -8.723  -6.536  -3.198  0.00  0.00    -0.205 F 
ENDBRANCH   3   7
BRANCH   6  14
ATOM     14  N   UNL     1      -8.893  -0.598  -4.620  0.00  0.00    -0.295 N 
ATOM     15  C   UNL     1      -9.286  -0.374  -6.020  0.00  0.00    +0.136 C 
ATOM     16  C   UNL     1     -10.452   0.621  -6.043  0.00  0.00    +0.179 C 
ATOM     17  O   UNL     1     -10.094   1.782  -5.290  0.00  0.00    -0.377 OA
ATOM     18  C   UNL     1      -9.844   1.529  -3.905  0.00  0.00    +0.179 C 
ATOM     19  C   UNL     1      -8.652   0.580  -3.772  0.00  0.00    +0.136 C 
ENDBRANCH   6  14
ENDBRANCH   1   2
BRANCH   1  20
ATOM     20  N   UNL     1      -5.704  -1.165  -3.676  0.00  0.00    +0.386 N 
ATOM     21  H   UNL     1      -6.337  -0.382  -3.602  0.00  0.00    -0.081 HD
BRANCH  20  22
ATOM     22  C   UNL     1      -4.410  -0.701  -4.195  0.00  0.00    -0.044 C 
BRANCH  22  23
ATOM     23  C   UNL     1      -4.640   0.172  -5.430  0.00  0.00    +0.124 C 
BRANCH  23  24
ATOM     24  O   UNL     1      -5.421   1.313  -5.069  0.00  0.00    -0.391 OA
ATOM     25  H   UNL     1      -4.980   1.912  -4.452  0.00  0.00    +0.210 HD
ENDBRANCH  23  24
BRANCH  23  26
ATOM     26  C   UNL     1      -3.292   0.633  -5.987  0.00  0.00    +0.189 C 
BRANCH  26  27
ATOM     27  O   UNL     1      -3.500   1.351  -7.205  0.00  0.00    -0.375 OA
BRANCH  27  29
ATOM     28  C   UNL     1      -1.754   0.768  -8.771  0.00  0.00    +0.037 C 
ATOM     29  C   UNL     1      -2.297   1.828  -7.811  0.00  0.00    +0.112 C 
ATOM     30  C   UNL     1      -2.591   3.115  -8.585  0.00  0.00    +0.037 C 
ENDBRANCH  27  29
ENDBRANCH  26  27
ENDBRANCH  23  26
ENDBRANCH  22  23
ENDBRANCH  20  22
BRANCH  20  31
ATOM     31  C   UNL     1      -5.512  -1.766  -2.349  0.00  0.00    -0.046 C 
BRANCH  31  32
ATOM     32  C   UNL     1      -5.089  -0.684  -1.355  0.00  0.00    +0.102 C 
ATOM     33  C   UNL     1      -4.771  -1.325   0.013  0.00  0.00    +0.032 C 
ATOM     34  C   UNL     1      -5.358  -0.287   1.008  0.00  0.00    +0.030 C 
ATOM     35  C   UNL     1      -6.588   0.220   0.213  0.00  0.00    +0.160 C 
ATOM     36  O   UNL     1      -6.163   0.244  -1.160  0.00  0.00    -0.378 OA
ENDBRANCH  31  32
ENDBRANCH  20  31
ENDBRANCH   1  20
TORSDOF 12
