REMARK  Name = ZINC35890832
REMARK  10 active torsions:
REMARK  status: ('A' for Active; 'I' for Inactive)
REMARK    1  A    between atoms: C_5  and  O_7
REMARK    2  A    between atoms: O_7  and  C_8
REMARK    3  A    between atoms: C_8  and  C_10
REMARK    4  A    between atoms: C_8  and  C_29
REMARK    5  A    between atoms: C_10  and  N_11
REMARK    6  A    between atoms: N_11  and  C_12
REMARK    7  A    between atoms: N_11  and  C_22
REMARK    8  A    between atoms: C_12  and  C_13
REMARK    9  A    between atoms: C_22  and  C_23
REMARK   10  A    between atoms: N_31  and  C_32
REMARK                            x       y       z     vdW  Elec       q    Type
REMARK                         _______ _______ _______ _____ _____    ______ ____
ROOT
ATOM      1  N   UNL     1       0.469  -3.540  -2.240  0.00  0.00    +0.387 N 
ATOM      2  H   UNL     1       0.018  -2.827  -2.794  0.00  0.00    -0.081 HD
ENDROOT
BRANCH   1   3
ATOM      3  C   UNL     1      -0.155  -3.596  -0.912  0.00  0.00    -0.023 C 
BRANCH   3   4
ATOM      4  C   UNL     1      -0.195  -2.191  -0.307  0.00  0.00    +0.242 C 
BRANCH   4   5
ATOM      5  C   UNL     1      -1.006  -2.213   0.962  0.00  0.00    +0.252 C 
ATOM      6  O   UNL     1      -0.495  -1.892   2.014  0.00  0.00    -0.272 OA
ATOM      7  N   UNL     1      -2.300  -2.589   0.929  0.00  0.00    -0.309 N 
ATOM      8  H   UNL     1      -2.709  -2.846   0.087  0.00  0.00    +0.149 HD
BRANCH   7   9
ATOM      9  C   UNL     1      -3.089  -2.611   2.163  0.00  0.00    +0.073 C 
ATOM     10  C   UNL     1      -3.998  -3.818   2.400  0.00  0.00    +0.024 C 
ATOM     11  C   UNL     1      -4.606  -2.463   2.034  0.00  0.00    +0.024 C 
ENDBRANCH   7   9
ENDBRANCH   4   5
BRANCH   4  12
ATOM     12  O   UNL     1       1.136  -1.761  -0.015  0.00  0.00    -0.479 OA
BRANCH  12  17
ATOM     13  C   UNL     1       0.528   1.825  -0.113  0.00  0.00    +0.004 A 
ATOM     14  C   UNL     1       1.790   2.310   0.175  0.00  0.00    +0.003 A 
ATOM     15  C   UNL     1       2.836   1.433   0.399  0.00  0.00    +0.042 A 
ATOM     16  C   UNL     1       2.620   0.068   0.336  0.00  0.00    +0.165 A 
ATOM     17  C   UNL     1       1.352  -0.420   0.048  0.00  0.00    +0.157 A 
ATOM     18  C   UNL     1       0.306   0.463  -0.176  0.00  0.00    +0.048 A 
ATOM     19  F   UNL     1       3.641  -0.789   0.554  0.00  0.00    -0.202 F 
ENDBRANCH  12  17
ENDBRANCH   4  12
ENDBRANCH   3   4
ENDBRANCH   1   3
BRANCH   1  20
ATOM     20  C   UNL     1       0.322  -4.842  -2.906  0.00  0.00    -0.043 C 
BRANCH  20  21
ATOM     21  C   UNL     1      -1.134  -5.092  -3.204  0.00  0.00    -0.060 A 
ATOM     22  C   UNL     1      -1.898  -5.842  -2.329  0.00  0.00    +0.005 A 
ATOM     23  C   UNL     1      -3.234  -6.074  -2.598  0.00  0.00    +0.050 A 
ATOM     24  C   UNL     1      -3.811  -5.555  -3.746  0.00  0.00    +0.166 A 
ATOM     25  C   UNL     1      -3.041  -4.800  -4.627  0.00  0.00    +0.166 A 
ATOM     26  C   UNL     1      -1.704  -4.566  -4.348  0.00  0.00    +0.051 A 
ATOM     27  O   UNL     1      -3.830  -4.407  -5.669  0.00  0.00    -0.453 OA
ATOM     28  C   UNL     1      -4.982  -5.269  -5.625  0.00  0.00    +0.466 C 
ATOM     29  O   UNL     1      -5.082  -5.636  -4.236  0.00  0.00    -0.453 OA
ENDBRANCH  20  21
ENDBRANCH   1  20
BRANCH   1  30
ATOM     30  C   UNL     1       1.896  -3.221  -2.098  0.00  0.00    -0.046 C 
BRANCH  30  31
ATOM     31  C   UNL     1       2.535  -3.112  -3.484  0.00  0.00    +0.102 C 
ATOM     32  C   UNL     1       4.036  -2.781  -3.344  0.00  0.00    +0.032 C 
ATOM     33  C   UNL     1       4.262  -1.776  -4.507  0.00  0.00    +0.030 C 
ATOM     34  C   UNL     1       2.900  -1.038  -4.527  0.00  0.00    +0.160 C 
ATOM     35  O   UNL     1       1.921  -2.047  -4.219  0.00  0.00    -0.378 OA
ENDBRANCH  30  31
ENDBRANCH   1  30
TORSDOF 10
