REMARK  Name = ZINC63281473
REMARK  9 active torsions:
REMARK  status: ('A' for Active; 'I' for Inactive)
REMARK    1  A    between atoms: C_1  and  O_2
REMARK    2  A    between atoms: O_2  and  C_3
REMARK    3  A    between atoms: C_8  and  C_13
REMARK    4  A    between atoms: N_15  and  C_16
REMARK    5  A    between atoms: C_16  and  C_18
REMARK    6  A    between atoms: C_16  and  C_25
REMARK    7  A    between atoms: C_18  and  C_19
REMARK    8  A    between atoms: N_27  and  C_28
REMARK    9  A    between atoms: C_28  and  C_29
REMARK                            x       y       z     vdW  Elec       q    Type
REMARK                         _______ _______ _______ _____ _____    ______ ____
ROOT
ATOM      1  C   UNL     1      -6.398  -5.809  -2.615  0.00  0.00    +0.163 C 
ENDROOT
BRANCH   1   4
ATOM      2  C   UNL     1      -4.646  -4.870  -1.206  0.00  0.00    +0.240 C 
ATOM      3  O   UNL     1      -3.828  -5.268  -2.009  0.00  0.00    -0.273 OA
ATOM      4  N   UNL     1      -5.958  -5.090  -1.417  0.00  0.00    -0.302 N 
ATOM      5  H   UNL     1      -6.612  -4.772  -0.775  0.00  0.00    +0.150 HD
BRANCH   2  11
ATOM      6  C   UNL     1      -1.198  -0.636   0.010  0.00  0.00    +0.122 A 
ATOM      7  C   UNL     1      -2.372   0.141   0.020  0.00  0.00    +0.046 A 
ATOM      8  C   UNL     1      -3.597  -0.428   0.028  0.00  0.00    +0.013 A 
ATOM      9  C   UNL     1      -3.704  -1.893   0.026  0.00  0.00    -0.003 A 
ATOM     10  C   UNL     1      -4.764  -2.731   0.033  0.00  0.00    +0.016 C 
ATOM     11  C   UNL     1      -4.193  -4.131   0.027  0.00  0.00    +0.190 C 
ATOM     12  N   UNL     1      -2.735  -3.972   0.016  0.00  0.00    -0.370 N 
ATOM     13  C   UNL     1      -2.455  -2.689   0.016  0.00  0.00    +0.047 A 
ATOM     14  C   UNL     1      -1.220  -1.993   0.003  0.00  0.00    +0.071 A 
ATOM     15  H   UNL     1      -2.086  -4.693   0.010  0.00  0.00    +0.161 HD
BRANCH   6  17
ATOM     16  C   UNL     1      -0.017   1.425   0.010  0.00  0.00    +0.277 C 
ATOM     17  O   UNL     1       0.002  -0.004   0.002  0.00  0.00    -0.495 OA
ENDBRANCH   6  17
ENDBRANCH   2  11
ENDBRANCH   1   4
BRANCH   1  18
ATOM     18  C   UNL     1      -7.814  -5.412  -2.948  0.00  0.00    +0.234 C 
ATOM     19  O   UNL     1      -8.398  -4.609  -2.252  0.00  0.00    -0.274 OA
ATOM     20  N   UNL     1      -8.430  -5.951  -4.018  0.00  0.00    -0.307 N 
ATOM     21  H   UNL     1      -7.963  -6.594  -4.574  0.00  0.00    +0.149 HD
BRANCH  20  22
ATOM     22  C   UNL     1      -9.806  -5.566  -4.341  0.00  0.00    +0.178 C 
BRANCH  22  23
ATOM     23  C   UNL     1     -10.258  -6.305  -5.574  0.00  0.00    +0.122 A 
ATOM     24  C   UNL     1     -10.874  -7.502  -5.593  0.00  0.00    +0.046 A 
ATOM     25  C   UNL     1     -11.115  -7.817  -6.950  0.00  0.00    +0.041 A 
ATOM     26  C   UNL     1     -10.633  -6.794  -7.679  0.00  0.00    +0.195 A 
ATOM     27  O   UNL     1     -10.121  -5.879  -6.840  0.00  0.00    -0.466 OA
ENDBRANCH  22  23
ENDBRANCH  20  22
ENDBRANCH   1  18
BRANCH   1  28
ATOM     28  C   UNL     1      -6.338  -7.316  -2.357  0.00  0.00    +0.067 C 
BRANCH  28  29
ATOM     29  C   UNL     1      -4.905  -7.732  -2.146  0.00  0.00    -0.045 A 
ATOM     30  C   UNL     1      -4.130  -8.114  -3.224  0.00  0.00    +0.004 A 
ATOM     31  C   UNL     1      -2.815  -8.496  -3.030  0.00  0.00    +0.000 A 
ATOM     32  C   UNL     1      -2.276  -8.495  -1.758  0.00  0.00    +0.000 A 
ATOM     33  C   UNL     1      -3.051  -8.112  -0.679  0.00  0.00    +0.000 A 
ATOM     34  C   UNL     1      -4.364  -7.726  -0.873  0.00  0.00    +0.004 A 
ENDBRANCH  28  29
ENDBRANCH   1  28
TORSDOF 8
