REMARK  Name = ZINC00887209
REMARK  8 active torsions:
REMARK  status: ('A' for Active; 'I' for Inactive)
REMARK    1  A    between atoms: C_3  and  C_6
REMARK    2  A    between atoms: N_9  and  C_11
REMARK    3  A    between atoms: C_11  and  C_12
REMARK    4  A    between atoms: N_14  and  C_15
REMARK    5  A    between atoms: N_14  and  C_22
REMARK    6  A    between atoms: C_22  and  C_24
REMARK    7  A    between atoms: C_22  and  C_31
REMARK    8  A    between atoms: N_33  and  C_34
REMARK                            x       y       z     vdW  Elec       q    Type
REMARK                         _______ _______ _______ _____ _____    ______ ____
ROOT
ATOM      1  C   UNL     1       7.571   0.961   1.880  0.00  0.00    +0.244 C 
ATOM      2  O   UNL     1       7.143   0.122   2.644  0.00  0.00    -0.273 OA
ATOM      3  N   UNL     1       8.891   1.229   1.844  0.00  0.00    -0.254 N 
ENDROOT
BRANCH   3   4
ATOM      4  C   UNL     1       9.369   2.292   1.069  0.00  0.00    +0.038 A 
ATOM      5  C   UNL     1       9.379   2.193  -0.316  0.00  0.00    +0.025 A 
ATOM      6  C   UNL     1       9.851   3.243  -1.079  0.00  0.00    +0.022 A 
ATOM      7  C   UNL     1      10.314   4.393  -0.464  0.00  0.00    +0.041 A 
ATOM      8  C   UNL     1      10.305   4.494   0.916  0.00  0.00    +0.022 A 
ATOM      9  C   UNL     1       9.829   3.449   1.683  0.00  0.00    +0.025 A 
ATOM     10 CL   UNL     1      10.907   5.711  -1.426  0.00  0.00    -0.084 Cl
ENDBRANCH   3   4
BRANCH   1  11
ATOM     11  C   UNL     1       6.627   1.703   0.970  0.00  0.00    +0.264 C 
BRANCH  11  15
ATOM     12  C   UNL     1       3.503   0.060   0.957  0.00  0.00    +0.211 A 
ATOM     13  N   UNL     1       3.318   0.984   1.913  0.00  0.00    -0.107 NA
ATOM     14  N   UNL     1       4.413   1.658   2.009  0.00  0.00    -0.045 NA
ATOM     15  N   UNL     1       5.265   1.198   1.161  0.00  0.00    -0.154 N 
ATOM     16  N   UNL     1       4.735   0.219   0.512  0.00  0.00    -0.129 NA
BRANCH  12  19
ATOM     17  C   UNL     1       0.499  -2.160   0.338  0.00  0.00    +0.008 A 
ATOM     18  C   UNL     1       1.235  -1.152   0.921  0.00  0.00    +0.019 A 
ATOM     19  C   UNL     1       2.519  -0.944   0.496  0.00  0.00    +0.060 A 
ATOM     20  S   UNL     1       2.699  -2.201  -0.759  0.00  0.00    -0.093 S 
ATOM     21  C   UNL     1       1.067  -2.914  -0.637  0.00  0.00    +0.046 A 
ENDBRANCH  12  19
ENDBRANCH  11  15
ENDBRANCH   1  11
BRANCH   3  22
ATOM     22  C   UNL     1       9.826   0.408   2.618  0.00  0.00    +0.197 C 
BRANCH  22  23
ATOM     23  C   UNL     1      11.209   1.001   2.527  0.00  0.00    -0.018 A 
ATOM     24  C   UNL     1      11.789   1.217   1.291  0.00  0.00    +0.007 A 
ATOM     25  C   UNL     1      13.057   1.761   1.208  0.00  0.00    +0.020 A 
ATOM     26  C   UNL     1      13.745   2.090   2.362  0.00  0.00    +0.041 A 
ATOM     27  C   UNL     1      13.164   1.874   3.599  0.00  0.00    +0.020 A 
ATOM     28  C   UNL     1      11.894   1.335   3.681  0.00  0.00    +0.007 A 
ATOM     29 CL   UNL     1      15.338   2.773   2.258  0.00  0.00    -0.084 Cl
ENDBRANCH  22  23
BRANCH  22  30
ATOM     30  C   UNL     1       9.844  -0.993   2.062  0.00  0.00    +0.239 C 
ATOM     31  O   UNL     1       9.144  -1.277   1.113  0.00  0.00    -0.273 OA
ATOM     32  N   UNL     1      10.637  -1.929   2.619  0.00  0.00    -0.311 N 
ATOM     33  H   UNL     1      11.197  -1.701   3.377  0.00  0.00    +0.149 HD
BRANCH  32  34
ATOM     34  C   UNL     1      10.653  -3.291   2.078  0.00  0.00    +0.073 C 
ATOM     35  C   UNL     1       9.552  -4.138   2.747  0.00  0.00    +0.022 C 
ATOM     36  C   UNL     1      10.191  -5.541   2.898  0.00  0.00    +0.002 C 
ATOM     37  C   UNL     1      11.659  -5.210   3.265  0.00  0.00    +0.002 C 
ATOM     38  C   UNL     1      11.993  -3.972   2.408  0.00  0.00    +0.022 C 
ENDBRANCH  32  34
ENDBRANCH  22  30
ENDBRANCH   3  22
TORSDOF 8
