REMARK  Name = ZINC40036506
REMARK  11 active torsions:
REMARK  status: ('A' for Active; 'I' for Inactive)
REMARK    1  A    between atoms: C_1  and  C_2
REMARK    2  A    between atoms: C_2  and  C_3
REMARK    3  A    between atoms: C_3  and  C_4
REMARK    4  A    between atoms: C_4  and  C_39
REMARK    5  A    between atoms: N_16  and  C_32
REMARK    6  A    between atoms: N_19  and  N_20
REMARK    7  A    between atoms: C_21  and  C_22
REMARK    8  A    between atoms: C_26  and  O_28
REMARK    9  A    between atoms: O_28  and  C_29
REMARK   10  A    between atoms: C_29  and  C_30
REMARK   11  A    between atoms: C_35  and  C_38
REMARK                            x       y       z     vdW  Elec       q    Type
REMARK                         _______ _______ _______ _____ _____    ______ ____
ROOT
ATOM      1  C   UNL     1       1.139  -1.240  -0.719  0.00  0.00    +0.004 C 
ATOM      2  C   UNL     1       1.457  -1.283  -2.211  0.00  0.00    +0.047 C 
ATOM      3  C   UNL     1       2.934  -1.468  -2.431  0.00  0.00    -0.037 A 
ATOM      4  C   UNL     1       3.565  -0.854  -3.494  0.00  0.00    +0.004 A 
ATOM      5  C   UNL     1       4.923  -1.032  -3.691  0.00  0.00    +0.000 A 
ATOM      6  C   UNL     1       5.658  -1.825  -2.829  0.00  0.00    +0.001 A 
ATOM      7  C   UNL     1       5.039  -2.446  -1.761  0.00  0.00    +0.010 A 
ATOM      8  C   UNL     1       3.674  -2.267  -1.558  0.00  0.00    +0.004 A 
ATOM      9  C   UNL     1       2.984  -2.910  -0.416  0.00  0.00    +0.084 A 
ATOM     10  C   UNL     1       1.753  -2.415  -0.012  0.00  0.00    +0.050 A 
ATOM     11  C   UNL     1       1.098  -3.030   1.063  0.00  0.00    +0.264 A 
ATOM     12  O   UNL     1       0.012  -2.624   1.446  0.00  0.00    -0.267 OA
ATOM     13  N   UNL     1       1.693  -4.081   1.667  0.00  0.00    -0.248 N 
ATOM     14  C   UNL     1       2.908  -4.525   1.233  0.00  0.00    +0.223 A 
ATOM     15  N   UNL     1       3.528  -3.951   0.222  0.00  0.00    -0.214 NA
ATOM     16  N   UNL     1       3.497  -5.591   1.863  0.00  0.00    -0.206 N 
ATOM     17  C   UNL     1      -0.379  -1.272  -0.526  0.00  0.00    +0.017 C 
ATOM     18  H   UNL     1       3.034  -6.042   2.587  0.00  0.00    +0.177 HD
ENDROOT
BRANCH  13  19
ATOM     19  C   UNL     1       1.061  -4.718   2.742  0.00  0.00    +0.053 A 
ATOM     20  C   UNL     1       1.290  -4.283   4.041  0.00  0.00    +0.026 A 
ATOM     21  C   UNL     1       0.665  -4.913   5.099  0.00  0.00    +0.005 A 
ATOM     22  C   UNL     1      -0.188  -5.976   4.866  0.00  0.00    -0.050 A 
ATOM     23  C   UNL     1      -0.418  -6.412   3.574  0.00  0.00    +0.005 A 
ATOM     24  C   UNL     1       0.199  -5.782   2.511  0.00  0.00    +0.026 A 
ATOM     25  C   UNL     1      -0.868  -6.661   6.023  0.00  0.00    +0.044 C 
ENDBRANCH  13  19
BRANCH  16  26
ATOM     26  N   UNL     1       4.765  -6.029   1.462  0.00  0.00    -0.188 NA
ATOM     27  C   UNL     1       5.322  -7.038   2.058  0.00  0.00    +0.138 C 
BRANCH  27  28
ATOM     28  C   UNL     1       6.658  -7.499   1.635  0.00  0.00    -0.002 A 
ATOM     29  C   UNL     1       7.328  -6.848   0.597  0.00  0.00    +0.010 A 
ATOM     30  C   UNL     1       8.578  -7.282   0.204  0.00  0.00    +0.004 A 
ATOM     31  C   UNL     1       9.170  -8.361   0.836  0.00  0.00    +0.046 A 
ATOM     32  C   UNL     1       8.511  -9.014   1.869  0.00  0.00    +0.122 A 
ATOM     33  C   UNL     1       7.259  -8.584   2.275  0.00  0.00    +0.055 A 
BRANCH  32  34
ATOM     34  O   UNL     1       9.098 -10.074   2.485  0.00  0.00    -0.488 OA
BRANCH  34  35
ATOM     35  C   UNL     1      10.392 -10.460   2.018  0.00  0.00    +0.256 C 
BRANCH  35  36
ATOM     36  C   UNL     1      10.880 -11.644   2.813  0.00  0.00    +0.006 C 
ATOM     37  C   UNL     1      11.432 -12.662   2.201  0.00  0.00    +0.007 C 
ENDBRANCH  35  36
ENDBRANCH  34  35
ENDBRANCH  32  34
ENDBRANCH  27  28
ENDBRANCH  16  26
BRANCH   1  38
ATOM     38  C   UNL     1       1.695   0.054  -0.122  0.00  0.00    +0.011 C 
BRANCH  38  40
ATOM     39  C   UNL     1       1.911   1.411   1.965  0.00  0.00    +0.004 C 
ATOM     40  C   UNL     1       1.354   0.117   1.369  0.00  0.00    -0.003 C 
ENDBRANCH  38  40
ENDBRANCH   1  38
TORSDOF 8
