REMARK  Name = ZINC38755243
REMARK  7 active torsions:
REMARK  status: ('A' for Active; 'I' for Inactive)
REMARK    1  A    between atoms: C_1  and  C_2
REMARK    2  A    between atoms: C_8  and  C_12
REMARK    3  A    between atoms: C_14  and  C_17
REMARK    4  A    between atoms: C_17  and  N_18
REMARK    5  A    between atoms: C_19  and  C_21
REMARK    6  A    between atoms: C_21  and  N_22
REMARK    7  A    between atoms: C_23  and  C_25
REMARK                            x       y       z     vdW  Elec       q    Type
REMARK                         _______ _______ _______ _____ _____    ______ ____
ROOT
ATOM      1  C   UNL     1       9.306  -1.498   2.266  0.00  0.00    +0.163 C 
ENDROOT
BRANCH   1   4
ATOM      2  C   UNL     1       5.682  -1.075   1.689  0.00  0.00    +0.168 A 
ATOM      3  C   UNL     1       6.949  -1.238   1.221  0.00  0.00    +0.077 A 
ATOM      4  C   UNL     1       7.811  -1.316   2.325  0.00  0.00    +0.101 A 
ATOM      5  N   UNL     1       7.098  -1.206   3.410  0.00  0.00    -0.081 NA
ATOM      6  O   UNL     1       5.742  -1.046   3.034  0.00  0.00    -0.354 OA
BRANCH   2  13
ATOM      7  C   UNL     1      -0.019   1.526   0.010  0.00  0.00    +0.052 C 
ATOM      8  C   UNL     1       0.002  -0.004   0.002  0.00  0.00    +0.175 C 
ATOM      9  C   UNL     1       0.775  -0.535  -1.228  0.00  0.00    +0.083 C 
ATOM     10  C   UNL     1       2.176  -0.702  -0.670  0.00  0.00    -0.002 A 
ATOM     11  C   UNL     1       3.399  -0.872  -1.284  0.00  0.00    +0.008 A 
ATOM     12  C   UNL     1       4.545  -0.995  -0.524  0.00  0.00    +0.012 A 
ATOM     13  C   UNL     1       4.459  -0.947   0.868  0.00  0.00    +0.023 A 
ATOM     14  C   UNL     1       3.221  -0.779   1.484  0.00  0.00    +0.057 A 
ATOM     15  C   UNL     1       2.069  -0.659   0.715  0.00  0.00    +0.125 A 
ATOM     16  O   UNL     1       0.769  -0.509   1.108  0.00  0.00    -0.488 OA
ENDBRANCH   2  13
ENDBRANCH   1   4
BRANCH   1  17
ATOM     17  N   UNL     1       9.960  -0.189   2.335  0.00  0.00    -0.308 N 
ATOM     18  C   UNL     1      11.305  -0.104   2.299  0.00  0.00    +0.231 C 
ATOM     19  O   UNL     1      11.973  -1.112   2.209  0.00  0.00    -0.274 OA
ATOM     20  H   UNL     1       9.425   0.617   2.407  0.00  0.00    +0.149 HD
BRANCH  18  21
ATOM     21  C   UNL     1      11.977   1.242   2.371  0.00  0.00    +0.200 C 
BRANCH  21  22
ATOM     22  N   UNL     1      13.431   1.066   2.313  0.00  0.00    -0.303 N 
ATOM     23  C   UNL     1      14.242   2.141   2.362  0.00  0.00    +0.244 C 
ATOM     24  O   UNL     1      13.769   3.257   2.454  0.00  0.00    -0.270 OA
ATOM     25  H   UNL     1      13.809   0.176   2.240  0.00  0.00    +0.150 HD
BRANCH  23  26
ATOM     26  C   UNL     1      15.709   1.963   2.304  0.00  0.00    +0.037 A 
ATOM     27  C   UNL     1      16.256   0.684   2.193  0.00  0.00    +0.013 A 
ATOM     28  C   UNL     1      17.625   0.525   2.139  0.00  0.00    +0.001 A 
ATOM     29  C   UNL     1      18.456   1.630   2.195  0.00  0.00    +0.000 A 
ATOM     30  C   UNL     1      17.920   2.901   2.305  0.00  0.00    +0.001 A 
ATOM     31  C   UNL     1      16.552   3.074   2.354  0.00  0.00    +0.013 A 
ENDBRANCH  23  26
ENDBRANCH  21  22
ENDBRANCH  18  21
ENDBRANCH   1  17
TORSDOF 6
