REMARK  Name = ZINC06443757
REMARK  10 active torsions:
REMARK  status: ('A' for Active; 'I' for Inactive)
REMARK    1  A    between atoms: C_1  and  C_2
REMARK    2  A    between atoms: C_12  and  C_14
REMARK    3  A    between atoms: C_14  and  C_16
REMARK    4  A    between atoms: C_14  and  N_68
REMARK    5  A    between atoms: N_20  and  C_21
REMARK    6  A    between atoms: C_21  and  C_22
REMARK    7  A    between atoms: C_21  and  C_23
REMARK    8  A    between atoms: C_21  and  C_24
REMARK    9  A    between atoms: N_27  and  C_30
REMARK   10  A    between atoms: C_34  and  C_36
REMARK                            x       y       z     vdW  Elec       q    Type
REMARK                         _______ _______ _______ _____ _____    ______ ____
ROOT
ATOM      1  C   UNL     1       0.125  -2.908   5.005  0.00  0.00    +0.039 C 
ENDROOT
BRANCH   1  13
ATOM      2  C   UNL     1       0.835   2.134   0.848  0.00  0.00    +0.046 C 
ATOM      3  C   UNL     1       0.707   0.653   0.603  0.00  0.00    -0.026 A 
ATOM      4  C   UNL     1       0.725   0.160  -0.684  0.00  0.00    +0.005 A 
ATOM      5  C   UNL     1       0.614  -1.203  -0.923  0.00  0.00    +0.001 A 
ATOM      6  C   UNL     1       0.472  -2.081   0.115  0.00  0.00    +0.010 A 
ATOM      7  C   UNL     1       0.446  -1.603   1.429  0.00  0.00    -0.001 A 
ATOM      8  C   UNL     1       0.564  -0.222   1.675  0.00  0.00    +0.052 A 
ATOM      9  N   UNL     1       0.538   0.243   2.972  0.00  0.00    -0.322 N 
ATOM     10  H   UNL     1       0.621   1.195   3.140  0.00  0.00    +0.169 HD
ATOM     11  C   UNL     1       0.400  -0.603   4.008  0.00  0.00    +0.251 A 
ATOM     12  O   UNL     1       0.381  -0.156   5.142  0.00  0.00    -0.268 OA
ATOM     13  C   UNL     1       0.277  -1.996   3.815  0.00  0.00    +0.011 A 
ATOM     14  C   UNL     1       0.296  -2.516   2.563  0.00  0.00    +0.017 A 
ENDBRANCH   1  13
BRANCH   1  20
ATOM     15  C   UNL     1       2.532  -2.873   5.271  0.00  0.00    -0.058 C 
ATOM     16  C   UNL     1       3.662  -2.553   6.253  0.00  0.00    +0.086 C 
ATOM     17  N   UNL     1       3.546  -3.428   7.429  0.00  0.00    -0.333 N 
ATOM     18  C   UNL     1       2.251  -3.239   8.097  0.00  0.00    +0.086 C 
ATOM     19  C   UNL     1       1.122  -3.558   7.115  0.00  0.00    -0.058 C 
ATOM     20  N   UNL     1       1.236  -2.657   5.949  0.00  0.00    +0.391 N 
ATOM     21  H   UNL     1       1.186  -1.684   6.272  0.00  0.00    -0.080 HD
BRANCH  17  22
ATOM     22  C   UNL     1       4.603  -3.215   8.317  0.00  0.00    +0.030 A 
ATOM     23  C   UNL     1       4.345  -2.867   9.637  0.00  0.00    +0.023 A 
ATOM     24  C   UNL     1       5.392  -2.662  10.513  0.00  0.00    +0.002 A 
ATOM     25  C   UNL     1       6.697  -2.792  10.075  0.00  0.00    +0.012 A 
ATOM     26  C   UNL     1       6.958  -3.133   8.761  0.00  0.00    +0.057 A 
ATOM     27  C   UNL     1       5.915  -3.345   7.880  0.00  0.00    +0.035 A 
BRANCH  26  28
ATOM     28  C   UNL     1       8.383  -3.273   8.288  0.00  0.00    +0.417 C 
ATOM     29  F   UNL     1       8.841  -2.039   7.814  0.00  0.00    -0.166 F 
ATOM     30  F   UNL     1       9.188  -3.692   9.353  0.00  0.00    -0.166 F 
ATOM     31  F   UNL     1       8.441  -4.219   7.259  0.00  0.00    -0.166 F 
ENDBRANCH  26  28
ENDBRANCH  17  22
ENDBRANCH   1  20
BRANCH   1  32
ATOM     32  C   UNL     1      -1.180  -2.615   5.699  0.00  0.00    +0.143 A 
ATOM     33  N   UNL     1      -1.479  -1.537   6.382  0.00  0.00    -0.115 NA
ATOM     34  N   UNL     1      -2.685  -1.662   6.816  0.00  0.00    -0.023 NA
ATOM     35  N   UNL     1      -3.162  -2.795   6.434  0.00  0.00    -0.043 NA
ATOM     36  N   UNL     1      -2.264  -3.412   5.742  0.00  0.00    -0.225 N 
BRANCH  36  37
ATOM     37  C   UNL     1      -2.398  -4.732   5.121  0.00  0.00    +0.059 C 
ATOM     38  C   UNL     1      -1.382  -5.693   5.741  0.00  0.00    +0.036 C 
ATOM     39  C   UNL     1      -3.813  -5.264   5.357  0.00  0.00    +0.036 C 
ATOM     40  C   UNL     1      -2.141  -4.616   3.618  0.00  0.00    +0.036 C 
ENDBRANCH  36  37
ENDBRANCH   1  32
TORSDOF 6
