REMARK  Name = ZINC09618474
REMARK  11 active torsions:
REMARK  status: ('A' for Active; 'I' for Inactive)
REMARK    1  A    between atoms: C_1  and  C_2
REMARK    2  A    between atoms: C_3  and  C_36
REMARK    3  A    between atoms: N_4  and  C_29
REMARK    4  A    between atoms: C_5  and  N_9
REMARK    5  A    between atoms: C_6  and  C_7
REMARK    6  A    between atoms: C_10  and  C_12
REMARK    7  A    between atoms: C_12  and  S_13
REMARK    8  A    between atoms: S_13  and  C_14
REMARK    9  A    between atoms: C_17  and  C_22
REMARK   10  A    between atoms: N_18  and  C_19
REMARK   11  A    between atoms: C_29  and  C_30
REMARK                            x       y       z     vdW  Elec       q    Type
REMARK                         _______ _______ _______ _____ _____    ______ ____
ROOT
ATOM      1  N   UNL     1      -1.172  -1.014  -0.976  0.00  0.00    -0.270 N 
ATOM      2  C   UNL     1      -0.759  -2.264  -0.689  0.00  0.00    +0.229 C 
ATOM      3  O   UNL     1       0.424  -2.529  -0.693  0.00  0.00    -0.275 OA
ATOM      4  H   UNL     1      -2.117  -0.797  -0.951  0.00  0.00    +0.156 HD
ENDROOT
BRANCH   1   9
ATOM      5  C   UNL     1       2.767   1.450  -2.964  0.00  0.00    +0.047 C 
ATOM      6  C   UNL     1       1.523   1.105  -2.187  0.00  0.00    -0.011 A 
ATOM      7  C   UNL     1       0.820   1.928  -1.393  0.00  0.00    +0.022 A 
ATOM      8  N   UNL     1      -0.243   1.247  -0.862  0.00  0.00    -0.329 N 
ATOM      9  C   UNL     1      -0.244  -0.037  -1.306  0.00  0.00    +0.123 A 
ATOM     10  C   UNL     1       0.846  -0.197  -2.149  0.00  0.00    +0.095 A 
ATOM     11  C   UNL     1       1.147   3.375  -1.128  0.00  0.00    +0.064 C 
BRANCH  10  12
ATOM     12  C   UNL     1       1.235  -1.391  -2.838  0.00  0.00    +0.103 C 
ATOM     13  N   UNL     1       1.543  -2.338  -3.384  0.00  0.00    -0.191 NA
ENDBRANCH  10  12
BRANCH   8  14
ATOM     14  C   UNL     1      -1.234   1.819   0.052  0.00  0.00    +0.154 C 
BRANCH  14  15
ATOM     15  C   UNL     1      -0.833   1.512   1.497  0.00  0.00    +0.138 C 
ATOM     16  C   UNL     1      -1.929   2.011   2.462  0.00  0.00    +0.035 C 
ATOM     17  C   UNL     1      -1.095   2.579   3.643  0.00  0.00    +0.031 C 
ATOM     18  C   UNL     1       0.139   3.135   2.890  0.00  0.00    +0.160 C 
ATOM     19  O   UNL     1       0.378   2.205   1.822  0.00  0.00    -0.375 OA
ENDBRANCH  14  15
ENDBRANCH   8  14
ENDBRANCH   1   9
BRANCH   2  20
ATOM     20  C   UNL     1      -1.769  -3.334  -0.362  0.00  0.00    +0.173 C 
BRANCH  20  21
ATOM     21  S   UNL     1      -0.911  -4.892  -0.025  0.00  0.00    -0.077 S 
BRANCH  21  22
ATOM     22  C   UNL     1      -2.290  -5.934   0.316  0.00  0.00    +0.193 A 
ATOM     23  N   UNL     1      -3.555  -5.579   0.309  0.00  0.00    -0.122 NA
ATOM     24  N   UNL     1      -4.298  -6.587   0.599  0.00  0.00    -0.128 NA
ATOM     25  C   UNL     1      -3.552  -7.645   0.818  0.00  0.00    +0.168 A 
ATOM     26  N   UNL     1      -2.243  -7.259   0.643  0.00  0.00    -0.299 N 
BRANCH  25  27
ATOM     27  C   UNL     1      -4.028  -8.996   1.183  0.00  0.00    +0.054 A 
ATOM     28  C   UNL     1      -3.533 -10.118   0.516  0.00  0.00    +0.014 A 
ATOM     29  C   UNL     1      -3.982 -11.376   0.862  0.00  0.00    +0.001 A 
ATOM     30  C   UNL     1      -4.920 -11.528   1.868  0.00  0.00    +0.003 A 
ATOM     31  C   UNL     1      -5.416 -10.422   2.534  0.00  0.00    +0.039 A 
ATOM     32  C   UNL     1      -4.972  -9.156   2.202  0.00  0.00    +0.134 A 
ATOM     33  F   UNL     1      -5.452  -8.076   2.857  0.00  0.00    -0.205 F 
ENDBRANCH  25  27
BRANCH  26  34
ATOM     34  C   UNL     1      -1.048  -8.095   0.780  0.00  0.00    +0.091 C 
ATOM     35  C   UNL     1       0.300  -7.384   0.914  0.00  0.00    +0.027 C 
ATOM     36  C   UNL     1      -0.057  -8.107  -0.387  0.00  0.00    +0.027 C 
ENDBRANCH  26  34
ENDBRANCH  21  22
ENDBRANCH  20  21
ENDBRANCH   2  20
TORSDOF 9
