REMARK  Name = ZINC31211830
REMARK  21 active torsions:
REMARK  status: ('A' for Active; 'I' for Inactive)
REMARK    1  A    between atoms: C_1  and  C_2
REMARK    2  A    between atoms: C_2  and  C_3
REMARK    3  A    between atoms: C_3  and  C_4
REMARK    4  A    between atoms: C_4  and  N_5
REMARK    5  A    between atoms: C_9  and  S_30
REMARK    6  A    between atoms: C_13  and  C_14
REMARK    7  A    between atoms: C_14  and  C_15
REMARK    8  A    between atoms: C_15  and  C_16
REMARK    9  A    between atoms: N_18  and  C_19
REMARK   10  A    between atoms: C_19  and  C_20
REMARK   11  A    between atoms: C_20  and  C_22
REMARK   12  A    between atoms: C_20  and  N_25
REMARK   13  A    between atoms: C_22  and  C_23
REMARK   14  A    between atoms: C_22  and  C_24
REMARK   15  A    between atoms: N_25  and  C_26
REMARK   16  A    between atoms: N_25  and  C_28
REMARK   17  A    between atoms: C_26  and  C_27
REMARK   18  A    between atoms: C_28  and  C_29
REMARK   19  A    between atoms: S_30  and  N_33
REMARK   20  A    between atoms: N_33  and  C_34
REMARK   21  A    between atoms: N_33  and  C_35
REMARK                            x       y       z     vdW  Elec       q    Type
REMARK                         _______ _______ _______ _____ _____    ______ ____
ROOT
ATOM      1  N   UNL     1      -0.644  -3.343   2.581  0.00  0.00    -0.327 N 
ATOM      2  C   UNL     1       0.003  -2.418   3.376  0.00  0.00    +0.069 A 
ATOM      3  C   UNL     1       1.319  -2.248   3.785  0.00  0.00    +0.030 A 
ATOM      4  C   UNL     1       1.647  -1.189   4.605  0.00  0.00    +0.030 A 
ATOM      5  C   UNL     1       0.672  -0.294   5.022  0.00  0.00    +0.108 A 
ATOM      6  C   UNL     1      -0.627  -0.446   4.630  0.00  0.00    +0.058 A 
ATOM      7  C   UNL     1      -0.984  -1.512   3.799  0.00  0.00    +0.091 A 
ATOM      8  N   UNL     1      -2.157  -1.921   3.252  0.00  0.00    -0.232 NA
ATOM      9  C   UNL     1      -1.958  -2.992   2.540  0.00  0.00    +0.111 A 
ENDROOT
BRANCH   5  10
ATOM     10  S   UNL     1       1.115   1.052   6.069  0.00  0.00    +0.060 S 
ATOM     11  O   UNL     1      -0.066   1.432   6.763  0.00  0.00    -0.153 OA
ATOM     12  O   UNL     1       2.305   0.668   6.744  0.00  0.00    -0.153 OA
BRANCH  10  13
ATOM     13  N   UNL     1       1.517   2.324   5.088  0.00  0.00    -0.183 NA
ATOM     14  C   UNL     1       0.487   3.276   4.663  0.00  0.00    +0.131 C 
ATOM     15  C   UNL     1       2.902   2.497   4.644  0.00  0.00    +0.131 C 
ENDBRANCH  10  13
ENDBRANCH   5  10
BRANCH   1  16
ATOM     16  C   UNL     1      -0.030  -4.489   1.906  0.00  0.00    +0.123 C 
BRANCH  16  17
ATOM     17  C   UNL     1       0.439  -4.069   0.512  0.00  0.00    +0.021 C 
BRANCH  17  19
ATOM     18  C   UNL     1       1.549  -4.847  -1.587  0.00  0.00    +0.004 C 
ATOM     19  C   UNL     1       1.080  -5.267  -0.193  0.00  0.00    -0.002 C 
ENDBRANCH  17  19
ENDBRANCH  16  17
ENDBRANCH   1  16
BRANCH   9  20
ATOM     20  C   UNL     1      -3.026  -3.735   1.780  0.00  0.00    +0.083 C 
BRANCH  20  21
ATOM     21  C   UNL     1      -3.133  -3.168   0.363  0.00  0.00    +0.103 C 
BRANCH  21  22
ATOM     22  C   UNL     1      -4.201  -3.910  -0.397  0.00  0.00    +0.213 C 
ATOM     23  O   UNL     1      -4.817  -4.805   0.142  0.00  0.00    -0.276 OA
ATOM     24  N   UNL     1      -4.473  -3.580  -1.675  0.00  0.00    -0.317 N 
ATOM     25  H   UNL     1      -3.914  -2.768  -2.163  0.00  0.00    +0.149 HD
BRANCH  24  26
ATOM     26  C   UNL     1      -5.511  -4.302  -2.413  0.00  0.00    +0.089 C 
BRANCH  26  27
ATOM     27  C   UNL     1      -5.497  -3.860  -3.878  0.00  0.00    -0.049 C 
BRANCH  27  28
ATOM     28  C   UNL     1      -6.620  -4.570  -4.636  0.00  0.00    -0.029 C 
ATOM     29  C   UNL     1      -6.638  -4.090  -6.089  0.00  0.00    +0.005 C 
ATOM     30  C   UNL     1      -6.383  -6.081  -4.602  0.00  0.00    +0.005 C 
ENDBRANCH  27  28
BRANCH  27  31
ATOM     31  N   UNL     1      -4.203  -4.207  -4.481  0.00  0.00    +0.382 N 
ATOM     32  H   UNL     1      -4.375  -4.429  -5.545  0.00  0.00    -0.081 HD
BRANCH  31  33
ATOM     33  C   UNL     1      -3.265  -3.080  -4.401  0.00  0.00    -0.082 C 
ATOM     34  C   UNL     1      -3.740  -1.956  -5.325  0.00  0.00    -0.017 C 
ENDBRANCH  31  33
BRANCH  31  35
ATOM     35  C   UNL     1      -3.636  -5.409  -3.855  0.00  0.00    -0.082 C 
ATOM     36  C   UNL     1      -2.543  -5.987  -4.757  0.00  0.00    -0.017 C 
ENDBRANCH  31  35
ENDBRANCH  27  31
ENDBRANCH  26  27
ENDBRANCH  24  26
ENDBRANCH  21  22
ENDBRANCH  20  21
ENDBRANCH   9  20
TORSDOF 14
