REMARK  Name = ZINC46703452
REMARK  7 active torsions:
REMARK  status: ('A' for Active; 'I' for Inactive)
REMARK    1  A    between atoms: C_1  and  O_2
REMARK    2  A    between atoms: O_2  and  C_3
REMARK    3  A    between atoms: C_5  and  C_13
REMARK    4  A    between atoms: C_7  and  O_11
REMARK    5  A    between atoms: C_8  and  O_9
REMARK    6  A    between atoms: O_9  and  C_10
REMARK    7  A    between atoms: O_11  and  C_12
REMARK                            x       y       z     vdW  Elec       q    Type
REMARK                         _______ _______ _______ _____ _____    ______ ____
ROOT
ATOM      1  C   UNL     1      -4.856   0.233   0.038  0.00  0.00    +0.142 A 
ATOM      2  N   UNL     1      -6.061  -0.416   0.052  0.00  0.00    -0.306 N 
ATOM      3  H   UNL     1      -6.080  -1.386   0.056  0.00  0.00    +0.170 HD
ATOM      4  C   UNL     1      -7.220   0.268   0.061  0.00  0.00    +0.260 A 
ATOM      5  O   UNL     1      -8.287  -0.324   0.074  0.00  0.00    -0.267 OA
ATOM      6  C   UNL     1      -7.183   1.700   0.057  0.00  0.00    +0.076 A 
ATOM      7  C   UNL     1      -8.317   2.630   0.061  0.00  0.00    -0.012 A 
ATOM      8  C   UNL     1      -8.004   3.952   0.063  0.00  0.00    +0.051 A 
ATOM      9  S   UNL     1      -6.237   4.024   0.042  0.00  0.00    -0.062 S 
ATOM     10  C   UNL     1      -5.904   2.280   0.043  0.00  0.00    +0.117 A 
ATOM     11  N   UNL     1      -4.797   1.549   0.040  0.00  0.00    -0.222 NA
ATOM     12  S   UNL     1      -9.137   5.295   0.088  0.00  0.00    -0.118 S 
ATOM     13  C   UNL     1     -10.720   4.442  -0.223  0.00  0.00    +0.075 C 
ATOM     14  C   UNL     1     -10.716   3.163   0.627  0.00  0.00    +0.016 C 
ATOM     15  C   UNL     1      -9.756   2.135   0.052  0.00  0.00    +0.038 C 
ENDROOT
BRANCH   1  18
ATOM     16  C   UNL     1      -1.201  -0.638   0.010  0.00  0.00    +0.166 A 
ATOM     17  C   UNL     1      -2.371   0.100   0.019  0.00  0.00    +0.061 A 
ATOM     18  C   UNL     1      -3.606  -0.552   0.028  0.00  0.00    +0.025 A 
ATOM     19  C   UNL     1      -3.657  -1.948   0.027  0.00  0.00    +0.061 A 
ATOM     20  C   UNL     1      -2.484  -2.681   0.017  0.00  0.00    +0.166 A 
ATOM     21  C   UNL     1      -1.254  -2.029   0.003  0.00  0.00    +0.204 A 
BRANCH  16  23
ATOM     22  C   UNL     1      -0.017   1.425   0.010  0.00  0.00    +0.277 C 
ATOM     23  O   UNL     1       0.002  -0.004   0.002  0.00  0.00    -0.491 OA
ENDBRANCH  16  23
BRANCH  21  24
ATOM     24  O   UNL     1      -0.103  -2.752  -0.012  0.00  0.00    -0.488 OA
ATOM     25  C   UNL     1       0.459  -3.104   1.254  0.00  0.00    +0.277 C 
ENDBRANCH  21  24
BRANCH  20  26
ATOM     26  O   UNL     1      -2.532  -4.040   0.016  0.00  0.00    -0.491 OA
ATOM     27  C   UNL     1      -3.828  -4.643   0.025  0.00  0.00    +0.277 C 
ENDBRANCH  20  26
ENDBRANCH   1  18
TORSDOF 4
