REMARK  Name = ZINC12833470
REMARK  13 active torsions:
REMARK  status: ('A' for Active; 'I' for Inactive)
REMARK    1  A    between atoms: C_1  and  C_2
REMARK    2  A    between atoms: C_2  and  O_3
REMARK    3  A    between atoms: O_3  and  C_4
REMARK    4  A    between atoms: C_4  and  C_6
REMARK    5  A    between atoms: C_6  and  N_7
REMARK    6  A    between atoms: C_8  and  C_12
REMARK    7  A    between atoms: C_12  and  N_57
REMARK    8  A    between atoms: C_13  and  C_14
REMARK    9  A    between atoms: C_13  and  N_57
REMARK   10  A    between atoms: C_19  and  C_20
REMARK   11  A    between atoms: C_19  and  N_57
REMARK   12  A    between atoms: C_24  and  O_32
REMARK   13  A    between atoms: O_32  and  C_33
REMARK                            x       y       z     vdW  Elec       q    Type
REMARK                         _______ _______ _______ _____ _____    ______ ____
ROOT
ATOM      1  N   UNL     1      -1.418  -1.267   2.183  0.00  0.00    +0.390 N 
ATOM      2  H   UNL     1      -0.406  -1.139   2.072  0.00  0.00    -0.080 HD
ENDROOT
BRANCH   1   3
ATOM      3  C   UNL     1      -2.119  -0.143   1.527  0.00  0.00    +0.001 C 
BRANCH   3   5
ATOM      4  N   UNL     1      -0.493   1.822   1.516  0.00  0.00    -0.220 N 
ATOM      5  C   UNL     1      -1.539   1.153   2.034  0.00  0.00    +0.136 A 
ATOM      6  N   UNL     1      -1.955   1.846   3.066  0.00  0.00    -0.115 NA
ATOM      7  N   UNL     1      -1.204   2.886   3.176  0.00  0.00    -0.023 NA
ATOM      8  N   UNL     1      -0.316   2.873   2.244  0.00  0.00    -0.043 NA
BRANCH   4   9
ATOM      9  C   UNL     1       0.300   1.429   0.348  0.00  0.00    +0.267 C 
BRANCH   9  10
ATOM     10  C   UNL     1      -0.311   2.020  -0.896  0.00  0.00    +0.329 C 
ATOM     11  O   UNL     1      -1.306   2.701  -0.816  0.00  0.00    -0.249 OA
BRANCH  10  12
ATOM     12  O   UNL     1       0.251   1.792  -2.093  0.00  0.00    -0.464 OA
BRANCH  12  14
ATOM     13  C   UNL     1       0.385   2.024  -4.514  0.00  0.00    +0.048 C 
ATOM     14  C   UNL     1      -0.392   2.393  -3.248  0.00  0.00    +0.229 C 
ENDBRANCH  12  14
ENDBRANCH  10  12
ENDBRANCH   9  10
ENDBRANCH   4   9
ENDBRANCH   3   5
ENDBRANCH   1   3
BRANCH   1  15
ATOM     15  C   UNL     1      -1.744  -1.294   3.624  0.00  0.00    -0.035 C 
BRANCH  15  16
ATOM     16  C   UNL     1      -0.766  -2.202   4.325  0.00  0.00    -0.027 A 
ATOM     17  C   UNL     1       0.479  -1.925   4.782  0.00  0.00    +0.009 A 
ATOM     18  C   UNL     1       1.203  -2.925   5.404  0.00  0.00    +0.008 A 
ATOM     19  C   UNL     1       0.649  -4.156   5.530  0.00  0.00    +0.045 A 
ATOM     20  S   UNL     1      -0.946  -3.924   4.761  0.00  0.00    -0.103 S 
ENDBRANCH  15  16
ENDBRANCH   1  15
BRANCH   1  21
ATOM     21  C   UNL     1      -1.813  -2.544   1.552  0.00  0.00    -0.036 C 
BRANCH  21  22
ATOM     22  C   UNL     1      -1.069  -2.689   0.249  0.00  0.00    +0.001 A 
ATOM     23  C   UNL     1       0.113  -3.353   0.216  0.00  0.00    +0.017 A 
ATOM     24  C   UNL     1       0.809  -3.480  -1.066  0.00  0.00    +0.002 A 
ATOM     25  C   UNL     1       2.029  -4.158  -1.161  0.00  0.00    +0.055 A 
ATOM     26  C   UNL     1       2.661  -4.255  -2.384  0.00  0.00    +0.121 A 
ATOM     27  C   UNL     1       2.089  -3.683  -3.518  0.00  0.00    +0.047 A 
ATOM     28  C   UNL     1       0.889  -3.012  -3.437  0.00  0.00    +0.030 A 
ATOM     29  C   UNL     1       0.235  -2.903  -2.214  0.00  0.00    +0.049 A 
ATOM     30  N   UNL     1      -0.969  -2.236  -2.112  0.00  0.00    -0.322 N 
ATOM     31  H   UNL     1      -1.363  -1.839  -2.904  0.00  0.00    +0.169 HD
ATOM     32  C   UNL     1      -1.602  -2.129  -0.931  0.00  0.00    +0.251 A 
ATOM     33  O   UNL     1      -2.664  -1.532  -0.879  0.00  0.00    -0.268 OA
BRANCH  26  34
ATOM     34  O   UNL     1       3.847  -4.912  -2.483  0.00  0.00    -0.495 OA
ATOM     35  C   UNL     1       4.447  -4.976  -3.778  0.00  0.00    +0.277 C 
ENDBRANCH  26  34
ENDBRANCH  21  22
ENDBRANCH   1  21
TORSDOF 11
