REMARK  Name = ZINC63757993
REMARK  4 active torsions:
REMARK  status: ('A' for Active; 'I' for Inactive)
REMARK    1  A    between atoms: C_1  and  O_2
REMARK    2  A    between atoms: O_2  and  C_3
REMARK    3  A    between atoms: C_3  and  C_5
REMARK    4  A    between atoms: C_7  and  O_32
REMARK                            x       y       z     vdW  Elec       q    Type
REMARK                         _______ _______ _______ _____ _____    ______ ____
ROOT
ATOM      1  C   UNL     1       0.657  -2.104  -1.120  0.00  0.00    +0.130 C 
ATOM      2  C   UNL     1       1.411  -2.647   0.096  0.00  0.00    +0.129 C 
ATOM      3  C   UNL     1       1.470  -4.174   0.018  0.00  0.00    +0.032 C 
ATOM      4  C   UNL     1       2.199  -4.590  -1.261  0.00  0.00    +0.007 C 
ATOM      5  C   UNL     1       1.444  -4.050  -2.477  0.00  0.00    +0.007 C 
ATOM      6  C   UNL     1       1.384  -2.520  -2.400  0.00  0.00    +0.011 C 
ATOM      7  C   UNL     1       2.813  -1.982  -2.379  0.00  0.00    +0.026 C 
ATOM      8  C   UNL     1       3.574  -2.437  -3.630  0.00  0.00    +0.083 C 
ATOM      9  C   UNL     1       5.022  -1.952  -3.477  0.00  0.00    +0.123 C 
ATOM     10  C   UNL     1       5.837  -2.594  -4.590  0.00  0.00    -0.036 C 
ATOM     11  C   UNL     1       6.455  -1.607  -5.222  0.00  0.00    -0.001 A 
ATOM     12  C   UNL     1       7.439  -1.605  -6.316  0.00  0.00    +0.010 A 
ATOM     13  C   UNL     1       7.863  -0.385  -6.740  0.00  0.00    +0.001 A 
ATOM     14  C   UNL     1       7.410   0.820  -6.192  0.00  0.00    +0.002 A 
ATOM     15  C   UNL     1       6.510   0.912  -5.180  0.00  0.00    +0.026 A 
ATOM     16  C   UNL     1       5.997  -0.305  -4.646  0.00  0.00    +0.043 A 
ATOM     17  N   UNL     1       5.148  -0.507  -3.663  0.00  0.00    -0.376 N 
ATOM     18  C   UNL     1       5.767  -4.078  -4.855  0.00  0.00    +0.049 C 
ATOM     19  C   UNL     1       4.269  -4.415  -4.916  0.00  0.00    +0.089 C 
ATOM     20  N   UNL     1       3.552  -3.902  -3.737  0.00  0.00    -0.297 NA
ATOM     21  C   UNL     1       2.179  -4.452  -3.754  0.00  0.00    +0.088 C 
ATOM     22  H   UNL     1       4.683   0.174  -3.153  0.00  0.00    +0.160 HD
ENDROOT
BRANCH   1  23
ATOM     23  C   UNL     1       0.598  -0.600  -1.043  0.00  0.00    +0.313 C 
ATOM     24  O   UNL     1       1.088   0.070  -1.921  0.00  0.00    -0.250 OA
BRANCH  23  26
ATOM     25  C   UNL     1      -0.017   1.425   0.010  0.00  0.00    +0.280 C 
ATOM     26  O   UNL     1       0.002  -0.004   0.002  0.00  0.00    -0.468 OA
ENDBRANCH  23  26
ENDBRANCH   1  23
BRANCH   2  27
ATOM     27  O   UNL     1       0.731  -2.257   1.291  0.00  0.00    -0.391 OA
ATOM     28  H   UNL     1       1.154  -2.567   2.103  0.00  0.00    +0.210 HD
ENDBRANCH   2  27
TORSDOF 3
