REMARK  Name = ZINC36494944
REMARK  19 active torsions:
REMARK  status: ('A' for Active; 'I' for Inactive)
REMARK    1  A    between atoms: C_1  and  C_2
REMARK    2  A    between atoms: C_5  and  C_9
REMARK    3  A    between atoms: C_6  and  C_8
REMARK    4  A    between atoms: C_9  and  C_11
REMARK    5  A    between atoms: C_9  and  N_22
REMARK    6  A    between atoms: N_13  and  C_14
REMARK    7  A    between atoms: C_14  and  C_15
REMARK    8  A    between atoms: C_14  and  C_16
REMARK    9  A    between atoms: C_14  and  C_17
REMARK   10  A    between atoms: C_17  and  C_18
REMARK   11  A    between atoms: C_18  and  C_19
REMARK   12  A    between atoms: C_18  and  C_20
REMARK   13  A    between atoms: C_18  and  C_21
REMARK   14  A    between atoms: N_22  and  C_23
REMARK   15  A    between atoms: C_23  and  C_24
REMARK   16  A    between atoms: C_29  and  C_31
REMARK   17  A    between atoms: C_31  and  C_33
REMARK   18  A    between atoms: C_31  and  O_39
REMARK   19  A    between atoms: O_39  and  C_40
REMARK                            x       y       z     vdW  Elec       q    Type
REMARK                         _______ _______ _______ _____ _____    ______ ____
ROOT
ATOM      1  C   UNL     1       1.399  -5.641  -0.001  0.00  0.00    +0.193 C 
ENDROOT
BRANCH   1   6
ATOM      2  C   UNL     1       3.353  -3.603  -5.043  0.00  0.00    +0.044 C 
ATOM      3  C   UNL     1       2.843  -4.135  -3.728  0.00  0.00    -0.050 A 
ATOM      4  C   UNL     1       3.582  -5.069  -3.027  0.00  0.00    +0.004 A 
ATOM      5  C   UNL     1       3.115  -5.556  -1.821  0.00  0.00    +0.006 A 
ATOM      6  C   UNL     1       1.909  -5.109  -1.316  0.00  0.00    -0.015 A 
ATOM      7  C   UNL     1       1.170  -4.174  -2.016  0.00  0.00    -0.045 A 
ATOM      8  C   UNL     1       1.640  -3.683  -3.220  0.00  0.00    +0.007 A 
ATOM      9  C   UNL     1      -0.145  -3.686  -1.465  0.00  0.00    +0.044 C 
ENDBRANCH   1   6
BRANCH   1  10
ATOM     10  C   UNL     1       2.564  -6.056   0.859  0.00  0.00    +0.239 C 
ATOM     11  O   UNL     1       2.954  -7.204   0.839  0.00  0.00    -0.273 OA
ATOM     12  N   UNL     1       3.174  -5.151   1.650  0.00  0.00    -0.308 N 
ATOM     13  H   UNL     1       2.808  -4.256   1.734  0.00  0.00    +0.149 HD
BRANCH  12  14
ATOM     14  C   UNL     1       4.388  -5.518   2.383  0.00  0.00    +0.030 C 
ATOM     15  C   UNL     1       4.093  -6.714   3.291  0.00  0.00    +0.031 C 
ATOM     16  C   UNL     1       5.490  -5.892   1.390  0.00  0.00    +0.031 C 
BRANCH  14  17
ATOM     17  C   UNL     1       4.848  -4.333   3.234  0.00  0.00    +0.031 C 
BRANCH  17  18
ATOM     18  C   UNL     1       4.556  -3.028   2.491  0.00  0.00    -0.036 C 
ATOM     19  C   UNL     1       3.092  -2.638   2.700  0.00  0.00    +0.010 C 
ATOM     20  C   UNL     1       5.461  -1.919   3.032  0.00  0.00    +0.010 C 
ATOM     21  C   UNL     1       4.824  -3.221   0.997  0.00  0.00    +0.010 C 
ENDBRANCH  17  18
ENDBRANCH  14  17
ENDBRANCH  12  14
ENDBRANCH   1  10
BRANCH   1  22
ATOM     22  N   UNL     1       0.535  -6.799  -0.245  0.00  0.00    -0.276 N 
ATOM     23  C   UNL     1       1.000  -7.850  -0.949  0.00  0.00    +0.250 C 
ATOM     24  O   UNL     1       2.097  -7.798  -1.464  0.00  0.00    -0.272 OA
BRANCH  22  25
ATOM     25  C   UNL     1      -0.834  -6.815   0.275  0.00  0.00    +0.183 C 
BRANCH  25  26
ATOM     26  C   UNL     1      -0.799  -6.799   1.782  0.00  0.00    +0.122 A 
ATOM     27  C   UNL     1      -0.717  -5.701   2.555  0.00  0.00    +0.046 A 
ATOM     28  C   UNL     1      -0.712  -6.146   3.897  0.00  0.00    +0.041 A 
ATOM     29  C   UNL     1      -0.792  -7.488   3.864  0.00  0.00    +0.195 A 
ATOM     30  O   UNL     1      -0.850  -7.878   2.580  0.00  0.00    -0.466 OA
ENDBRANCH  25  26
ENDBRANCH  22  25
BRANCH  23  31
ATOM     31  C   UNL     1       0.158  -9.091  -1.096  0.00  0.00    +0.233 C 
BRANCH  31  32
ATOM     32  C   UNL     1       0.153  -9.852   0.205  0.00  0.00    -0.010 A 
ATOM     33  C   UNL     1       1.289 -10.522   0.618  0.00  0.00    +0.006 A 
ATOM     34  C   UNL     1       1.284 -11.220   1.811  0.00  0.00    +0.000 A 
ATOM     35  C   UNL     1       0.144 -11.247   2.592  0.00  0.00    +0.000 A 
ATOM     36  C   UNL     1      -0.992 -10.575   2.179  0.00  0.00    +0.000 A 
ATOM     37  C   UNL     1      -0.986  -9.874   0.988  0.00  0.00    +0.006 A 
ENDBRANCH  31  32
BRANCH  31  38
ATOM     38  O   UNL     1       0.701  -9.916  -2.128  0.00  0.00    -0.366 OA
ATOM     39  C   UNL     1       0.177  -9.642  -3.429  0.00  0.00    +0.195 C 
ENDBRANCH  31  38
ENDBRANCH  23  31
ENDBRANCH   1  22
TORSDOF 11
