REMARK  Name = ZINC62587228
REMARK  7 active torsions:
REMARK  status: ('A' for Active; 'I' for Inactive)
REMARK    1  A    between atoms: C_1  and  C_2
REMARK    2  A    between atoms: C_5  and  C_27
REMARK    3  A    between atoms: C_6  and  S_9
REMARK    4  A    between atoms: S_9  and  N_12
REMARK    5  A    between atoms: C_15  and  N_18
REMARK    6  A    between atoms: C_19  and  C_21
REMARK    7  A    between atoms: C_23  and  C_26
REMARK                            x       y       z     vdW  Elec       q    Type
REMARK                         _______ _______ _______ _____ _____    ______ ____
ROOT
ATOM      1  N   UNL     1       1.003  -3.227   3.366  0.00  0.00    -0.176 NA
ATOM      2  C   UNL     1       1.661  -4.502   3.048  0.00  0.00    +0.111 C 
ATOM      3  C   UNL     1       2.031  -5.206   4.357  0.00  0.00    +0.039 C 
ATOM      4  C   UNL     1       2.872  -4.262   5.220  0.00  0.00    +0.076 C 
ATOM      5  C   UNL     1       2.055  -3.013   5.557  0.00  0.00    +0.039 C 
ATOM      6  C   UNL     1       1.688  -2.281   4.257  0.00  0.00    +0.111 C 
ENDROOT
BRANCH   4   7
ATOM      7  N   UNL     1       3.256  -4.944   6.458  0.00  0.00    -0.306 N 
ATOM      8  C   UNL     1       4.361  -4.557   7.126  0.00  0.00    +0.282 C 
ATOM      9  O   UNL     1       5.039  -3.642   6.700  0.00  0.00    -0.267 OA
ATOM     10  H   UNL     1       2.714  -5.673   6.798  0.00  0.00    +0.149 HD
BRANCH   8  11
ATOM     11  C   UNL     1       4.747  -5.244   8.373  0.00  0.00    +0.222 A 
ATOM     12  C   UNL     1       5.828  -4.955   9.147  0.00  0.00    +0.080 A 
ATOM     13  C   UNL     1       5.829  -5.840  10.238  0.00  0.00    +0.081 A 
ATOM     14  N   UNL     1       4.796  -6.627  10.127  0.00  0.00    -0.083 NA
ATOM     15  O   UNL     1       4.089  -6.266   8.954  0.00  0.00    -0.350 OA
ATOM     16  C   UNL     1       6.849  -5.875  11.346  0.00  0.00    +0.069 C 
ENDBRANCH   8  11
ENDBRANCH   4   7
BRANCH   1  17
ATOM     17  S   UNL     1      -0.481  -2.862   2.727  0.00  0.00    +0.063 S 
ATOM     18  O   UNL     1      -1.075  -1.910   3.599  0.00  0.00    -0.153 OA
ATOM     19  O   UNL     1      -1.103  -4.100   2.412  0.00  0.00    -0.153 OA
BRANCH  17  25
ATOM     20  C   UNL     1       0.266  -2.914  -2.448  0.00  0.00    +0.045 C 
ATOM     21  C   UNL     1       0.139  -2.119  -1.175  0.00  0.00    -0.029 A 
ATOM     22  C   UNL     1       0.243  -0.741  -1.208  0.00  0.00    +0.025 A 
ATOM     23  C   UNL     1       0.127  -0.010  -0.039  0.00  0.00    +0.046 A 
ATOM     24  C   UNL     1      -0.095  -0.659   1.163  0.00  0.00    -0.004 A 
ATOM     25  C   UNL     1      -0.199  -2.036   1.196  0.00  0.00    +0.128 A 
ATOM     26  C   UNL     1      -0.088  -2.767   0.026  0.00  0.00    +0.071 A 
ATOM     27 CL   UNL     1      -0.227  -4.497   0.066  0.00  0.00    -0.081 Cl
ATOM     28  C   UNL     1      -0.221   0.137   2.437  0.00  0.00    +0.047 C 
ATOM     29 CL   UNL     1       0.259   1.720  -0.080  0.00  0.00    -0.083 Cl
ENDBRANCH  17  25
ENDBRANCH   1  17
TORSDOF 4
