REMARK  Name = ZINC16436556
REMARK  14 active torsions:
REMARK  status: ('A' for Active; 'I' for Inactive)
REMARK    1  A    between atoms: C_1  and  C_2
REMARK    2  A    between atoms: C_2  and  C_3
REMARK    3  A    between atoms: C_3  and  N_4
REMARK    4  A    between atoms: N_4  and  C_5
REMARK    5  A    between atoms: C_5  and  C_6
REMARK    6  A    between atoms: N_8  and  C_9
REMARK    7  A    between atoms: C_10  and  C_23
REMARK    8  A    between atoms: C_11  and  C_22
REMARK    9  A    between atoms: N_13  and  C_14
REMARK   10  A    between atoms: C_17  and  O_20
REMARK   11  A    between atoms: O_20  and  C_21
REMARK   12  A    between atoms: N_31  and  C_32
REMARK   13  A    between atoms: C_35  and  C_39
REMARK   14  A    between atoms: C_37  and  C_38
REMARK                            x       y       z     vdW  Elec       q    Type
REMARK                         _______ _______ _______ _____ _____    ______ ____
ROOT
ATOM      1  C   UNL     1      -1.571   4.589   5.749  0.00  0.00    +0.236 C 
ATOM      2  O   UNL     1      -2.712   4.469   5.355  0.00  0.00    -0.274 OA
ATOM      3  N   UNL     1      -0.561   3.997   5.080  0.00  0.00    -0.268 N 
ATOM      4  H   UNL     1       0.341   4.031   5.434  0.00  0.00    +0.156 HD
ENDROOT
BRANCH   3   5
ATOM      5  C   UNL     1      -0.813   3.338   3.881  0.00  0.00    +0.137 A 
ATOM      6  C   UNL     1      -0.259   3.635   2.648  0.00  0.00    +0.045 A 
ATOM      7  C   UNL     1      -0.792   2.721   1.718  0.00  0.00    +0.070 A 
ATOM      8  N   UNL     1      -1.619   1.928   2.346  0.00  0.00    -0.169 NA
ATOM      9  N   UNL     1      -1.651   2.283   3.700  0.00  0.00    -0.218 N 
ATOM     10  C   UNL     1      -0.468   2.671   0.247  0.00  0.00    +0.068 C 
BRANCH   9  11
ATOM     11  C   UNL     1      -2.418   1.661   4.695  0.00  0.00    +0.068 A 
ATOM     12  C   UNL     1      -1.922   1.551   5.987  0.00  0.00    +0.031 A 
ATOM     13  C   UNL     1      -2.681   0.944   6.968  0.00  0.00    +0.048 A 
ATOM     14  C   UNL     1      -3.934   0.434   6.661  0.00  0.00    +0.120 A 
ATOM     15  C   UNL     1      -4.428   0.539   5.368  0.00  0.00    +0.048 A 
ATOM     16  C   UNL     1      -3.672   1.151   4.388  0.00  0.00    +0.031 A 
BRANCH  14  17
ATOM     17  O   UNL     1      -4.678  -0.168   7.626  0.00  0.00    -0.495 OA
ATOM     18  C   UNL     1      -4.108  -0.240   8.934  0.00  0.00    +0.277 C 
ENDBRANCH  14  17
ENDBRANCH   9  11
BRANCH   6  19
ATOM     19  C   UNL     1       0.715   4.715   2.359  0.00  0.00    -0.013 A 
ATOM     20  C   UNL     1       1.990   4.676   2.923  0.00  0.00    +0.008 A 
ATOM     21  C   UNL     1       2.895   5.681   2.646  0.00  0.00    +0.001 A 
ATOM     22  C   UNL     1       2.535   6.731   1.821  0.00  0.00    +0.000 A 
ATOM     23  C   UNL     1       1.270   6.778   1.263  0.00  0.00    +0.001 A 
ATOM     24  C   UNL     1       0.359   5.776   1.528  0.00  0.00    +0.008 A 
ENDBRANCH   6  19
ENDBRANCH   3   5
BRANCH   1  25
ATOM     25  C   UNL     1      -1.282   5.399   6.986  0.00  0.00    +0.205 C 
BRANCH  25  26
ATOM     26  N   UNL     1      -2.536   5.933   7.524  0.00  0.00    -0.277 N 
ATOM     27  C   UNL     1      -3.238   5.221   8.428  0.00  0.00    +0.307 C 
ATOM     28  O   UNL     1      -2.832   4.137   8.796  0.00  0.00    -0.252 OA
ATOM     29  N   UNL     1      -4.392   5.713   8.922  0.00  0.00    -0.269 N 
ATOM     30  H   UNL     1      -4.759   6.538   8.569  0.00  0.00    +0.156 HD
BRANCH  29  31
ATOM     31  C   UNL     1      -5.060   5.032   9.946  0.00  0.00    +0.038 A 
ATOM     32  C   UNL     1      -4.370   4.133  10.750  0.00  0.00    +0.024 A 
ATOM     33  C   UNL     1      -5.033   3.463  11.760  0.00  0.00    +0.005 A 
ATOM     34  C   UNL     1      -6.381   3.686  11.971  0.00  0.00    -0.050 A 
ATOM     35  C   UNL     1      -7.071   4.579  11.172  0.00  0.00    +0.008 A 
ATOM     36  C   UNL     1      -6.413   5.257  10.164  0.00  0.00    -0.029 A 
ATOM     37  C   UNL     1      -7.164   6.235   9.298  0.00  0.00    +0.045 C 
ATOM     38  C   UNL     1      -7.101   2.953  13.074  0.00  0.00    +0.044 C 
ENDBRANCH  29  31
BRANCH  26  39
ATOM     39  C   UNL     1      -3.026   7.240   7.080  0.00  0.00    +0.109 C 
BRANCH  39  41
ATOM     40  C   UNL     1      -4.438   8.423   5.392  0.00  0.00    +0.005 C 
ATOM     41  C   UNL     1      -3.926   7.058   5.856  0.00  0.00    +0.016 C 
ENDBRANCH  39  41
ENDBRANCH  26  39
ENDBRANCH  25  26
ENDBRANCH   1  25
TORSDOF 9
