REMARK  Name = ZINC20337015
REMARK  7 active torsions:
REMARK  status: ('A' for Active; 'I' for Inactive)
REMARK    1  A    between atoms: C_3  and  C_6
REMARK    2  A    between atoms: N_10  and  C_19
REMARK    3  A    between atoms: C_14  and  N_18
REMARK    4  A    between atoms: C_19  and  C_20
REMARK    5  A    between atoms: C_20  and  C_22
REMARK    6  A    between atoms: C_20  and  O_24
REMARK    7  A    between atoms: C_22  and  O_23
REMARK                            x       y       z     vdW  Elec       q    Type
REMARK                         _______ _______ _______ _____ _____    ______ ____
ROOT
ATOM      1  C   UNL     1       4.333   3.893   1.277  0.00  0.00    +0.097 C 
ATOM      2  C   UNL     1       3.229   3.233   0.842  0.00  0.00    +0.194 C 
ATOM      3  C   UNL     1       3.197   1.763   0.758  0.00  0.00    +0.286 C 
ATOM      4  O   UNL     1       4.219   1.115   0.621  0.00  0.00    -0.266 OA
ATOM      5  N   UNL     1       1.987   1.157   0.838  0.00  0.00    -0.259 N 
ATOM      6  C   UNL     1       0.843   1.952   1.008  0.00  0.00    +0.079 A 
ATOM      7  C   UNL     1      -0.362   1.367   1.367  0.00  0.00    +0.029 A 
ATOM      8  C   UNL     1      -1.489   2.149   1.532  0.00  0.00    +0.025 A 
ATOM      9  C   UNL     1      -1.417   3.524   1.349  0.00  0.00    +0.028 A 
ATOM     10  C   UNL     1      -0.213   4.115   0.989  0.00  0.00    +0.071 A 
ATOM     11  C   UNL     1       0.916   3.332   0.817  0.00  0.00    +0.152 A 
ATOM     12  O   UNL     1       2.099   3.905   0.462  0.00  0.00    -0.449 OA
ENDROOT
BRANCH   1  15
ATOM     13  C   UNL     1       7.332   2.635   2.847  0.00  0.00    +0.042 A 
ATOM     14  C   UNL     1       6.613   3.691   2.263  0.00  0.00    +0.049 A 
ATOM     15  C   UNL     1       5.386   3.178   1.902  0.00  0.00    +0.131 A 
ATOM     16  O   UNL     1       5.367   1.873   2.243  0.00  0.00    -0.463 OA
ATOM     17  C   UNL     1       6.537   1.544   2.812  0.00  0.00    +0.195 A 
ENDBRANCH   1  15
BRANCH   9  18
ATOM     18  N   UNL     1      -2.558   4.313   1.522  0.00  0.00    -0.358 N 
ATOM     19  H   UNL     1      -2.501   5.402   1.377  0.00  0.00    +0.142 HD
ATOM     20  H   UNL     1      -3.513   3.845   1.804  0.00  0.00    +0.142 HD
ENDBRANCH   9  18
BRANCH   5  21
ATOM     21  C   UNL     1       1.876  -0.301   0.749  0.00  0.00    +0.147 C 
BRANCH  21  22
ATOM     22  C   UNL     1       1.693  -0.710  -0.714  0.00  0.00    +0.157 C 
BRANCH  22  23
ATOM     23  O   UNL     1       2.869  -0.375  -1.454  0.00  0.00    -0.388 OA
ATOM     24  H   UNL     1       2.923  -0.595  -2.530  0.00  0.00    +0.210 HD
ENDBRANCH  22  23
BRANCH  22  25
ATOM     25  C   UNL     1       1.452  -2.219  -0.795  0.00  0.00    +0.188 C 
BRANCH  25  26
ATOM     26  O   UNL     1       1.165  -2.583  -2.147  0.00  0.00    -0.392 OA
ATOM     27  H   UNL     1       0.963  -3.634  -2.402  0.00  0.00    +0.210 HD
ENDBRANCH  25  26
ENDBRANCH  22  25
ENDBRANCH  21  22
ENDBRANCH   5  21
TORSDOF 7
