REMARK  Name = ZINC64188276
REMARK  11 active torsions:
REMARK  status: ('A' for Active; 'I' for Inactive)
REMARK    1  A    between atoms: C_1  and  C_2
REMARK    2  A    between atoms: C_2  and  O_3
REMARK    3  A    between atoms: O_3  and  C_4
REMARK    4  A    between atoms: C_11  and  C_38
REMARK    5  A    between atoms: C_12  and  C_15
REMARK    6  A    between atoms: N_17  and  C_18
REMARK    7  A    between atoms: C_18  and  C_19
REMARK    8  A    between atoms: C_19  and  C_21
REMARK    9  A    between atoms: C_19  and  C_29
REMARK   10  A    between atoms: C_24  and  O_27
REMARK   11  A    between atoms: O_27  and  C_28
REMARK                            x       y       z     vdW  Elec       q    Type
REMARK                         _______ _______ _______ _____ _____    ______ ____
ROOT
ATOM      1  C   UNL     1      -0.184 -11.718   0.803  0.00  0.00    +0.117 C 
ENDROOT
BRANCH   1   4
ATOM      2  C   UNL     1      -0.061  -9.285   0.856  0.00  0.00    +0.247 C 
ATOM      3  O   UNL     1      -1.056  -9.249   0.158  0.00  0.00    -0.270 OA
ATOM      4  N   UNL     1       0.454 -10.472   1.234  0.00  0.00    -0.310 N 
ATOM      5  H   UNL     1       1.248 -10.501   1.790  0.00  0.00    +0.149 HD
BRANCH   2  14
ATOM      6  C   UNL     1       0.802  -1.823   1.306  0.00  0.00    +0.234 A 
ATOM      7  C   UNL     1       1.458  -2.354   2.414  0.00  0.00    +0.072 A 
ATOM      8  C   UNL     1       1.543  -3.732   2.519  0.00  0.00    +0.055 A 
ATOM      9  C   UNL     1       0.967  -4.502   1.510  0.00  0.00    +0.176 A 
ATOM     10  N   UNL     1       0.363  -3.909   0.493  0.00  0.00    -0.126 NA
ATOM     11  N   UNL     1       0.280  -2.632   0.399  0.00  0.00    -0.110 NA
ATOM     12  N   UNL     1       1.027  -5.899   1.572  0.00  0.00    -0.216 N 
ATOM     13  C   UNL     1       0.169  -6.750   0.981  0.00  0.00    +0.056 A 
ATOM     14  C   UNL     1       0.582  -8.031   1.289  0.00  0.00    +0.077 A 
ATOM     15  C   UNL     1       1.736  -7.915   2.096  0.00  0.00    +0.148 A 
ATOM     16  N   UNL     1       1.995  -6.646   2.253  0.00  0.00    -0.172 NA
ATOM     17  C   UNL     1      -1.024  -6.375   0.140  0.00  0.00    +0.066 C 
BRANCH   6  18
ATOM     18  O   UNL     1       0.693  -0.477   1.160  0.00  0.00    -0.476 OA
BRANCH  18  20
ATOM     19  C   UNL     1      -0.019   1.526   0.010  0.00  0.00    +0.048 C 
ATOM     20  C   UNL     1       0.002  -0.004   0.002  0.00  0.00    +0.227 C 
ENDBRANCH  18  20
ENDBRANCH   6  18
ENDBRANCH   2  14
ENDBRANCH   1   4
BRANCH   1  21
ATOM     21  C   UNL     1       0.593 -12.910   1.365  0.00  0.00    +0.064 C 
BRANCH  21  22
ATOM     22  C   UNL     1       0.495 -12.910   2.869  0.00  0.00    -0.033 C 
ATOM     23  C   UNL     1       1.517 -12.824   3.750  0.00  0.00    -0.000 A 
ATOM     24  C   UNL     1       2.970 -12.710   3.580  0.00  0.00    +0.010 A 
ATOM     25  C   UNL     1       3.756 -12.642   4.679  0.00  0.00    +0.001 A 
ATOM     26  C   UNL     1       3.219 -12.679   5.973  0.00  0.00    +0.002 A 
ATOM     27  C   UNL     1       1.894 -12.782   6.210  0.00  0.00    +0.026 A 
ATOM     28  C   UNL     1       0.974 -12.860   5.127  0.00  0.00    +0.043 A 
ATOM     29  N   UNL     1      -0.332 -12.964   5.098  0.00  0.00    -0.380 N 
ATOM     30  C   UNL     1      -0.767 -13.000   3.697  0.00  0.00    +0.145 C 
ATOM     31  H   UNL     1      -0.914 -13.007   5.873  0.00  0.00    +0.160 HD
ENDBRANCH  21  22
BRANCH  21  32
ATOM     32  C   UNL     1       0.011 -14.190   0.823  0.00  0.00    -0.038 A 
ATOM     33  C   UNL     1      -1.314 -14.503   1.067  0.00  0.00    +0.008 A 
ATOM     34  C   UNL     1      -1.850 -15.676   0.572  0.00  0.00    +0.046 A 
ATOM     35  C   UNL     1      -1.058 -16.540  -0.171  0.00  0.00    +0.120 A 
ATOM     36  C   UNL     1       0.270 -16.223  -0.415  0.00  0.00    +0.046 A 
ATOM     37  C   UNL     1       0.800 -15.046   0.078  0.00  0.00    +0.008 A 
BRANCH  35  38
ATOM     38  O   UNL     1      -1.583 -17.695  -0.659  0.00  0.00    -0.495 OA
ATOM     39  C   UNL     1      -0.710 -18.536  -1.415  0.00  0.00    +0.277 C 
ENDBRANCH  35  38
ENDBRANCH  21  32
ENDBRANCH   1  21
TORSDOF 8
