REMARK  Name = ZINC12294054
REMARK  11 active torsions:
REMARK  status: ('A' for Active; 'I' for Inactive)
REMARK    1  A    between atoms: C_1  and  C_2
REMARK    2  A    between atoms: C_3  and  C_31
REMARK    3  A    between atoms: C_4  and  C_23
REMARK    4  A    between atoms: C_10  and  C_11
REMARK    5  A    between atoms: C_14  and  N_17
REMARK    6  A    between atoms: C_26  and  O_29
REMARK    7  A    between atoms: O_29  and  C_30
REMARK    8  A    between atoms: C_31  and  O_33
REMARK    9  A    between atoms: O_33  and  C_34
REMARK   10  A    between atoms: C_34  and  C_35
REMARK   11  A    between atoms: C_34  and  C_36
REMARK                            x       y       z     vdW  Elec       q    Type
REMARK                         _______ _______ _______ _____ _____    ______ ____
ROOT
ATOM      1  C   UNL     1       3.756   3.492   0.824  0.00  0.00    +0.066 C 
ATOM      2  C   UNL     1       2.464   4.263   0.747  0.00  0.00    +0.053 C 
ATOM      3  C   UNL     1       1.282   3.633   1.020  0.00  0.00    +0.085 C 
ATOM      4  C   UNL     1       0.008   4.440   0.926  0.00  0.00    +0.162 C 
ATOM      5  N   UNL     1       0.138   5.876   0.550  0.00  0.00    -0.275 N 
ATOM      6  C   UNL     1      -0.869   6.749   0.420  0.00  0.00    +0.268 A 
ATOM      7  O   UNL     1      -2.022   6.411   0.615  0.00  0.00    -0.266 OA
ATOM      8  C   UNL     1      -0.539   8.130   0.034  0.00  0.00    +0.081 A 
ATOM      9  C   UNL     1      -1.362   9.191  -0.162  0.00  0.00    +0.028 C 
ATOM     10  S   UNL     1       1.238   8.031  -0.108  0.00  0.00    -0.046 S 
ATOM     11  C   UNL     1       1.423   6.310   0.318  0.00  0.00    +0.178 A 
ATOM     12  N   UNL     1       2.482   5.548   0.414  0.00  0.00    -0.228 NA
ENDROOT
BRANCH   9  13
ATOM     13  C   UNL     1      -2.819   8.999  -0.167  0.00  0.00    -0.024 A 
ATOM     14  C   UNL     1      -3.382   7.899  -0.823  0.00  0.00    +0.010 A 
ATOM     15  C   UNL     1      -4.750   7.724  -0.818  0.00  0.00    +0.033 A 
ATOM     16  C   UNL     1      -5.566   8.639  -0.176  0.00  0.00    +0.126 A 
ATOM     17  C   UNL     1      -5.017   9.733   0.471  0.00  0.00    +0.033 A 
ATOM     18  C   UNL     1      -3.651   9.919   0.481  0.00  0.00    +0.010 A 
BRANCH  16  19
ATOM     19  N   UNL     1      -7.034   8.447  -0.181  0.00  0.00    +0.056 N 
ATOM     20  O   UNL     1      -7.755   9.250   0.383  0.00  0.00    -0.126 OA
ATOM     21  O   UNL     1      -7.520   7.486  -0.750  0.00  0.00    -0.126 OA
ENDBRANCH  16  19
ENDBRANCH   9  13
BRANCH   4  22
ATOM     22  C   UNL     1      -0.891   3.772  -0.083  0.00  0.00    -0.020 A 
ATOM     23  C   UNL     1      -0.684   3.978  -1.435  0.00  0.00    +0.009 A 
ATOM     24  C   UNL     1      -1.502   3.362  -2.361  0.00  0.00    +0.046 A 
ATOM     25  C   UNL     1      -2.540   2.545  -1.935  0.00  0.00    +0.120 A 
ATOM     26  C   UNL     1      -2.748   2.345  -0.578  0.00  0.00    +0.046 A 
ATOM     27  C   UNL     1      -1.923   2.958   0.345  0.00  0.00    +0.009 A 
BRANCH  25  28
ATOM     28  O   UNL     1      -3.350   1.943  -2.845  0.00  0.00    -0.495 OA
ATOM     29  C   UNL     1      -3.076   2.195  -4.224  0.00  0.00    +0.277 C 
ENDBRANCH  25  28
ENDBRANCH   4  22
BRANCH   3  30
ATOM     30  C   UNL     1       1.253   2.273   1.372  0.00  0.00    +0.339 C 
ATOM     31  O   UNL     1       2.275   1.612   1.334  0.00  0.00    -0.245 OA
BRANCH  30  32
ATOM     32  O   UNL     1       0.091   1.700   1.754  0.00  0.00    -0.459 OA
BRANCH  32  33
ATOM     33  C   UNL     1       0.134   0.314   2.099  0.00  0.00    +0.171 C 
ATOM     34  C   UNL     1      -0.937   0.016   3.150  0.00  0.00    +0.052 C 
ATOM     35  C   UNL     1      -0.129  -0.531   0.850  0.00  0.00    +0.052 C 
ENDBRANCH  32  33
ENDBRANCH  30  32
ENDBRANCH   3  30
TORSDOF 7
