REMARK  Name = ZINC44784265
REMARK  5 active torsions:
REMARK  status: ('A' for Active; 'I' for Inactive)
REMARK    1  A    between atoms: C_1  and  N_2
REMARK    2  A    between atoms: N_2  and  C_3
REMARK    3  A    between atoms: C_9  and  C_11
REMARK    4  A    between atoms: C_11  and  C_18
REMARK    5  A    between atoms: N_19  and  O_20
REMARK                            x       y       z     vdW  Elec       q    Type
REMARK                         _______ _______ _______ _____ _____    ______ ____
ROOT
ATOM      1  C   UNL     1       0.020   0.173  -2.428  0.00  0.00    +0.105 C 
ATOM      2  C   UNL     1      -1.105   1.144  -2.663  0.00  0.00    +0.024 C 
ATOM      3  C   UNL     1      -2.319   0.869  -1.756  0.00  0.00    +0.001 C 
ATOM      4  C   UNL     1      -2.639  -0.633  -1.624  0.00  0.00    +0.000 C 
ATOM      5  C   UNL     1      -2.522  -1.363  -2.934  0.00  0.00    +0.000 C 
ATOM      6  C   UNL     1      -1.105  -1.966  -3.033  0.00  0.00    +0.001 C 
ATOM      7  C   UNL     1      -0.112  -0.984  -3.440  0.00  0.00    +0.024 C 
ENDROOT
BRANCH   1   8
ATOM      8  C   UNL     1       1.343   0.868  -2.623  0.00  0.00    +0.147 C 
ATOM      9  N   UNL     1       2.116   0.523  -3.600  0.00  0.00    -0.076 NA
ATOM     10  N   UNL     1       1.728   1.870  -1.761  0.00  0.00    -0.343 N 
ATOM     11  H   UNL     1       1.187   2.074  -0.982  0.00  0.00    +0.144 HD
ATOM     12  H   UNL     1       2.541   2.371  -1.932  0.00  0.00    +0.144 HD
BRANCH   9  13
ATOM     13  O   UNL     1       3.359   1.176  -3.783  0.00  0.00    -0.408 OA
ATOM     14  H   UNL     1       3.866   0.851  -4.539  0.00  0.00    +0.328 HD
ENDBRANCH   9  13
ENDBRANCH   1   8
BRANCH   1  17
ATOM     15  C   UNL     1       1.612  -2.034  -1.626  0.00  0.00    +0.132 C 
ATOM     16  N   UNL     1       0.658  -1.454  -0.678  0.00  0.00    -0.301 N 
ATOM     17  C   UNL     1      -0.064  -0.371  -1.025  0.00  0.00    +0.229 C 
ATOM     18  O   UNL     1      -0.781   0.168  -0.208  0.00  0.00    -0.275 OA
BRANCH  16  19
ATOM     19  C   UNL     1       0.489  -2.053   0.649  0.00  0.00    +0.076 C 
ATOM     20  C   UNL     1       1.822  -2.019   1.398  0.00  0.00    +0.022 C 
ATOM     21  C   UNL     1       1.645  -2.644   2.783  0.00  0.00    +0.002 C 
ATOM     22  C   UNL     1       1.182  -4.094   2.633  0.00  0.00    +0.000 C 
ATOM     23  C   UNL     1      -0.152  -4.129   1.884  0.00  0.00    +0.002 C 
ATOM     24  C   UNL     1       0.025  -3.503   0.498  0.00  0.00    +0.022 C 
ENDBRANCH  16  19
ENDBRANCH   1  17
TORSDOF 4
