REMARK  Name = ZINC14605463
REMARK  10 active torsions:
REMARK  status: ('A' for Active; 'I' for Inactive)
REMARK    1  A    between atoms: C_1  and  C_2
REMARK    2  A    between atoms: C_5  and  C_8
REMARK    3  A    between atoms: C_13  and  C_17
REMARK    4  A    between atoms: C_13  and  C_18
REMARK    5  A    between atoms: N_26  and  C_27
REMARK    6  A    between atoms: C_27  and  C_28
REMARK    7  A    between atoms: N_30  and  C_31
REMARK    8  A    between atoms: C_31  and  C_32
REMARK    9  A    between atoms: C_32  and  C_33
REMARK   10  A    between atoms: C_32  and  C_34
REMARK                            x       y       z     vdW  Elec       q    Type
REMARK                         _______ _______ _______ _____ _____    ______ ____
ROOT
ATOM      1  C   UNL     1      -0.592   2.994   1.345  0.00  0.00    +0.139 C 
ATOM      2  C   UNL     1      -0.953   3.521   2.715  0.00  0.00    +0.037 C 
ATOM      3  C   UNL     1      -1.571   2.837   3.693  0.00  0.00    +0.017 C 
ATOM      4  C   UNL     1      -1.842   3.477   5.042  0.00  0.00    +0.058 C 
ATOM      5  C   UNL     1      -0.754   4.501   5.362  0.00  0.00    -0.023 C 
ATOM      6  C   UNL     1      -0.762   5.554   4.247  0.00  0.00    +0.086 C 
ATOM      7  C   UNL     1      -0.554   4.861   2.934  0.00  0.00    +0.163 C 
ATOM      8  O   UNL     1      -0.024   5.471   2.026  0.00  0.00    -0.292 OA
ATOM      9  C   UNL     1       0.611   3.809   5.411  0.00  0.00    +0.011 C 
ATOM     10  C   UNL     1      -1.048   5.167   6.707  0.00  0.00    +0.011 C 
ATOM     11  N   UNL     1      -2.008   1.557   3.562  0.00  0.00    -0.316 N 
ATOM     12  C   UNL     1      -2.693   1.096   2.440  0.00  0.00    +0.052 A 
ATOM     13  C   UNL     1      -4.002   0.650   2.516  0.00  0.00    +0.025 A 
ATOM     14  C   UNL     1      -4.622   0.173   1.373  0.00  0.00    +0.002 A 
ATOM     15  C   UNL     1      -3.937   0.145   0.172  0.00  0.00    +0.002 A 
ATOM     16  C   UNL     1      -2.632   0.599   0.097  0.00  0.00    +0.025 A 
ATOM     17  C   UNL     1      -2.010   1.085   1.241  0.00  0.00    +0.052 A 
ATOM     18  N   UNL     1      -0.707   1.563   1.189  0.00  0.00    -0.308 N 
ATOM     19  H   UNL     1      -1.836   0.934   4.285  0.00  0.00    +0.152 HD
ENDROOT
BRANCH   1  24
ATOM     20  C   UNL     1       4.860   4.518   0.186  0.00  0.00    +0.044 C 
ATOM     21  C   UNL     1       3.438   4.121   0.488  0.00  0.00    -0.050 A 
ATOM     22  C   UNL     1       3.177   3.178   1.465  0.00  0.00    +0.004 A 
ATOM     23  C   UNL     1       1.873   2.814   1.742  0.00  0.00    +0.006 A 
ATOM     24  C   UNL     1       0.830   3.392   1.043  0.00  0.00    -0.023 A 
ATOM     25  C   UNL     1       1.092   4.331   0.063  0.00  0.00    +0.006 A 
ATOM     26  C   UNL     1       2.396   4.699  -0.210  0.00  0.00    +0.004 A 
ENDBRANCH   1  24
BRANCH  18  27
ATOM     27  C   UNL     1      -0.028   1.110  -0.032  0.00  0.00    +0.201 C 
BRANCH  27  28
ATOM     28  C   UNL     1       0.139  -0.387   0.012  0.00  0.00    +0.230 C 
ATOM     29  O   UNL     1      -0.268  -1.015   0.967  0.00  0.00    -0.274 OA
ATOM     30  N   UNL     1       0.740  -1.028  -1.010  0.00  0.00    -0.314 N 
ATOM     31  H   UNL     1       1.065  -0.526  -1.773  0.00  0.00    +0.149 HD
BRANCH  30  32
ATOM     32  C   UNL     1       0.903  -2.484  -0.967  0.00  0.00    +0.107 C 
BRANCH  32  33
ATOM     33  C   UNL     1       1.610  -2.955  -2.239  0.00  0.00    -0.000 C 
ATOM     34  C   UNL     1       3.031  -2.390  -2.272  0.00  0.00    +0.009 C 
ATOM     35  C   UNL     1       1.668  -4.484  -2.253  0.00  0.00    +0.009 C 
ENDBRANCH  32  33
ENDBRANCH  30  32
ENDBRANCH  27  28
ENDBRANCH  18  27
TORSDOF 5
