REMARK  Name = ZINC39675517
REMARK  11 active torsions:
REMARK  status: ('A' for Active; 'I' for Inactive)
REMARK    1  A    between atoms: C_1  and  C_2
REMARK    2  A    between atoms: C_4  and  C_8
REMARK    3  A    between atoms: N_6  and  C_7
REMARK    4  A    between atoms: C_12  and  C_21
REMARK    5  A    between atoms: N_23  and  C_24
REMARK    6  A    between atoms: C_24  and  C_26
REMARK    7  A    between atoms: C_24  and  C_27
REMARK    8  A    between atoms: C_27  and  C_28
REMARK    9  A    between atoms: C_28  and  C_29
REMARK   10  A    between atoms: C_32  and  O_35
REMARK   11  A    between atoms: O_35  and  C_36
REMARK                            x       y       z     vdW  Elec       q    Type
REMARK                         _______ _______ _______ _____ _____    ______ ____
ROOT
ATOM      1  C   UNL     1       0.172  -3.189  -1.103  0.00  0.00    +0.267 C 
ATOM      2  O   UNL     1       0.205  -3.013  -2.305  0.00  0.00    -0.268 OA
ATOM      3  N   UNL     1       0.146  -4.442  -0.606  0.00  0.00    -0.295 N 
ATOM      4  C   UNL     1       0.099  -4.854   0.817  0.00  0.00    +0.121 C 
ATOM      5  C   UNL     1      -0.861  -6.065   0.841  0.00  0.00    +0.100 C 
ATOM      6  C   UNL     1      -0.816  -6.629  -0.589  0.00  0.00    -0.004 C 
ATOM      7  C   UNL     1       0.151  -5.719  -1.360  0.00  0.00    +0.115 C 
ATOM      8  C   UNL     1      -0.296  -8.063  -0.576  0.00  0.00    -0.010 C 
ATOM      9  C   UNL     1      -0.316  -8.622  -2.002  0.00  0.00    -0.082 C 
ATOM     10  N   UNL     1      -1.686  -8.583  -2.526  0.00  0.00    +0.379 N 
ATOM     11  C   UNL     1      -2.145  -7.192  -2.622  0.00  0.00    -0.082 C 
ATOM     12  C   UNL     1      -2.203  -6.573  -1.223  0.00  0.00    -0.010 C 
ATOM     13  H   UNL     1      -1.707  -9.007  -3.441  0.00  0.00    -0.086 HD
ATOM     14  H   UNL     1      -2.296  -9.095  -1.906  0.00  0.00    -0.086 HD
ENDROOT
BRANCH   1  18
ATOM     15  C   UNL     1       0.175   1.524   0.761  0.00  0.00    +0.065 C 
ATOM     16  C   UNL     1       0.163   0.025   0.610  0.00  0.00    +0.037 A 
ATOM     17  C   UNL     1       0.185  -0.665  -0.555  0.00  0.00    +0.057 A 
ATOM     18  C   UNL     1       0.161  -2.031  -0.186  0.00  0.00    +0.147 A 
ATOM     19  N   UNL     1       0.127  -2.073   1.131  0.00  0.00    -0.167 NA
ATOM     20  N   UNL     1       0.132  -0.881   1.610  0.00  0.00    -0.271 N 
ATOM     21  C   UNL     1       0.105  -0.552   3.038  0.00  0.00    +0.172 C 
ENDBRANCH   1  18
BRANCH   5  22
ATOM     22  C   UNL     1      -2.258  -5.621   1.189  0.00  0.00    +0.218 C 
ATOM     23  O   UNL     1      -2.640  -4.516   0.868  0.00  0.00    -0.275 OA
ATOM     24  N   UNL     1      -3.083  -6.452   1.856  0.00  0.00    -0.312 N 
ATOM     25  H   UNL     1      -2.777  -7.336   2.113  0.00  0.00    +0.149 HD
BRANCH  24  26
ATOM     26  C   UNL     1      -4.441  -6.020   2.195  0.00  0.00    +0.070 C 
ATOM     27  C   UNL     1      -4.414  -5.231   3.505  0.00  0.00    +0.028 C 
BRANCH  26  28
ATOM     28  C   UNL     1      -5.341  -7.247   2.357  0.00  0.00    +0.026 C 
BRANCH  28  29
ATOM     29  C   UNL     1      -5.468  -7.967   1.013  0.00  0.00    +0.037 C 
BRANCH  29  30
ATOM     30  C   UNL     1      -6.354  -9.176   1.172  0.00  0.00    -0.047 A 
ATOM     31  C   UNL     1      -5.802 -10.395   1.518  0.00  0.00    +0.007 A 
ATOM     32  C   UNL     1      -6.612 -11.505   1.664  0.00  0.00    +0.046 A 
ATOM     33  C   UNL     1      -7.981 -11.394   1.465  0.00  0.00    +0.120 A 
ATOM     34  C   UNL     1      -8.532 -10.169   1.118  0.00  0.00    +0.046 A 
ATOM     35  C   UNL     1      -7.718  -9.062   0.978  0.00  0.00    +0.007 A 
BRANCH  33  36
ATOM     36  O   UNL     1      -8.780 -12.484   1.607  0.00  0.00    -0.495 OA
ATOM     37  C   UNL     1     -10.179 -12.296   1.387  0.00  0.00    +0.277 C 
ENDBRANCH  33  36
ENDBRANCH  29  30
ENDBRANCH  28  29
ENDBRANCH  26  28
ENDBRANCH  24  26
ENDBRANCH   5  22
TORSDOF 7
