REMARK  Name = ZINC60531891
REMARK  7 active torsions:
REMARK  status: ('A' for Active; 'I' for Inactive)
REMARK    1  A    between atoms: C_1  and  C_2
REMARK    2  A    between atoms: C_4  and  N_24
REMARK    3  A    between atoms: C_7  and  N_8
REMARK    4  A    between atoms: C_9  and  C_11
REMARK    5  A    between atoms: C_11  and  S_12
REMARK    6  A    between atoms: S_12  and  C_13
REMARK    7  A    between atoms: C_16  and  C_18
REMARK                            x       y       z     vdW  Elec       q    Type
REMARK                         _______ _______ _______ _____ _____    ______ ____
ROOT
ATOM      1  N   UNL     1       0.025  -0.015   2.417  0.00  0.00    -0.285 N 
ATOM      2  C   UNL     1      -0.057  -0.694   3.578  0.00  0.00    +0.228 C 
ATOM      3  O   UNL     1      -0.040  -1.907   3.573  0.00  0.00    -0.275 OA
ATOM      4  H   UNL     1       0.077   0.954   2.425  0.00  0.00    +0.155 HD
ENDROOT
BRANCH   1  11
ATOM      5  C   UNL     1      -1.265   1.183   0.181  0.00  0.00    +0.046 C 
ATOM      6  C   UNL     1      -0.584  -0.158   0.084  0.00  0.00    -0.027 A 
ATOM      7  C   UNL     1      -0.569  -0.841  -1.117  0.00  0.00    +0.038 A 
ATOM      8  C   UNL     1       0.056  -2.071  -1.206  0.00  0.00    +0.127 A 
ATOM      9  C   UNL     1       0.667  -2.622  -0.095  0.00  0.00    +0.034 A 
ATOM     10  C   UNL     1       0.656  -1.944   1.109  0.00  0.00    +0.026 A 
ATOM     11  C   UNL     1       0.034  -0.706   1.201  0.00  0.00    +0.036 A 
BRANCH   8  12
ATOM     12  N   UNL     1       0.070  -2.800  -2.494  0.00  0.00    +0.056 N 
ATOM     13  O   UNL     1      -0.465  -2.320  -3.466  0.00  0.00    -0.126 OA
ATOM     14  O   UNL     1       0.615  -3.876  -2.574  0.00  0.00    -0.126 OA
ENDBRANCH   8  12
ENDBRANCH   1  11
BRANCH   2  15
ATOM     15  C   UNL     1      -0.169   0.052   4.882  0.00  0.00    +0.175 C 
BRANCH  15  16
ATOM     16  S   UNL     1      -0.260  -1.133   6.252  0.00  0.00    -0.058 S 
BRANCH  16  17
ATOM     17  C   UNL     1      -0.385  -0.118   7.687  0.00  0.00    +0.258 A 
ATOM     18  N   UNL     1      -0.409   1.194   7.694  0.00  0.00    -0.211 NA
ATOM     19  C   UNL     1      -0.512   1.618   8.963  0.00  0.00    +0.162 A 
ATOM     20  C   UNL     1      -0.552   0.522   9.761  0.00  0.00    +0.156 A 
ATOM     21  O   UNL     1      -0.478  -0.561   8.951  0.00  0.00    -0.431 OA
BRANCH  20  22
ATOM     22  C   UNL     1      -0.662   0.511  11.234  0.00  0.00    +0.019 A 
ATOM     23  C   UNL     1      -0.741   1.713  11.941  0.00  0.00    +0.011 A 
ATOM     24  C   UNL     1      -0.844   1.696  13.316  0.00  0.00    +0.001 A 
ATOM     25  C   UNL     1      -0.868   0.491  13.996  0.00  0.00    +0.000 A 
ATOM     26  C   UNL     1      -0.790  -0.704  13.303  0.00  0.00    +0.001 A 
ATOM     27  C   UNL     1      -0.692  -0.701  11.927  0.00  0.00    +0.011 A 
ENDBRANCH  20  22
ENDBRANCH  16  17
ENDBRANCH  15  16
ENDBRANCH   2  15
TORSDOF 6
