REMARK  Name = ZINC33814346
REMARK  11 active torsions:
REMARK  status: ('A' for Active; 'I' for Inactive)
REMARK    1  A    between atoms: C_1  and  C_2
REMARK    2  A    between atoms: C_2  and  C_3
REMARK    3  A    between atoms: C_6  and  C_9
REMARK    4  A    between atoms: C_11  and  C_12
REMARK    5  A    between atoms: C_12  and  C_13
REMARK    6  A    between atoms: C_14  and  C_22
REMARK    7  A    between atoms: N_28  and  C_29
REMARK    8  A    between atoms: C_29  and  C_30
REMARK    9  A    between atoms: C_30  and  N_31
REMARK   10  A    between atoms: N_31  and  C_32
REMARK   11  A    between atoms: N_31  and  C_33
REMARK                            x       y       z     vdW  Elec       q    Type
REMARK                         _______ _______ _______ _____ _____    ______ ____
ROOT
ATOM      1  C   UNL     1       0.002  -0.003   0.002  0.00  0.00    +0.145 C 
ATOM      2  C   UNL     1      -0.260  -0.533   1.393  0.00  0.00    +0.078 C 
ATOM      3  C   UNL     1      -1.423  -1.297   1.308  0.00  0.00    +0.249 C 
ATOM      4  O   UNL     1      -1.956  -1.891   2.230  0.00  0.00    -0.282 OA
ATOM      5  C   UNL     1      -1.902  -1.265  -0.097  0.00  0.00    +0.288 C 
ATOM      6  O   UNL     1      -2.895  -1.831  -0.507  0.00  0.00    -0.266 OA
ATOM      7  N   UNL     1      -1.077  -0.515  -0.849  0.00  0.00    -0.285 N 
ENDROOT
BRANCH   1  11
ATOM      8  C   UNL     1      -0.057   4.268   0.028  0.00  0.00    -0.048 A 
ATOM      9  C   UNL     1       1.150   3.593   0.012  0.00  0.00    +0.004 A 
ATOM     10  C   UNL     1       1.169   2.211   0.004  0.00  0.00    +0.006 A 
ATOM     11  C   UNL     1      -0.019   1.504   0.011  0.00  0.00    -0.022 A 
ATOM     12  C   UNL     1      -1.225   2.178   0.021  0.00  0.00    +0.006 A 
ATOM     13  C   UNL     1      -1.244   3.561   0.034  0.00  0.00    +0.004 A 
BRANCH   8  15
ATOM     14  C   UNL     1      -0.097   6.294  -1.401  0.00  0.00    +0.009 C 
ATOM     15  C   UNL     1      -0.077   5.775   0.038  0.00  0.00    +0.032 C 
ENDBRANCH   8  15
ENDBRANCH   1  11
BRANCH   2  16
ATOM     16  C   UNL     1       0.508  -0.304   2.532  0.00  0.00    +0.213 C 
ATOM     17  O   UNL     1       0.143  -0.851   3.714  0.00  0.00    -0.285 OA
BRANCH  16  18
ATOM     18  C   UNL     1       1.665   0.496   2.453  0.00  0.00    +0.116 A 
ATOM     19  C   UNL     1       2.864   0.171   1.823  0.00  0.00    +0.068 A 
ATOM     20  N   UNL     1       3.695   1.187   1.971  0.00  0.00    -0.232 NA
ATOM     21  C   UNL     1       3.107   2.156   2.673  0.00  0.00    +0.138 A 
ATOM     22  N   UNL     1       1.838   1.760   2.990  0.00  0.00    -0.296 N 
ATOM     23  C   UNL     1       1.017   2.570   3.709  0.00  0.00    +0.093 A 
ATOM     24  C   UNL     1       1.440   3.787   4.124  0.00  0.00    +0.018 A 
ATOM     25  C   UNL     1       2.735   4.224   3.815  0.00  0.00    +0.005 A 
ATOM     26  C   UNL     1       3.565   3.416   3.094  0.00  0.00    +0.047 A 
ATOM     27  C   UNL     1       3.160  -1.115   1.096  0.00  0.00    +0.068 C 
ENDBRANCH  16  18
ENDBRANCH   2  16
BRANCH   7  28
ATOM     28  C   UNL     1      -1.230  -0.254  -2.282  0.00  0.00    +0.090 C 
BRANCH  28  29
ATOM     29  C   UNL     1      -0.493  -1.333  -3.078  0.00  0.00    -0.060 C 
BRANCH  29  30
ATOM     30  N   UNL     1      -0.646  -1.071  -4.516  0.00  0.00    +0.377 N 
ATOM     31  C   UNL     1       0.236  -1.940  -5.306  0.00  0.00    -0.097 C 
ATOM     32  C   UNL     1      -2.047  -1.224  -4.932  0.00  0.00    -0.097 C 
ATOM     33  H   UNL     1      -0.350  -0.029  -4.703  0.00  0.00    -0.083 HD
ENDBRANCH  29  30
ENDBRANCH  28  29
ENDBRANCH   7  28
TORSDOF 7
