REMARK  Name = ZINC21670621
REMARK  9 active torsions:
REMARK  status: ('A' for Active; 'I' for Inactive)
REMARK    1  A    between atoms: C_1  and  C_2
REMARK    2  A    between atoms: C_3  and  C_29
REMARK    3  A    between atoms: N_4  and  C_23
REMARK    4  A    between atoms: C_5  and  N_9
REMARK    5  A    between atoms: C_6  and  C_7
REMARK    6  A    between atoms: C_10  and  C_12
REMARK    7  A    between atoms: C_12  and  N_13
REMARK    8  A    between atoms: C_15  and  C_22
REMARK    9  A    between atoms: C_18  and  C_21
REMARK                            x       y       z     vdW  Elec       q    Type
REMARK                         _______ _______ _______ _____ _____    ______ ____
ROOT
ATOM      1  C   UNL     1      -1.219   1.118  -0.422  0.00  0.00    +0.047 C 
ATOM      2  C   UNL     1      -0.928  -0.355  -0.292  0.00  0.00    -0.011 A 
ATOM      3  C   UNL     1      -0.774  -1.234  -1.296  0.00  0.00    +0.022 A 
ATOM      4  N   UNL     1      -0.520  -2.475  -0.776  0.00  0.00    -0.329 N 
ATOM      5  C   UNL     1      -0.505  -2.420   0.581  0.00  0.00    +0.124 A 
ATOM      6  C   UNL     1      -0.751  -1.107   0.957  0.00  0.00    +0.095 A 
ATOM      7  C   UNL     1      -0.867  -0.905  -2.764  0.00  0.00    +0.064 C 
ENDROOT
BRANCH   4   8
ATOM      8  C   UNL     1      -0.298  -3.687  -1.569  0.00  0.00    +0.089 C 
ATOM      9  C   UNL     1       1.141  -4.168  -1.372  0.00  0.00    +0.025 C 
ATOM     10  C   UNL     1       1.373  -5.434  -2.200  0.00  0.00    +0.002 C 
ATOM     11  C   UNL     1       0.403  -6.526  -1.745  0.00  0.00    +0.000 C 
ATOM     12  C   UNL     1      -1.036  -6.044  -1.942  0.00  0.00    +0.002 C 
ATOM     13  C   UNL     1      -1.268  -4.779  -1.115  0.00  0.00    +0.025 C 
ENDBRANCH   4   8
BRANCH   5  14
ATOM     14  N   UNL     1      -0.280  -3.486   1.438  0.00  0.00    -0.270 N 
ATOM     15  C   UNL     1      -0.844  -3.498   2.662  0.00  0.00    +0.232 C 
ATOM     16  O   UNL     1      -1.627  -2.627   2.977  0.00  0.00    -0.274 OA
ATOM     17  H   UNL     1       0.284  -4.224   1.157  0.00  0.00    +0.156 HD
BRANCH  15  18
ATOM     18  C   UNL     1      -0.501  -4.592   3.640  0.00  0.00    +0.181 C 
BRANCH  18  19
ATOM     19  N   UNL     1      -1.135  -4.309   4.934  0.00  0.00    -0.289 NA
ATOM     20  C   UNL     1      -0.459  -3.199   5.622  0.00  0.00    +0.116 C 
ATOM     21  C   UNL     1      -1.187  -2.899   6.934  0.00  0.00    +0.130 C 
ATOM     22  O   UNL     1      -1.229  -4.085   7.732  0.00  0.00    -0.371 OA
ATOM     23  C   UNL     1      -1.882  -5.186   7.094  0.00  0.00    +0.130 C 
ATOM     24  C   UNL     1      -1.160  -5.509   5.782  0.00  0.00    +0.116 C 
ATOM     25  C   UNL     1      -3.337  -4.816   6.800  0.00  0.00    +0.039 C 
ATOM     26  C   UNL     1      -0.442  -1.799   7.692  0.00  0.00    +0.039 C 
ENDBRANCH  18  19
ENDBRANCH  15  18
ENDBRANCH   5  14
BRANCH   6  27
ATOM     27  C   UNL     1      -0.819  -0.591   2.291  0.00  0.00    +0.103 C 
ATOM     28  N   UNL     1      -0.874  -0.181   3.349  0.00  0.00    -0.191 NA
ENDBRANCH   6  27
TORSDOF 5
