REMARK  Name = ZINC10217103
REMARK  6 active torsions:
REMARK  status: ('A' for Active; 'I' for Inactive)
REMARK    1  A    between atoms: C_1  and  C_2
REMARK    2  A    between atoms: C_14  and  C_29
REMARK    3  A    between atoms: C_17  and  C_18
REMARK    4  A    between atoms: C_17  and  N_61
REMARK    5  A    between atoms: N_20  and  C_21
REMARK    6  A    between atoms: C_21  and  C_28
REMARK                            x       y       z     vdW  Elec       q    Type
REMARK                         _______ _______ _______ _____ _____    ______ ____
ROOT
ATOM      1  C   UNL     1       6.437   1.700   0.259  0.00  0.00    -0.007 C 
ATOM      2  C   UNL     1       5.241   2.530  -0.212  0.00  0.00    -0.023 C 
ATOM      3  C   UNL     1       4.309   2.781   0.949  0.00  0.00    +0.007 A 
ATOM      4  C   UNL     1       2.964   2.670   0.851  0.00  0.00    -0.015 A 
ATOM      5  C   UNL     1       2.414   2.981   2.152  0.00  0.00    +0.004 A 
ATOM      6  C   UNL     1       1.106   3.029   2.644  0.00  0.00    +0.010 A 
ATOM      7  C   UNL     1       0.952   3.373   3.965  0.00  0.00    +0.001 A 
ATOM      8  C   UNL     1       2.033   3.660   4.782  0.00  0.00    +0.002 A 
ATOM      9  C   UNL     1       3.338   3.620   4.321  0.00  0.00    +0.026 A 
ATOM     10  C   UNL     1       3.526   3.274   2.985  0.00  0.00    +0.047 A 
ATOM     11  N   UNL     1       4.652   3.142   2.223  0.00  0.00    -0.359 N 
ATOM     12  H   UNL     1       5.558   3.283   2.538  0.00  0.00    +0.166 HD
ATOM     13  C   UNL     1       2.251   2.289  -0.422  0.00  0.00    +0.036 C 
ATOM     14  C   UNL     1       3.238   2.456  -1.586  0.00  0.00    -0.064 C 
ATOM     15  N   UNL     1       4.499   1.763  -1.241  0.00  0.00    +0.391 N 
ATOM     16  H   UNL     1       4.276   0.833  -0.865  0.00  0.00    -0.080 HD
ENDROOT
BRANCH  13  17
ATOM     17  C   UNL     1       1.062   3.191  -0.629  0.00  0.00    -0.023 A 
ATOM     18  C   UNL     1       1.238   4.559  -0.718  0.00  0.00    +0.005 A 
ATOM     19  C   UNL     1       0.147   5.386  -0.908  0.00  0.00    +0.000 A 
ATOM     20  C   UNL     1      -1.121   4.845  -1.009  0.00  0.00    +0.001 A 
ATOM     21  C   UNL     1      -1.299   3.477  -0.926  0.00  0.00    +0.020 A 
ATOM     22  C   UNL     1      -0.207   2.649  -0.731  0.00  0.00    +0.045 A 
ATOM     23 CL   UNL     1      -0.430   0.931  -0.619  0.00  0.00    -0.083 Cl
ENDBRANCH  13  17
BRANCH  15  24
ATOM     24  C   UNL     1       5.333   1.603  -2.450  0.00  0.00    +0.019 C 
BRANCH  24  25
ATOM     25  C   UNL     1       4.657   0.630  -3.380  0.00  0.00    +0.197 C 
ATOM     26  O   UNL     1       3.648   0.056  -3.028  0.00  0.00    -0.278 OA
ATOM     27  N   UNL     1       5.172   0.398  -4.604  0.00  0.00    -0.310 N 
ATOM     28  H   UNL     1       5.979   0.857  -4.885  0.00  0.00    +0.149 HD
BRANCH  27  29
ATOM     29  C   UNL     1       4.514  -0.549  -5.508  0.00  0.00    +0.052 C 
ATOM     30  C   UNL     1       5.345  -0.664  -6.778  0.00  0.00    +0.049 C 
ATOM     31  C   UNL     1       4.577  -0.284  -8.064  0.00  0.00    +0.168 C 
ATOM     32  S   UNL     1       3.232   0.778  -7.379  0.00  0.00    -0.029 S 
ATOM     33  O   UNL     1       3.729   2.094  -7.174  0.00  0.00    -0.174 OA
ATOM     34  O   UNL     1       2.046   0.582  -8.137  0.00  0.00    -0.174 OA
ATOM     35  C   UNL     1       3.066  -0.071  -5.753  0.00  0.00    +0.191 C 
ATOM     36  C   UNL     1       4.468  -1.919  -4.829  0.00  0.00    +0.033 C 
ENDBRANCH  27  29
ENDBRANCH  24  25
ENDBRANCH  15  24
TORSDOF 4
