REMARK  Name = ZINC35645472
REMARK  15 active torsions:
REMARK  status: ('A' for Active; 'I' for Inactive)
REMARK    1  A    between atoms: C_1  and  C_2
REMARK    2  A    between atoms: C_11  and  O_13
REMARK    3  A    between atoms: O_13  and  C_14
REMARK    4  A    between atoms: C_16  and  O_37
REMARK    5  A    between atoms: C_18  and  O_33
REMARK    6  A    between atoms: C_20  and  O_29
REMARK    7  A    between atoms: C_22  and  C_25
REMARK    8  A    between atoms: C_25  and  O_27
REMARK    9  A    between atoms: O_27  and  C_28
REMARK   10  A    between atoms: O_29  and  C_30
REMARK   11  A    between atoms: C_30  and  C_32
REMARK   12  A    between atoms: O_33  and  C_34
REMARK   13  A    between atoms: C_34  and  C_36
REMARK   14  A    between atoms: O_37  and  C_38
REMARK   15  A    between atoms: C_38  and  C_40
REMARK                            x       y       z     vdW  Elec       q    Type
REMARK                         _______ _______ _______ _____ _____    ______ ____
ROOT
ATOM      1  C   UNL     1       0.087  -2.206   5.972  0.00  0.00    +0.353 C 
ATOM      2  C   UNL     1      -0.014  -3.171   7.156  0.00  0.00    +0.289 C 
ATOM      3  C   UNL     1       1.216  -4.084   7.166  0.00  0.00    +0.266 C 
ATOM      4  C   UNL     1       2.479  -3.221   7.226  0.00  0.00    +0.260 C 
ATOM      5  C   UNL     1       2.484  -2.253   6.040  0.00  0.00    +0.275 C 
ATOM      6  O   UNL     1       1.299  -1.455   6.072  0.00  0.00    -0.320 OA
ENDROOT
BRANCH   5   7
ATOM      7  C   UNL     1       3.695  -1.360   6.124  0.00  0.00    +0.340 C 
ATOM      8  O   UNL     1       3.558  -0.172   6.294  0.00  0.00    -0.248 OA
BRANCH   7   9
ATOM      9  O   UNL     1       4.925  -1.884   6.010  0.00  0.00    -0.466 OA
ATOM     10  C   UNL     1       6.027  -0.979   6.100  0.00  0.00    +0.280 C 
ENDBRANCH   7   9
ENDBRANCH   5   7
BRANCH   1  11
ATOM     11  O   UNL     1       0.086  -2.948   4.751  0.00  0.00    -0.459 OA
BRANCH  11  22
ATOM     12  C   UNL     1      -0.018   1.503   0.010  0.00  0.00    +0.045 C 
ATOM     13  C   UNL     1       0.002  -0.004   0.002  0.00  0.00    -0.033 A 
ATOM     14  C   UNL     1       0.006  -0.695  -1.167  0.00  0.00    +0.096 A 
ATOM     15  C   UNL     1       0.026  -2.105  -1.149  0.00  0.00    +0.337 A 
ATOM     16  O   UNL     1       0.030  -2.712  -2.204  0.00  0.00    -0.245 OA
ATOM     17  O   UNL     1       0.041  -2.795   0.003  0.00  0.00    -0.422 OA
ATOM     18  C   UNL     1       0.038  -2.169   1.199  0.00  0.00    +0.143 A 
ATOM     19  C   UNL     1       0.024  -0.763   1.254  0.00  0.00    +0.021 A 
ATOM     20  C   UNL     1       0.026  -0.111   2.492  0.00  0.00    +0.015 A 
ATOM     21  C   UNL     1       0.046  -0.842   3.644  0.00  0.00    +0.046 A 
ATOM     22  C   UNL     1       0.066  -2.234   3.596  0.00  0.00    +0.128 A 
ATOM     23  C   UNL     1       0.053  -2.897   2.379  0.00  0.00    +0.092 A 
ENDBRANCH  11  22
ENDBRANCH   1  11
BRANCH   4  24
ATOM     24  O   UNL     1       2.494  -2.479   8.448  0.00  0.00    -0.454 OA
BRANCH  24  25
ATOM     25  C   UNL     1       3.695  -2.181   8.966  0.00  0.00    +0.304 C 
ATOM     26  O   UNL     1       4.702  -2.538   8.401  0.00  0.00    -0.251 OA
ATOM     27  C   UNL     1       3.789  -1.402  10.252  0.00  0.00    +0.136 C 
ENDBRANCH  24  25
ENDBRANCH   4  24
BRANCH   3  28
ATOM     28  O   UNL     1       1.165  -4.941   8.309  0.00  0.00    -0.454 OA
BRANCH  28  29
ATOM     29  C   UNL     1       0.544  -6.121   8.159  0.00  0.00    +0.304 C 
ATOM     30  O   UNL     1       0.059  -6.417   7.093  0.00  0.00    -0.251 OA
ATOM     31  C   UNL     1       0.451  -7.077   9.320  0.00  0.00    +0.136 C 
ENDBRANCH  28  29
ENDBRANCH   3  28
BRANCH   2  32
ATOM     32  O   UNL     1      -0.068  -2.427   8.375  0.00  0.00    -0.451 OA
BRANCH  32  33
ATOM     33  C   UNL     1      -1.284  -2.076   8.821  0.00  0.00    +0.305 C 
ATOM     34  O   UNL     1      -2.270  -2.390   8.197  0.00  0.00    -0.251 OA
ATOM     35  C   UNL     1      -1.420  -1.291  10.100  0.00  0.00    +0.136 C 
ENDBRANCH  32  33
ENDBRANCH   2  32
TORSDOF 10
