REMARK  Name = ZINC39873228
REMARK  6 active torsions:
REMARK  status: ('A' for Active; 'I' for Inactive)
REMARK    1  A    between atoms: N_14  and  C_28
REMARK    2  A    between atoms: C_15  and  C_17
REMARK    3  A    between atoms: C_20  and  O_23
REMARK    4  A    between atoms: O_23  and  C_24
REMARK    5  A    between atoms: C_24  and  C_25
REMARK    6  A    between atoms: C_32  and  C_34
REMARK                            x       y       z     vdW  Elec       q    Type
REMARK                         _______ _______ _______ _____ _____    ______ ____
ROOT
ATOM      1  C   UNL     1      -0.017   1.363   0.009  0.00  0.00    +0.001 A 
ATOM      2  C   UNL     1       1.173   2.078   0.002  0.00  0.00    +0.004 A 
ATOM      3  C   UNL     1       2.387   1.428  -0.016  0.00  0.00    +0.047 A 
ATOM      4  C   UNL     1       2.432   0.034  -0.027  0.00  0.00    +0.139 A 
ATOM      5  C   UNL     1       1.222  -0.679  -0.013  0.00  0.00    +0.064 A 
ATOM      6  C   UNL     1       0.002  -0.004   0.002  0.00  0.00    +0.015 A 
ATOM      7  C   UNL     1       1.261  -2.163  -0.008  0.00  0.00    +0.199 A 
ATOM      8  O   UNL     1       0.272  -2.857  -0.165  0.00  0.00    -0.287 OA
ATOM      9  C   UNL     1       2.603  -2.715   0.203  0.00  0.00    +0.072 A 
ATOM     10  C   UNL     1       3.708  -1.911   0.176  0.00  0.00    +0.199 A 
ATOM     11  O   UNL     1       3.635  -0.584  -0.052  0.00  0.00    -0.450 OA
ATOM     12  C   UNL     1       4.894  -2.746   0.427  0.00  0.00    +0.287 C 
ATOM     13  O   UNL     1       6.037  -2.336   0.473  0.00  0.00    -0.266 OA
ATOM     14  N   UNL     1       4.527  -4.032   0.601  0.00  0.00    -0.253 N 
ATOM     15  C   UNL     1       3.063  -4.110   0.471  0.00  0.00    +0.150 C 
ENDROOT
BRANCH  15  16
ATOM     16  C   UNL     1       2.690  -5.010  -0.678  0.00  0.00    -0.022 A 
ATOM     17  C   UNL     1       3.449  -5.004  -1.834  0.00  0.00    +0.009 A 
ATOM     18  C   UNL     1       3.108  -5.828  -2.889  0.00  0.00    +0.046 A 
ATOM     19  C   UNL     1       2.005  -6.663  -2.788  0.00  0.00    +0.121 A 
ATOM     20  C   UNL     1       1.246  -6.668  -1.627  0.00  0.00    +0.046 A 
ATOM     21  C   UNL     1       1.593  -5.846  -0.573  0.00  0.00    +0.009 A 
BRANCH  19  22
ATOM     22  O   UNL     1       1.668  -7.474  -3.825  0.00  0.00    -0.483 OA
BRANCH  22  23
ATOM     23  C   UNL     1       0.520  -8.306  -3.651  0.00  0.00    +0.324 C 
BRANCH  23  24
ATOM     24  C   UNL     1       0.302  -9.129  -4.895  0.00  0.00    +0.248 C 
ATOM     25  O   UNL     1       1.057  -9.014  -5.838  0.00  0.00    -0.272 OA
ATOM     26  N   UNL     1      -0.730  -9.993  -4.960  0.00  0.00    -0.327 N 
ATOM     27  H   UNL     1      -1.333 -10.085  -4.206  0.00  0.00    +0.145 HD
ATOM     28  H   UNL     1      -0.870 -10.523  -5.761  0.00  0.00    +0.145 HD
ENDBRANCH  23  24
ENDBRANCH  22  23
ENDBRANCH  19  22
ENDBRANCH  15  16
BRANCH  14  29
ATOM     29  C   UNL     1       5.387  -5.104   0.858  0.00  0.00    +0.038 A 
ATOM     30  C   UNL     1       4.875  -6.386   1.010  0.00  0.00    +0.023 A 
ATOM     31  C   UNL     1       5.728  -7.442   1.265  0.00  0.00    +0.002 A 
ATOM     32  C   UNL     1       7.090  -7.225   1.368  0.00  0.00    +0.012 A 
ATOM     33  C   UNL     1       7.603  -5.949   1.217  0.00  0.00    +0.057 A 
ATOM     34  C   UNL     1       6.756  -4.889   0.956  0.00  0.00    +0.036 A 
BRANCH  33  35
ATOM     35  C   UNL     1       9.087  -5.717   1.331  0.00  0.00    +0.417 C 
ATOM     36  F   UNL     1       9.731  -6.932   1.590  0.00  0.00    -0.166 F 
ATOM     37  F   UNL     1       9.568  -5.181   0.131  0.00  0.00    -0.166 F 
ATOM     38  F   UNL     1       9.340  -4.823   2.376  0.00  0.00    -0.166 F 
ENDBRANCH  33  35
ENDBRANCH  14  29
TORSDOF 6
