REMARK  Name = ZINC39667510
REMARK  8 active torsions:
REMARK  status: ('A' for Active; 'I' for Inactive)
REMARK    1  A    between atoms: C_1  and  C_2
REMARK    2  A    between atoms: C_6  and  C_9
REMARK    3  A    between atoms: C_7  and  C_8
REMARK    4  A    between atoms: C_9  and  N_10
REMARK    5  A    between atoms: C_11  and  C_13
REMARK    6  A    between atoms: C_24  and  C_26
REMARK    7  A    between atoms: C_29  and  O_32
REMARK    8  A    between atoms: O_32  and  C_33
REMARK                            x       y       z     vdW  Elec       q    Type
REMARK                         _______ _______ _______ _____ _____    ______ ____
ROOT
ATOM      1  C   UNL     1      -2.465  -3.154   5.039  0.00  0.00    +0.100 C 
ATOM      2  C   UNL     1      -3.244  -1.857   5.352  0.00  0.00    +0.121 C 
ATOM      3  N   UNL     1      -4.044  -2.183   6.557  0.00  0.00    -0.296 N 
ATOM      4  C   UNL     1      -3.137  -3.009   7.389  0.00  0.00    +0.115 C 
ATOM      5  C   UNL     1      -2.396  -3.907   6.378  0.00  0.00    -0.004 C 
ATOM      6  C   UNL     1      -0.943  -4.094   6.805  0.00  0.00    -0.010 C 
ATOM      7  C   UNL     1      -0.898  -4.896   8.109  0.00  0.00    -0.082 C 
ATOM      8  N   UNL     1      -1.542  -6.199   7.907  0.00  0.00    +0.379 N 
ATOM      9  C   UNL     1      -2.962  -6.013   7.587  0.00  0.00    -0.082 C 
ATOM     10  C   UNL     1      -3.094  -5.258   6.261  0.00  0.00    -0.010 C 
ATOM     11  C   UNL     1      -5.309  -1.811   6.833  0.00  0.00    +0.247 C 
ATOM     12  O   UNL     1      -5.972  -1.237   5.991  0.00  0.00    -0.270 OA
ATOM     13  H   UNL     1      -1.088  -6.682   7.146  0.00  0.00    -0.086 HD
ATOM     14  H   UNL     1      -1.457  -6.749   8.749  0.00  0.00    -0.086 HD
ENDROOT
BRANCH  11  15
ATOM     15  C   UNL     1      -5.891  -2.101   8.158  0.00  0.00    +0.037 A 
ATOM     16  C   UNL     1      -5.056  -2.347   9.251  0.00  0.00    +0.016 A 
ATOM     17  C   UNL     1      -5.602  -2.616  10.486  0.00  0.00    +0.047 A 
ATOM     18  C   UNL     1      -6.983  -2.645  10.646  0.00  0.00    +0.130 A 
ATOM     19  C   UNL     1      -7.817  -2.401   9.562  0.00  0.00    +0.047 A 
ATOM     20  C   UNL     1      -7.278  -2.125   8.325  0.00  0.00    +0.016 A 
BRANCH  18  21
ATOM     21  O   UNL     1      -7.517  -2.912  11.865  0.00  0.00    -0.406 OA
BRANCH  21  22
ATOM     22  C   UNL     1      -8.943  -2.925  11.959  0.00  0.00    +0.575 C 
ATOM     23  F   UNL     1      -9.458  -3.902  11.100  0.00  0.00    -0.133 F 
ATOM     24  F   UNL     1      -9.321  -3.214  13.274  0.00  0.00    -0.133 F 
ATOM     25  F   UNL     1      -9.447  -1.672  11.594  0.00  0.00    -0.133 F 
ENDBRANCH  21  22
ENDBRANCH  18  21
ENDBRANCH  11  15
BRANCH   1  27
ATOM     26  N   UNL     1      -0.457  -3.654   3.684  0.00  0.00    -0.311 N 
ATOM     27  C   UNL     1      -1.078  -2.828   4.549  0.00  0.00    +0.218 C 
ATOM     28  O   UNL     1      -0.520  -1.821   4.932  0.00  0.00    -0.275 OA
ATOM     29  H   UNL     1      -0.903  -4.459   3.377  0.00  0.00    +0.149 HD
BRANCH  26  30
ATOM     30  C   UNL     1       0.892  -3.337   3.207  0.00  0.00    +0.139 C 
BRANCH  30  36
ATOM     31  C   UNL     1       0.881  -5.386  -1.359  0.00  0.00    +0.044 C 
ATOM     32  C   UNL     1       1.349  -5.392   0.074  0.00  0.00    -0.047 A 
ATOM     33  C   UNL     1       2.204  -6.384   0.517  0.00  0.00    +0.003 A 
ATOM     34  C   UNL     1       2.633  -6.391   1.831  0.00  0.00    +0.001 A 
ATOM     35  C   UNL     1       2.208  -5.404   2.702  0.00  0.00    +0.005 A 
ATOM     36  C   UNL     1       1.355  -4.412   2.258  0.00  0.00    -0.027 A 
ATOM     37  C   UNL     1       0.929  -4.403   0.943  0.00  0.00    -0.043 A 
ATOM     38  C   UNL     1       0.002  -3.318   0.458  0.00  0.00    +0.044 C 
ENDBRANCH  30  36
ENDBRANCH  26  30
ENDBRANCH   1  27
TORSDOF 6
