REMARK  Name = ZINC51987454
REMARK  1 active torsions:
REMARK  status: ('A' for Active; 'I' for Inactive)
REMARK    1  A    between atoms: C_7  and  N_12
REMARK                            x       y       z     vdW  Elec       q    Type
REMARK                         _______ _______ _______ _____ _____    ______ ____
ROOT
ATOM      1  N   UNL     1       0.148  -2.670  -0.926  0.00  0.00    -0.311 N 
ATOM      2  C   UNL     1      -0.950  -3.454  -0.579  0.00  0.00    +0.086 A 
ATOM      3  C   UNL     1      -1.678  -3.672  -1.750  0.00  0.00    +0.066 A 
ATOM      4  C   UNL     1      -2.838  -4.430  -1.712  0.00  0.00    +0.028 A 
ATOM      5  C   UNL     1      -3.269  -4.967  -0.514  0.00  0.00    +0.004 A 
ATOM      6  C   UNL     1      -2.549  -4.751   0.648  0.00  0.00    +0.022 A 
ATOM      7  C   UNL     1      -1.391  -3.997   0.620  0.00  0.00    +0.067 A 
ATOM      8 CL   UNL     1      -0.491  -3.728   2.080  0.00  0.00    -0.081 Cl
ATOM      9  N   UNL     1      -1.000  -3.014  -2.773  0.00  0.00    -0.334 N 
ATOM     10  C   UNL     1       0.087  -2.418  -2.248  0.00  0.00    +0.159 A 
ATOM     11  S   UNL     1       1.223  -1.486  -3.127  0.00  0.00    -0.013 S 
ATOM     12  H   UNL     1      -1.267  -2.986  -3.705  0.00  0.00    +0.168 HD
ENDROOT
BRANCH   1  19
ATOM     13  C   UNL     1      -0.017   1.377   0.010  0.00  0.00    +0.001 A 
ATOM     14  C   UNL     1       1.172   2.084   0.002  0.00  0.00    +0.004 A 
ATOM     15  C   UNL     1       2.375   1.409  -0.015  0.00  0.00    +0.046 A 
ATOM     16  C   UNL     1       2.398   0.018  -0.024  0.00  0.00    +0.126 A 
ATOM     17  C   UNL     1       1.207  -0.687  -0.012  0.00  0.00    +0.017 A 
ATOM     18  C   UNL     1       0.002  -0.004   0.002  0.00  0.00    +0.009 A 
ATOM     19  C   UNL     1       1.187  -2.194  -0.010  0.00  0.00    +0.126 C 
ATOM     20  C   UNL     1       2.548  -2.729  -0.463  0.00  0.00    +0.071 C 
ATOM     21  C   UNL     1       3.641  -1.990   0.320  0.00  0.00    +0.231 C 
ATOM     22  O   UNL     1       3.602  -0.610  -0.046  0.00  0.00    -0.492 OA
ENDBRANCH   1  19
TORSDOF 1
