REMARK  Name = ZINC04784734
REMARK  11 active torsions:
REMARK  status: ('A' for Active; 'I' for Inactive)
REMARK    1  A    between atoms: C_1  and  C_2
REMARK    2  A    between atoms: C_12  and  C_29
REMARK    3  A    between atoms: C_13  and  C_27
REMARK    4  A    between atoms: C_14  and  O_17
REMARK    5  A    between atoms: C_14  and  O_22
REMARK    6  A    between atoms: O_17  and  N_18
REMARK    7  A    between atoms: C_19  and  C_20
REMARK    8  A    between atoms: C_19  and  C_21
REMARK    9  A    between atoms: O_22  and  N_23
REMARK   10  A    between atoms: C_24  and  C_25
REMARK   11  A    between atoms: C_24  and  C_26
REMARK                            x       y       z     vdW  Elec       q    Type
REMARK                         _______ _______ _______ _____ _____    ______ ____
ROOT
ATOM      1  C   UNL     1      -1.077   8.854  -0.409  0.00  0.00    +0.044 C 
ATOM      2  C   UNL     1      -1.318   7.642  -1.271  0.00  0.00    -0.050 A 
ATOM      3  C   UNL     1      -1.324   7.761  -2.649  0.00  0.00    +0.005 A 
ATOM      4  C   UNL     1      -1.545   6.655  -3.443  0.00  0.00    +0.024 A 
ATOM      5  C   UNL     1      -1.764   5.408  -2.862  0.00  0.00    +0.038 A 
ATOM      6  C   UNL     1      -1.755   5.300  -1.476  0.00  0.00    -0.007 A 
ATOM      7  C   UNL     1      -1.534   6.406  -0.686  0.00  0.00    +0.010 A 
ATOM      8  C   UNL     1      -2.016   3.849  -1.171  0.00  0.00    +0.130 C 
ATOM      9  C   UNL     1      -2.168   3.194  -2.521  0.00  0.00    +0.232 C 
ATOM     10  O   UNL     1      -2.391   2.021  -2.735  0.00  0.00    -0.274 OA
ATOM     11  N   UNL     1      -2.007   4.162  -3.443  0.00  0.00    -0.284 N 
ATOM     12  C   UNL     1      -1.335   3.136   0.031  0.00  0.00    +0.159 C 
ATOM     13  C   UNL     1      -2.852   3.416   0.027  0.00  0.00    +0.205 C 
ATOM     14  C   UNL     1      -3.467   2.005   0.029  0.00  0.00    +0.404 C 
ATOM     15  C   UNL     1      -1.207   1.635   0.017  0.00  0.00    +0.095 C 
ATOM     16  N   UNL     1      -0.011   0.966   0.007  0.00  0.00    -0.347 N 
ATOM     17  H   UNL     1      -2.056   4.011  -4.400  0.00  0.00    +0.155 HD
ATOM     18  H   UNL     1       0.002  -0.004   0.002  0.00  0.00    +0.143 HD
ATOM     19  H   UNL     1       0.822   1.462   0.002  0.00  0.00    +0.143 HD
ATOM     20  N   UNL     1      -2.353   1.036   0.019  0.00  0.00    -0.300 N 
ATOM     21  H   UNL     1      -2.474   0.017   0.015  0.00  0.00    +0.168 HD
ENDROOT
BRANCH  13  22
ATOM     22  C   UNL     1      -3.466   4.434   0.896  0.00  0.00    +0.083 C 
ATOM     23  N   UNL     1      -3.939   5.219   1.566  0.00  0.00    -0.196 NA
ENDBRANCH  13  22
BRANCH  12  24
ATOM     24  C   UNL     1      -0.427   3.882   0.918  0.00  0.00    +0.080 C 
ATOM     25  N   UNL     1       0.274   4.457   1.602  0.00  0.00    -0.195 NA
ENDBRANCH  12  24
BRANCH  14  26
ATOM     26  O   UNL     1      -4.273   1.821  -1.137  0.00  0.00    -0.323 OA
BRANCH  26  27
ATOM     27  N   UNL     1      -4.859   0.536  -1.235  0.00  0.00    -0.088 NA
ATOM     28  C   UNL     1      -5.604   0.247  -2.235  0.00  0.00    +0.052 C 
ATOM     29  C   UNL     1      -5.857   1.275  -3.307  0.00  0.00    +0.064 C 
ATOM     30  C   UNL     1      -6.228  -1.120  -2.340  0.00  0.00    +0.064 C 
ENDBRANCH  26  27
ENDBRANCH  14  26
BRANCH  14  31
ATOM     31  O   UNL     1      -4.257   1.817   1.205  0.00  0.00    -0.323 OA
BRANCH  31  32
ATOM     32  N   UNL     1      -4.842   0.531   1.306  0.00  0.00    -0.088 NA
ATOM     33  C   UNL     1      -5.573   0.239   2.315  0.00  0.00    +0.052 C 
ATOM     34  C   UNL     1      -5.811   1.263   3.395  0.00  0.00    +0.064 C 
ATOM     35  C   UNL     1      -6.196  -1.129   2.424  0.00  0.00    +0.064 C 
ENDBRANCH  31  32
ENDBRANCH  14  31
TORSDOF 6
