REMARK  Name = ZINC20958120
REMARK  8 active torsions:
REMARK  status: ('A' for Active; 'I' for Inactive)
REMARK    1  A    between atoms: C_4  and  C_7
REMARK    2  A    between atoms: C_7  and  C_9
REMARK    3  A    between atoms: C_7  and  N_32
REMARK    4  A    between atoms: C_9  and  N_10
REMARK    5  A    between atoms: C_11  and  C_13
REMARK    6  A    between atoms: C_18  and  N_19
REMARK    7  A    between atoms: C_20  and  C_22
REMARK    8  A    between atoms: C_25  and  N_29
REMARK                            x       y       z     vdW  Elec       q    Type
REMARK                         _______ _______ _______ _____ _____    ______ ____
ROOT
ATOM      1  C   UNL     1       4.337  -2.871  -0.858  0.00  0.00    +0.058 A 
ATOM      2  C   UNL     1       5.347  -3.780  -1.178  0.00  0.00    +0.015 A 
ATOM      3  C   UNL     1       6.629  -3.331  -1.411  0.00  0.00    +0.001 A 
ATOM      4  C   UNL     1       6.922  -1.979  -1.328  0.00  0.00    +0.002 A 
ATOM      5  C   UNL     1       5.933  -1.067  -1.017  0.00  0.00    +0.024 A 
ATOM      6  C   UNL     1       4.637  -1.503  -0.775  0.00  0.00    +0.046 A 
ENDROOT
BRANCH   1   8
ATOM      7  N   UNL     1       2.701  -4.667  -0.577  0.00  0.00    -0.313 N 
ATOM      8  C   UNL     1       2.962  -3.345  -0.609  0.00  0.00    +0.246 C 
ATOM      9  O   UNL     1       2.065  -2.544  -0.432  0.00  0.00    -0.270 OA
ATOM     10  H   UNL     1       3.513  -5.392  -0.737  0.00  0.00    +0.149 HD
BRANCH   7  11
ATOM     11  C   UNL     1       1.337  -5.139  -0.330  0.00  0.00    +0.094 C 
BRANCH  11  12
ATOM     12  C   UNL     1       1.314  -6.669  -0.351  0.00  0.00    -0.020 C 
BRANCH  12  16
ATOM     13  C   UNL     1      -2.716  -8.038   0.015  0.00  0.00    +0.000 A 
ATOM     14  C   UNL     1      -2.060  -8.136  -1.198  0.00  0.00    +0.000 A 
ATOM     15  C   UNL     1      -0.756  -7.693  -1.316  0.00  0.00    +0.002 A 
ATOM     16  C   UNL     1      -0.108  -7.152  -0.222  0.00  0.00    -0.059 A 
ATOM     17  C   UNL     1      -0.762  -7.059   0.993  0.00  0.00    +0.002 A 
ATOM     18  C   UNL     1      -2.067  -7.498   1.110  0.00  0.00    +0.000 A 
ENDBRANCH  12  16
BRANCH  12  19
ATOM     19  N   UNL     1       2.111  -7.186   0.769  0.00  0.00    +0.385 N 
ATOM     20  C   UNL     1       1.911  -8.649   0.934  0.00  0.00    -0.078 C 
ATOM     21  C   UNL     1       3.157  -9.088   1.743  0.00  0.00    -0.020 C 
ATOM     22  C   UNL     1       4.281  -8.204   1.154  0.00  0.00    -0.020 C 
ATOM     23  C   UNL     1       3.557  -7.002   0.521  0.00  0.00    -0.078 C 
ATOM     24  H   UNL     1       1.779  -6.625   1.656  0.00  0.00    -0.081 HD
ENDBRANCH  12  19
ENDBRANCH  11  12
ENDBRANCH   7  11
ENDBRANCH   1   8
BRANCH   6  25
ATOM     25  N   UNL     1       3.639  -0.586  -0.457  0.00  0.00    -0.281 N 
ATOM     26  C   UNL     1       3.629   0.629  -1.041  0.00  0.00    +0.250 C 
ATOM     27  O   UNL     1       4.534   0.953  -1.785  0.00  0.00    -0.270 OA
ATOM     28  H   UNL     1       2.858  -0.853   0.270  0.00  0.00    +0.155 HD
BRANCH  26  29
ATOM     29  C   UNL     1       2.519   1.567  -0.775  0.00  0.00    +0.055 A 
ATOM     30  C   UNL     1       1.479   1.199   0.080  0.00  0.00    +0.017 A 
ATOM     31  C   UNL     1       0.443   2.077   0.319  0.00  0.00    +0.033 A 
ATOM     32  C   UNL     1       0.438   3.326  -0.278  0.00  0.00    +0.128 A 
ATOM     33  C   UNL     1       1.464   3.699  -1.125  0.00  0.00    +0.053 A 
ATOM     34  C   UNL     1       2.506   2.827  -1.378  0.00  0.00    +0.055 A 
ATOM     35 CL   UNL     1       3.795   3.297  -2.443  0.00  0.00    -0.083 Cl
BRANCH  32  36
ATOM     36  N   UNL     1      -0.676   4.264  -0.012  0.00  0.00    +0.056 N 
ATOM     37  O   UNL     1      -0.686   5.362  -0.540  0.00  0.00    -0.126 OA
ATOM     38  O   UNL     1      -1.582   3.939   0.734  0.00  0.00    -0.126 OA
ENDBRANCH  32  36
ENDBRANCH  26  29
ENDBRANCH   6  25
TORSDOF 8
