REMARK  Name = ZINC08720642
REMARK  10 active torsions:
REMARK  status: ('A' for Active; 'I' for Inactive)
REMARK    1  A    between atoms: C_1  and  C_2
REMARK    2  A    between atoms: C_2  and  N_3
REMARK    3  A    between atoms: C_4  and  C_28
REMARK    4  A    between atoms: C_7  and  S_8
REMARK    5  A    between atoms: S_8  and  C_9
REMARK    6  A    between atoms: C_9  and  C_10
REMARK    7  A    between atoms: N_12  and  C_13
REMARK    8  A    between atoms: C_15  and  C_24
REMARK    9  A    between atoms: C_18  and  N_19
REMARK   10  A    between atoms: C_32  and  C_33
REMARK                            x       y       z     vdW  Elec       q    Type
REMARK                         _______ _______ _______ _____ _____    ______ ____
ROOT
ATOM      1  C   UNL     1      -2.455   5.125  -0.207  0.00  0.00    +0.228 C 
ATOM      2  O   UNL     1      -1.446   5.790  -0.308  0.00  0.00    -0.275 OA
ATOM      3  N   UNL     1      -2.372   3.784  -0.103  0.00  0.00    -0.283 N 
ATOM      4  H   UNL     1      -3.180   3.247  -0.091  0.00  0.00    +0.155 HD
ENDROOT
BRANCH   3   5
ATOM      5  C   UNL     1      -1.118   3.165  -0.013  0.00  0.00    +0.055 A 
ATOM      6  C   UNL     1      -0.007   3.756  -0.596  0.00  0.00    +0.037 A 
ATOM      7  C   UNL     1       1.229   3.143  -0.506  0.00  0.00    +0.057 A 
ATOM      8  C   UNL     1       1.362   1.941   0.164  0.00  0.00    +0.014 A 
ATOM      9  C   UNL     1       0.261   1.344   0.747  0.00  0.00    +0.025 A 
ATOM     10  C   UNL     1      -0.984   1.949   0.658  0.00  0.00    +0.051 A 
BRANCH  10  11
ATOM     11  N   UNL     1      -2.102   1.345   1.243  0.00  0.00    -0.328 N 
ATOM     12  C   UNL     1      -1.720   0.103   1.964  0.00  0.00    +0.105 C 
ATOM     13  C   UNL     1      -2.901  -0.117   2.942  0.00  0.00    +0.020 C 
ATOM     14  C   UNL     1      -3.264   1.322   3.375  0.00  0.00    +0.020 C 
ATOM     15  C   UNL     1      -2.712   2.229   2.259  0.00  0.00    +0.105 C 
ENDBRANCH  10  11
BRANCH   7  16
ATOM     16  C   UNL     1       2.435   3.787  -1.141  0.00  0.00    +0.417 C 
ATOM     17  F   UNL     1       3.561   2.987  -0.920  0.00  0.00    -0.166 F 
ATOM     18  F   UNL     1       2.221   3.922  -2.517  0.00  0.00    -0.166 F 
ATOM     19  F   UNL     1       2.641   5.050  -0.575  0.00  0.00    -0.166 F 
ENDBRANCH   7  16
ENDBRANCH   3   5
BRANCH   1  20
ATOM     20  C   UNL     1      -3.803   5.799  -0.198  0.00  0.00    +0.173 C 
BRANCH  20  21
ATOM     21  S   UNL     1      -3.584   7.589  -0.351  0.00  0.00    -0.077 S 
BRANCH  21  26
ATOM     22  N   UNL     1      -5.721   9.396  -0.390  0.00  0.00    -0.302 N 
ATOM     23  C   UNL     1      -7.092   9.310  -0.325  0.00  0.00    +0.168 A 
ATOM     24  N   UNL     1      -7.393   8.037  -0.208  0.00  0.00    -0.128 NA
ATOM     25  N   UNL     1      -6.319   7.331  -0.202  0.00  0.00    -0.122 NA
ATOM     26  C   UNL     1      -5.267   8.108  -0.314  0.00  0.00    +0.192 A 
BRANCH  23  27
ATOM     27  C   UNL     1      -8.047  10.438  -0.370  0.00  0.00    +0.060 A 
ATOM     28  C   UNL     1      -7.964  11.700   0.376  0.00  0.00    +0.053 A 
ATOM     29  C   UNL     1      -9.043  12.415   0.017  0.00  0.00    +0.196 A 
ATOM     30  O   UNL     1      -9.762  11.708  -0.869  0.00  0.00    -0.467 OA
ATOM     31  C   UNL     1      -9.180  10.525  -1.117  0.00  0.00    +0.112 A 
ATOM     32  C   UNL     1      -9.697   9.470  -2.062  0.00  0.00    +0.087 C 
ENDBRANCH  23  27
BRANCH  22  34
ATOM     33  C   UNL     1      -4.620  10.875  -1.997  0.00  0.00    +0.027 C 
ATOM     34  C   UNL     1      -4.915  10.612  -0.519  0.00  0.00    +0.122 C 
ENDBRANCH  22  34
ENDBRANCH  21  26
ENDBRANCH  20  21
ENDBRANCH   1  20
TORSDOF 8
