REMARK  Name = ZINC51342302
REMARK  8 active torsions:
REMARK  status: ('A' for Active; 'I' for Inactive)
REMARK    1  A    between atoms: C_1  and  C_2
REMARK    2  A    between atoms: C_6  and  N_9
REMARK    3  A    between atoms: C_7  and  C_8
REMARK    4  A    between atoms: N_9  and  C_10
REMARK    5  A    between atoms: C_10  and  N_12
REMARK    6  A    between atoms: N_12  and  N_13
REMARK    7  A    between atoms: C_14  and  C_16
REMARK    8  A    between atoms: N_19  and  C_21
REMARK                            x       y       z     vdW  Elec       q    Type
REMARK                         _______ _______ _______ _____ _____    ______ ____
ROOT
ATOM      1  N   UNL     1      -0.123  -4.123   4.764  0.00  0.00    -0.230 N 
ATOM      2  C   UNL     1      -0.209  -4.799   5.927  0.00  0.00    +0.280 C 
ATOM      3  O   UNL     1      -0.285  -6.012   5.920  0.00  0.00    -0.267 OA
ATOM      4  H   UNL     1      -0.062  -3.155   4.769  0.00  0.00    +0.173 HD
ENDROOT
BRANCH   2   5
ATOM      5  C   UNL     1      -0.213  -4.066   7.208  0.00  0.00    +0.149 A 
ATOM      6  C   UNL     1      -0.293  -4.635   8.502  0.00  0.00    +0.054 A 
ATOM      7  C   UNL     1      -0.263  -3.589   9.361  0.00  0.00    +0.115 A 
ATOM      8  N   UNL     1      -0.170  -2.459   8.612  0.00  0.00    -0.238 N 
ATOM      9  N   UNL     1      -0.137  -2.759   7.363  0.00  0.00    -0.162 NA
BRANCH   8  10
ATOM     10  C   UNL     1      -0.113  -1.157   9.127  0.00  0.00    +0.084 A 
ATOM     11  C   UNL     1      -0.144  -0.950  10.500  0.00  0.00    +0.029 A 
ATOM     12  C   UNL     1      -0.087   0.335  11.005  0.00  0.00    +0.002 A 
ATOM     13  C   UNL     1       0.002   1.414  10.145  0.00  0.00    +0.002 A 
ATOM     14  C   UNL     1       0.033   1.212   8.778  0.00  0.00    +0.022 A 
ATOM     15  C   UNL     1      -0.018  -0.071   8.266  0.00  0.00    +0.066 A 
ATOM     16 CL   UNL     1       0.028  -0.325   6.549  0.00  0.00    -0.081 Cl
ENDBRANCH   8  10
ENDBRANCH   2   5
BRANCH   1  17
ATOM     17  N   UNL     1      -0.119  -4.819   3.548  0.00  0.00    -0.245 N 
ATOM     18  H   UNL     1      -0.179  -5.787   3.542  0.00  0.00    +0.172 HD
BRANCH  17  19
ATOM     19  C   UNL     1      -0.032  -4.143   2.385  0.00  0.00    +0.151 C 
ATOM     20  S   UNL     1      -0.028  -4.992   0.899  0.00  0.00    -0.017 S 
BRANCH  19  21
ATOM     21  N   UNL     1       0.051  -2.797   2.392  0.00  0.00    -0.296 N 
ATOM     22  H   UNL     1       0.129  -2.321   3.233  0.00  0.00    +0.154 HD
BRANCH  21  28
ATOM     23  C   UNL     1       1.865   0.776  -0.455  0.00  0.00    +0.044 C 
ATOM     24  C   UNL     1       0.894  -0.351  -0.220  0.00  0.00    -0.046 A 
ATOM     25  C   UNL     1      -0.025  -0.686  -1.198  0.00  0.00    +0.004 A 
ATOM     26  C   UNL     1      -0.918  -1.720  -0.987  0.00  0.00    +0.002 A 
ATOM     27  C   UNL     1      -0.895  -2.422   0.202  0.00  0.00    +0.023 A 
ATOM     28  C   UNL     1       0.026  -2.088   1.187  0.00  0.00    +0.036 A 
ATOM     29  C   UNL     1       0.925  -1.053   0.969  0.00  0.00    -0.026 A 
ATOM     30  C   UNL     1       1.931  -0.691   2.031  0.00  0.00    +0.046 C 
ENDBRANCH  21  28
ENDBRANCH  19  21
ENDBRANCH  17  19
ENDBRANCH   1  17
TORSDOF 6
