REMARK  Name = ZINC12788424
REMARK  3 active torsions:
REMARK  status: ('A' for Active; 'I' for Inactive)
REMARK    1  A    between atoms: C_1  and  O_2
REMARK    2  A    between atoms: O_2  and  C_3
REMARK    3  A    between atoms: C_6  and  C_9
REMARK                            x       y       z     vdW  Elec       q    Type
REMARK                         _______ _______ _______ _____ _____    ______ ____
ROOT
ATOM      1  C   UNL     1       2.545   3.734  -0.002  0.00  0.00    +0.144 C 
ATOM      2  C   UNL     1       1.175   3.092  -0.032  0.00  0.00    +0.028 A 
ATOM      3  C   UNL     1       0.011   3.878  -0.054  0.00  0.00    -0.004 A 
ATOM      4  C   UNL     1       0.060   5.279  -0.050  0.00  0.00    +0.009 A 
ATOM      5  C   UNL     1      -1.102   5.994  -0.073  0.00  0.00    +0.001 A 
ATOM      6  C   UNL     1      -2.336   5.354  -0.101  0.00  0.00    +0.001 A 
ATOM      7  C   UNL     1      -2.419   3.990  -0.106  0.00  0.00    +0.014 A 
ATOM      8  C   UNL     1      -1.250   3.228  -0.083  0.00  0.00    +0.047 A 
ATOM      9  C   UNL     1      -1.282   1.764  -0.092  0.00  0.00    +0.258 A 
ATOM     10  O   UNL     1      -2.347   1.174  -0.122  0.00  0.00    -0.267 OA
ATOM     11  N   UNL     1      -0.125   1.076  -0.064  0.00  0.00    -0.307 N 
ATOM     12  H   UNL     1      -0.152   0.106  -0.067  0.00  0.00    +0.170 HD
ATOM     13  C   UNL     1       1.101   1.713  -0.037  0.00  0.00    +0.142 A 
ATOM     14  N   UNL     1       2.220   0.976  -0.016  0.00  0.00    -0.214 NA
ATOM     15  C   UNL     1       3.451   1.464   0.011  0.00  0.00    +0.128 C 
ATOM     16  N   UNL     1       3.694   2.813   0.020  0.00  0.00    -0.280 N 
ATOM     17  C   UNL     1       4.960   3.299   0.049  0.00  0.00    +0.077 C 
ATOM     18  C   UNL     1       6.020   2.457   0.069  0.00  0.00    +0.015 C 
ATOM     19  C   UNL     1       5.814   1.070   0.060  0.00  0.00    +0.005 C 
ATOM     20  C   UNL     1       4.545   0.574   0.032  0.00  0.00    +0.044 C 
ENDROOT
BRANCH   1  24
ATOM     21  C   UNL     1       2.771   6.224   3.464  0.00  0.00    +0.120 A 
ATOM     22  C   UNL     1       2.631   4.851   3.603  0.00  0.00    +0.046 A 
ATOM     23  C   UNL     1       2.558   4.048   2.481  0.00  0.00    +0.009 A 
ATOM     24  C   UNL     1       2.625   4.612   1.220  0.00  0.00    -0.022 A 
ATOM     25  C   UNL     1       2.770   5.980   1.079  0.00  0.00    +0.009 A 
ATOM     26  C   UNL     1       2.837   6.787   2.198  0.00  0.00    +0.046 A 
BRANCH  21  28
ATOM     27  C   UNL     1       2.987   8.421   4.347  0.00  0.00    +0.277 C 
ATOM     28  O   UNL     1       2.844   7.016   4.566  0.00  0.00    -0.495 OA
ENDBRANCH  21  28
ENDBRANCH   1  24
TORSDOF 2
