REMARK  Name = ZINC09189937
REMARK  12 active torsions:
REMARK  status: ('A' for Active; 'I' for Inactive)
REMARK    1  A    between atoms: C_1  and  C_2
REMARK    2  A    between atoms: C_2  and  N_3
REMARK    3  A    between atoms: C_16  and  C_24
REMARK    4  A    between atoms: N_17  and  C_20
REMARK    5  A    between atoms: C_20  and  C_21
REMARK    6  A    between atoms: C_21  and  N_61
REMARK    7  A    between atoms: C_22  and  N_61
REMARK    8  A    between atoms: C_23  and  N_61
REMARK    9  A    between atoms: C_26  and  N_32
REMARK   10  A    between atoms: C_27  and  C_28
REMARK   11  A    between atoms: C_28  and  O_30
REMARK   12  A    between atoms: O_30  and  C_31
REMARK                            x       y       z     vdW  Elec       q    Type
REMARK                         _______ _______ _______ _____ _____    ______ ____
ROOT
ATOM      1  N   UNL     1       2.622   5.419   4.383  0.00  0.00    -0.270 N 
ATOM      2  C   UNL     1       3.341   5.468   3.203  0.00  0.00    +0.041 A 
ATOM      3  C   UNL     1       4.655   5.071   2.947  0.00  0.00    +0.024 A 
ATOM      4  C   UNL     1       5.127   5.236   1.655  0.00  0.00    +0.002 A 
ATOM      5  C   UNL     1       4.342   5.766   0.652  0.00  0.00    +0.000 A 
ATOM      6  C   UNL     1       3.031   6.165   0.893  0.00  0.00    +0.007 A 
ATOM      7  C   UNL     1       2.555   6.006   2.176  0.00  0.00    -0.002 A 
ATOM      8  C   UNL     1       1.224   6.318   2.786  0.00  0.00    +0.144 C 
ATOM      9  C   UNL     1       1.370   5.898   4.234  0.00  0.00    +0.240 C 
ATOM     10  O   UNL     1       0.521   5.977   5.097  0.00  0.00    -0.274 OA
ATOM     11  C   UNL     1       0.132   5.522   2.131  0.00  0.00    +0.083 A 
ATOM     12  C   UNL     1      -0.773   6.134   1.288  0.00  0.00    +0.142 A 
ATOM     13  C   UNL     1      -1.785   5.354   0.692  0.00  0.00    +0.068 A 
ATOM     14  C   UNL     1      -1.854   4.031   0.952  0.00  0.00    +0.022 A 
ATOM     15  N   UNL     1      -0.959   3.436   1.784  0.00  0.00    -0.314 N 
ATOM     16  C   UNL     1       0.018   4.148   2.375  0.00  0.00    +0.260 A 
ATOM     17  O   UNL     1       0.810   3.593   3.121  0.00  0.00    -0.267 OA
ATOM     18  C   UNL     1      -2.939   3.204   0.312  0.00  0.00    +0.064 C 
ATOM     19  O   UNL     1      -0.700   7.457   1.030  0.00  0.00    -0.441 OA
ATOM     20  C   UNL     1      -0.005   8.268   1.844  0.00  0.00    +0.196 C 
ATOM     21  C   UNL     1       0.929   7.788   2.707  0.00  0.00    +0.117 C 
ENDROOT
BRANCH  20  22
ATOM     22  N   UNL     1      -0.244   9.615   1.805  0.00  0.00    -0.329 N 
ATOM     23  H   UNL     1       0.485  10.241   1.933  0.00  0.00    +0.145 HD
ATOM     24  H   UNL     1      -1.143   9.943   1.649  0.00  0.00    +0.145 HD
ENDBRANCH  20  22
BRANCH   1  26
ATOM     25  C   UNL     1       2.878   3.405   5.748  0.00  0.00    +0.025 C 
ATOM     26  C   UNL     1       3.158   4.906   5.647  0.00  0.00    +0.110 C 
ENDBRANCH   1  26
BRANCH  21  27
ATOM     27  C   UNL     1       1.627   8.679   3.535  0.00  0.00    +0.341 C 
ATOM     28  O   UNL     1       1.315   9.856   3.563  0.00  0.00    -0.245 OA
BRANCH  27  29
ATOM     29  O   UNL     1       2.645   8.232   4.302  0.00  0.00    -0.465 OA
ATOM     30  C   UNL     1       3.312   9.194   5.122  0.00  0.00    +0.280 C 
ENDBRANCH  27  29
ENDBRANCH  21  27
BRANCH  15  31
ATOM     31  C   UNL     1      -1.063   1.998   2.045  0.00  0.00    +0.106 C 
BRANCH  31  32
ATOM     32  C   UNL     1      -0.234   1.231   1.012  0.00  0.00    -0.058 C 
BRANCH  32  35
ATOM     33  C   UNL     1      -1.709  -0.689   1.047  0.00  0.00    -0.097 C 
ATOM     34  C   UNL     1       0.624  -0.965   0.460  0.00  0.00    -0.097 C 
ATOM     35  N   UNL     1      -0.332  -0.215   1.302  0.00  0.00    +0.377 N 
ATOM     36  H   UNL     1      -0.102  -0.374   2.290  0.00  0.00    -0.083 HD
ENDBRANCH  32  35
ENDBRANCH  31  32
ENDBRANCH  15  31
TORSDOF 7
