REMARK  Name = ZINC49735062
REMARK  8 active torsions:
REMARK  status: ('A' for Active; 'I' for Inactive)
REMARK    1  A    between atoms: C_6  and  C_7
REMARK    2  A    between atoms: N_11  and  C_15
REMARK    3  A    between atoms: C_15  and  C_16
REMARK    4  A    between atoms: C_16  and  N_17
REMARK    5  A    between atoms: C_18  and  C_20
REMARK    6  A    between atoms: C_23  and  N_29
REMARK    7  A    between atoms: C_24  and  N_26
REMARK    8  A    between atoms: N_29  and  C_30
REMARK                            x       y       z     vdW  Elec       q    Type
REMARK                         _______ _______ _______ _____ _____    ______ ____
ROOT
ATOM      1  N   UNL     1       2.100  -6.812   1.064  0.00  0.00    -0.310 N 
ATOM      2  C   UNL     1       2.576  -7.326   2.216  0.00  0.00    +0.244 C 
ATOM      3  O   UNL     1       2.075  -7.006   3.276  0.00  0.00    -0.270 OA
ATOM      4  H   UNL     1       2.500  -7.067   0.218  0.00  0.00    +0.149 HD
ENDROOT
BRANCH   2   5
ATOM      5  C   UNL     1       3.703  -8.277   2.189  0.00  0.00    +0.039 A 
ATOM      6  C   UNL     1       4.284  -8.641   0.971  0.00  0.00    +0.015 A 
ATOM      7  C   UNL     1       5.335  -9.528   0.950  0.00  0.00    +0.026 A 
ATOM      8  C   UNL     1       5.821 -10.062   2.140  0.00  0.00    +0.058 A 
ATOM      9  C   UNL     1       5.245  -9.702   3.354  0.00  0.00    +0.148 A 
ATOM     10  C   UNL     1       4.197  -8.811   3.383  0.00  0.00    +0.047 A 
BRANCH   9  11
ATOM     11  N   UNL     1       5.764 -10.273   4.617  0.00  0.00    +0.058 N 
ATOM     12  O   UNL     1       5.343  -9.877   5.679  0.00  0.00    -0.126 OA
ATOM     13  O   UNL     1       6.610 -11.137   4.588  0.00  0.00    -0.126 OA
ENDBRANCH   9  11
BRANCH   8  14
ATOM     14  N   UNL     1       6.884 -10.959   2.115  0.00  0.00    -0.339 N 
ATOM     15  H   UNL     1       7.164 -11.402   2.931  0.00  0.00    +0.146 HD
BRANCH  14  16
ATOM     16  C   UNL     1       7.582 -11.233   0.856  0.00  0.00    +0.071 C 
ATOM     17  C   UNL     1       7.812 -12.699   0.481  0.00  0.00    +0.024 C 
ATOM     18  C   UNL     1       8.986 -11.833   0.943  0.00  0.00    +0.024 C 
ENDBRANCH  14  16
ENDBRANCH   8  14
ENDBRANCH   2   5
BRANCH   1  19
ATOM     19  C   UNL     1       0.981  -5.867   1.090  0.00  0.00    +0.124 C 
BRANCH  19  20
ATOM     20  C   UNL     1       0.640  -5.440  -0.339  0.00  0.00    +0.136 C 
BRANCH  20  25
ATOM     21  C   UNL     1      -1.453  -0.949  -0.104  0.00  0.00    +0.028 C 
ATOM     22  C   UNL     1      -1.403  -2.301  -0.194  0.00  0.00    +0.080 C 
ATOM     23  C   UNL     1      -0.230  -3.201  -0.216  0.00  0.00    +0.260 C 
ATOM     24  O   UNL     1       0.906  -2.772  -0.147  0.00  0.00    -0.269 OA
ATOM     25  N   UNL     1      -0.479  -4.496  -0.313  0.00  0.00    -0.227 N 
ATOM     26  C   UNL     1      -1.740  -4.967  -0.389  0.00  0.00    +0.286 C 
ATOM     27  O   UNL     1      -2.111  -6.122  -0.481  0.00  0.00    -0.262 OA
ATOM     28  S   UNL     1      -2.736  -3.486  -0.313  0.00  0.00    -0.026 S 
BRANCH  21  34
ATOM     29  C   UNL     1       0.809  -0.556  -1.058  0.00  0.00    +0.009 A 
ATOM     30  C   UNL     1       1.966   0.189  -1.137  0.00  0.00    +0.020 A 
ATOM     31  C   UNL     1       2.114   1.329  -0.363  0.00  0.00    +0.041 A 
ATOM     32  C   UNL     1       1.102   1.728   0.495  0.00  0.00    +0.020 A 
ATOM     33  C   UNL     1      -0.060   0.993   0.585  0.00  0.00    +0.009 A 
ATOM     34  C   UNL     1      -0.217  -0.160  -0.194  0.00  0.00    -0.024 A 
ATOM     35 CL   UNL     1       3.575   2.261  -0.469  0.00  0.00    -0.084 Cl
ENDBRANCH  21  34
ENDBRANCH  20  25
ENDBRANCH  19  20
ENDBRANCH   1  19
TORSDOF 8
