REMARK  Name = ZINC17268813
REMARK  9 active torsions:
REMARK  status: ('A' for Active; 'I' for Inactive)
REMARK    1  A    between atoms: C_3  and  C_6
REMARK    2  A    between atoms: C_6  and  C_7
REMARK    3  A    between atoms: C_7  and  N_8
REMARK    4  A    between atoms: C_12  and  C_14
REMARK    5  A    between atoms: C_14  and  S_15
REMARK    6  A    between atoms: S_15  and  C_16
REMARK    7  A    between atoms: N_20  and  C_21
REMARK    8  A    between atoms: C_24  and  O_27
REMARK    9  A    between atoms: O_27  and  C_28
REMARK                            x       y       z     vdW  Elec       q    Type
REMARK                         _______ _______ _______ _____ _____    ______ ____
ROOT
ATOM      1  S   UNL     1       8.897  -0.985  -5.570  0.00  0.00    -0.075 S 
ENDROOT
BRANCH   1   2
ATOM      2  C   UNL     1      10.536  -1.573  -5.298  0.00  0.00    +0.214 A 
ATOM      3  N   UNL     1      11.109  -1.780  -4.132  0.00  0.00    -0.101 NA
ATOM      4  N   UNL     1      12.309  -2.209  -4.291  0.00  0.00    -0.022 NA
ATOM      5  N   UNL     1      12.589  -2.307  -5.545  0.00  0.00    -0.038 NA
ATOM      6  N   UNL     1      11.443  -1.901  -6.252  0.00  0.00    -0.187 N 
BRANCH   6   7
ATOM      7  C   UNL     1      11.275  -1.846  -7.644  0.00  0.00    +0.070 A 
ATOM      8  C   UNL     1      10.041  -2.143  -8.206  0.00  0.00    +0.031 A 
ATOM      9  C   UNL     1       9.875  -2.083  -9.576  0.00  0.00    +0.048 A 
ATOM     10  C   UNL     1      10.943  -1.738 -10.390  0.00  0.00    +0.130 A 
ATOM     11  C   UNL     1      12.178  -1.446  -9.829  0.00  0.00    +0.048 A 
ATOM     12  C   UNL     1      12.344  -1.500  -8.459  0.00  0.00    +0.031 A 
BRANCH  10  13
ATOM     13  O   UNL     1      10.781  -1.685 -11.739  0.00  0.00    -0.406 OA
BRANCH  13  14
ATOM     14  C   UNL     1       9.483  -1.997 -12.248  0.00  0.00    +0.575 C 
ATOM     15  F   UNL     1       8.547  -1.101 -11.721  0.00  0.00    -0.133 F 
ATOM     16  F   UNL     1       9.492  -1.895 -13.644  0.00  0.00    -0.133 F 
ATOM     17  F   UNL     1       9.138  -3.302 -11.879  0.00  0.00    -0.133 F 
ENDBRANCH  13  14
ENDBRANCH  10  13
ENDBRANCH   6   7
ENDBRANCH   1   2
BRANCH   1  18
ATOM     18  C   UNL     1       8.345  -0.791  -3.857  0.00  0.00    +0.173 C 
BRANCH  18  23
ATOM     19  N   UNL     1       4.410   0.614  -1.478  0.00  0.00    -0.299 N 
ATOM     20  C   UNL     1       5.034   0.392  -2.653  0.00  0.00    +0.306 C 
ATOM     21  O   UNL     1       4.452   0.603  -3.699  0.00  0.00    -0.252 OA
ATOM     22  N   UNL     1       6.303  -0.062  -2.667  0.00  0.00    -0.240 N 
ATOM     23  C   UNL     1       6.926  -0.283  -3.841  0.00  0.00    +0.231 C 
ATOM     24  O   UNL     1       6.346  -0.073  -4.885  0.00  0.00    -0.274 OA
ATOM     25  H   UNL     1       4.875   0.446  -0.644  0.00  0.00    +0.150 HD
ATOM     26  H   UNL     1       6.767  -0.230  -1.832  0.00  0.00    +0.159 HD
BRANCH  19  27
ATOM     27  C   UNL     1       3.031   1.107  -1.463  0.00  0.00    +0.111 C 
BRANCH  27  28
ATOM     28  C   UNL     1       2.565   1.272  -0.015  0.00  0.00    +0.061 C 
BRANCH  28  31
ATOM     29  C   UNL     1      -1.213   1.761   0.017  0.00  0.00    +0.008 A 
ATOM     30  C   UNL     1      -0.013   1.076   0.008  0.00  0.00    +0.011 A 
ATOM     31  C   UNL     1       1.146   1.780   0.001  0.00  0.00    -0.009 A 
ATOM     32  S   UNL     1       0.555   3.464   0.015  0.00  0.00    -0.102 S 
ATOM     33  C   UNL     1      -1.196   3.116   0.030  0.00  0.00    +0.045 A 
ENDBRANCH  28  31
ENDBRANCH  27  28
ENDBRANCH  19  27
ENDBRANCH  18  23
ENDBRANCH   1  18
TORSDOF 9
