REMARK  Name = ZINC39710317
REMARK  12 active torsions:
REMARK  status: ('A' for Active; 'I' for Inactive)
REMARK    1  A    between atoms: C_1  and  C_2
REMARK    2  A    between atoms: C_9  and  C_14
REMARK    3  A    between atoms: C_14  and  C_16
REMARK    4  A    between atoms: C_14  and  N_26
REMARK    5  A    between atoms: N_21  and  C_22
REMARK    6  A    between atoms: C_22  and  C_23
REMARK    7  A    between atoms: C_22  and  C_24
REMARK    8  A    between atoms: C_22  and  C_25
REMARK    9  A    between atoms: N_26  and  C_27
REMARK   10  A    between atoms: N_26  and  C_35
REMARK   11  A    between atoms: C_27  and  C_28
REMARK   12  A    between atoms: C_35  and  C_36
REMARK                            x       y       z     vdW  Elec       q    Type
REMARK                         _______ _______ _______ _____ _____    ______ ____
ROOT
ATOM      1  C   UNL     1       1.790  -4.799   2.467  0.00  0.00    -0.008 C 
ENDROOT
BRANCH   1  10
ATOM      2  C   UNL     1      -2.645  -7.841  -2.232  0.00  0.00    +0.044 C 
ATOM      3  C   UNL     1      -2.274  -7.343  -0.859  0.00  0.00    -0.050 A 
ATOM      4  C   UNL     1      -2.930  -7.865   0.257  0.00  0.00    +0.005 A 
ATOM      5  C   UNL     1      -2.649  -7.466   1.525  0.00  0.00    +0.024 A 
ATOM      6  C   UNL     1      -1.665  -6.489   1.765  0.00  0.00    +0.040 A 
ATOM      7  N   UNL     1      -1.398  -6.106   3.013  0.00  0.00    -0.285 N 
ATOM      8  C   UNL     1      -0.487  -5.194   3.309  0.00  0.00    +0.223 C 
ATOM      9  O   UNL     1      -0.286  -4.885   4.469  0.00  0.00    -0.275 OA
ATOM     10  C   UNL     1       0.306  -4.538   2.201  0.00  0.00    +0.088 C 
ATOM     11  C   UNL     1       0.006  -4.972   0.779  0.00  0.00    -0.006 C 
ATOM     12  C   UNL     1      -0.957  -5.921   0.605  0.00  0.00    -0.007 A 
ATOM     13  C   UNL     1      -1.305  -6.400  -0.733  0.00  0.00    +0.012 A 
ATOM     14  H   UNL     1      -1.895  -6.515   3.739  0.00  0.00    +0.155 HD
ENDBRANCH   1  10
BRANCH   1  15
ATOM     15  C   UNL     1       2.152  -4.299   3.867  0.00  0.00    +0.205 C 
ATOM     16  N   UNL     1       1.262  -4.896   4.872  0.00  0.00    -0.152 NA
ATOM     17  N   UNL     1       0.639  -3.995   5.438  0.00  0.00    -0.070 NA
ATOM     18  N   UNL     1       0.966  -2.727   4.961  0.00  0.00    -0.179 N 
ATOM     19  N   UNL     1       1.913  -2.845   3.973  0.00  0.00    -0.183 NA
ATOM     20  H   UNL     1       0.586  -1.892   5.277  0.00  0.00    +0.191 HD
BRANCH  19  21
ATOM     21  C   UNL     1       1.419  -2.298   2.702  0.00  0.00    +0.035 C 
ATOM     22  C   UNL     1      -0.111  -2.321   2.697  0.00  0.00    +0.029 C 
ATOM     23  C   UNL     1       1.908  -0.857   2.542  0.00  0.00    +0.029 C 
ATOM     24  C   UNL     1       1.946  -3.147   1.543  0.00  0.00    +0.029 C 
ENDBRANCH  19  21
ENDBRANCH   1  15
BRANCH   1  25
ATOM     25  N   UNL     1       2.057  -6.241   2.378  0.00  0.00    +0.392 N 
ATOM     26  H   UNL     1       1.409  -6.740   2.968  0.00  0.00    -0.080 HD
BRANCH  25  27
ATOM     27  C   UNL     1       3.431  -6.512   2.821  0.00  0.00    -0.042 C 
BRANCH  27  28
ATOM     28  C   UNL     1       4.393  -5.678   2.015  0.00  0.00    -0.064 A 
ATOM     29  C   UNL     1       4.834  -6.126   0.784  0.00  0.00    +0.003 A 
ATOM     30  C   UNL     1       5.716  -5.361   0.045  0.00  0.00    +0.020 A 
ATOM     31  C   UNL     1       6.158  -4.146   0.537  0.00  0.00    +0.041 A 
ATOM     32  C   UNL     1       5.716  -3.697   1.769  0.00  0.00    +0.020 A 
ATOM     33  C   UNL     1       4.830  -4.461   2.505  0.00  0.00    +0.003 A 
ATOM     34 CL   UNL     1       7.266  -3.184  -0.391  0.00  0.00    -0.084 Cl
ENDBRANCH  27  28
ENDBRANCH  25  27
BRANCH  25  35
ATOM     35  C   UNL     1       1.895  -6.684   0.987  0.00  0.00    -0.002 C 
BRANCH  35  36
ATOM     36  C   UNL     1       1.974  -8.187   0.925  0.00  0.00    +0.089 A 
ATOM     37  C   UNL     1       0.927  -9.031   0.940  0.00  0.00    +0.042 A 
ATOM     38  C   UNL     1       1.455 -10.341   0.866  0.00  0.00    +0.041 A 
ATOM     39  C   UNL     1       2.793 -10.219   0.811  0.00  0.00    +0.195 A 
ATOM     40  O   UNL     1       3.102  -8.912   0.842  0.00  0.00    -0.470 OA
ENDBRANCH  35  36
ENDBRANCH  25  35
ENDBRANCH   1  25
TORSDOF 8
