REMARK  Name = ZINC58166281
REMARK  11 active torsions:
REMARK  status: ('A' for Active; 'I' for Inactive)
REMARK    1  A    between atoms: C_1  and  C_2
REMARK    2  A    between atoms: C_2  and  C_3
REMARK    3  A    between atoms: C_2  and  C_4
REMARK    4  A    between atoms: C_4  and  C_5
REMARK    5  A    between atoms: N_7  and  C_8
REMARK    6  A    between atoms: C_8  and  C_10
REMARK    7  A    between atoms: C_8  and  C_13
REMARK    8  A    between atoms: C_10  and  C_11
REMARK    9  A    between atoms: C_10  and  C_12
REMARK   10  A    between atoms: C_19  and  C_22
REMARK   11  A    between atoms: C_22  and  N_23
REMARK                            x       y       z     vdW  Elec       q    Type
REMARK                         _______ _______ _______ _____ _____    ______ ____
ROOT
ATOM      1  C   UNL     1      -3.926  -4.433  -0.734  0.00  0.00    +0.236 C 
ATOM      2  O   UNL     1      -4.713  -3.575  -1.075  0.00  0.00    -0.274 OA
ATOM      3  N   UNL     1      -4.269  -5.734  -0.815  0.00  0.00    -0.300 N 
ATOM      4  C   UNL     1      -3.300  -6.786  -0.483  0.00  0.00    +0.108 C 
ATOM      5  C   UNL     1      -3.210  -7.764  -1.659  0.00  0.00    +0.019 C 
ATOM      6  C   UNL     1      -4.611  -8.283  -1.993  0.00  0.00    +0.008 C 
ATOM      7  C   UNL     1      -5.505  -7.112  -2.406  0.00  0.00    +0.020 C 
ATOM      8  C   UNL     1      -5.622  -6.126  -1.233  0.00  0.00    +0.112 C 
ENDROOT
BRANCH   1   9
ATOM      9  C   UNL     1      -2.564  -4.044  -0.219  0.00  0.00    +0.162 C 
BRANCH   9  12
ATOM     10  C   UNL     1      -0.878  -2.421  -0.899  0.00  0.00    +0.214 C 
ATOM     11  O   UNL     1      -0.024  -3.201  -0.536  0.00  0.00    -0.276 OA
ATOM     12  N   UNL     1      -2.181  -2.747  -0.784  0.00  0.00    -0.304 N 
ATOM     13  H   UNL     1      -2.865  -2.124  -1.075  0.00  0.00    +0.149 HD
BRANCH  10  14
ATOM     14  C   UNL     1      -0.484  -1.088  -1.480  0.00  0.00    +0.098 C 
BRANCH  14  16
ATOM     15  C   UNL     1       1.444   0.328  -2.201  0.00  0.00    +0.008 C 
ATOM     16  C   UNL     1       1.041  -0.970  -1.499  0.00  0.00    -0.008 C 
ATOM     17  C   UNL     1       1.569  -0.958  -0.063  0.00  0.00    +0.008 C 
ENDBRANCH  14  16
ENDBRANCH  10  14
ENDBRANCH   9  12
BRANCH   9  18
ATOM     18  C   UNL     1      -2.605  -3.943   1.307  0.00  0.00    +0.012 C 
ATOM     19  C   UNL     1      -3.718  -2.980   1.725  0.00  0.00    +0.009 C 
ATOM     20  C   UNL     1      -2.878  -5.326   1.902  0.00  0.00    +0.009 C 
ENDBRANCH   9  18
ENDBRANCH   1   9
BRANCH   7  21
ATOM     21  C   UNL     1      -6.895  -7.635  -2.772  0.00  0.00    +0.089 C 
BRANCH  21  22
ATOM     22  N   UNL     1      -6.798  -8.489  -3.964  0.00  0.00    -0.299 NA
ATOM     23  C   UNL     1      -6.390  -7.707  -5.139  0.00  0.00    +0.103 C 
ATOM     24  C   UNL     1      -6.126  -8.657  -6.313  0.00  0.00    +0.122 C 
ATOM     25  N   UNL     1      -7.315  -9.500  -6.509  0.00  0.00    -0.314 N 
ATOM     26  C   UNL     1      -7.866 -10.208  -5.343  0.00  0.00    +0.122 C 
ATOM     27  C   UNL     1      -8.062  -9.197  -4.208  0.00  0.00    +0.103 C 
ATOM     28  C   UNL     1      -7.902  -9.625  -7.762  0.00  0.00    +0.099 A 
ATOM     29  C   UNL     1      -7.292  -9.045  -8.870  0.00  0.00    +0.042 A 
ATOM     30  C   UNL     1      -7.887  -9.177 -10.112  0.00  0.00    +0.005 A 
ATOM     31  C   UNL     1      -9.077  -9.887 -10.204  0.00  0.00    +0.018 A 
ATOM     32  C   UNL     1      -9.627 -10.435  -9.063  0.00  0.00    +0.084 A 
ATOM     33  N   UNL     1      -9.034 -10.298  -7.892  0.00  0.00    -0.350 N 
ATOM     34  H   UNL     1      -9.440 -10.697  -7.107  0.00  0.00    +0.166 HD
ENDBRANCH  21  22
ENDBRANCH   7  21
TORSDOF 7
