REMARK  Name = ZINC06620012
REMARK  8 active torsions:
REMARK  status: ('A' for Active; 'I' for Inactive)
REMARK    1  A    between atoms: C_1  and  C_2
REMARK    2  A    between atoms: C_2  and  C_3
REMARK    3  A    between atoms: C_12  and  C_13
REMARK    4  A    between atoms: C_13  and  C_15
REMARK    5  A    between atoms: C_15  and  S_16
REMARK    6  A    between atoms: S_16  and  C_17
REMARK    7  A    between atoms: N_21  and  C_22
REMARK    8  A    between atoms: C_26  and  C_28
REMARK                            x       y       z     vdW  Elec       q    Type
REMARK                         _______ _______ _______ _____ _____    ______ ____
ROOT
ATOM      1  C   UNL     1      -1.412  -0.526   0.013  0.00  0.00    +0.175 C 
ATOM      2  O   UNL     1      -2.345   0.251   0.026  0.00  0.00    -0.291 OA
ENDROOT
BRANCH   1  12
ATOM      3  C   UNL     1      -3.745  -4.879   0.014  0.00  0.00    -0.024 A 
ATOM      4  C   UNL     1      -5.045  -4.420   0.029  0.00  0.00    +0.005 A 
ATOM      5  C   UNL     1      -5.314  -3.060   0.037  0.00  0.00    +0.001 A 
ATOM      6  C   UNL     1      -4.282  -2.147   0.031  0.00  0.00    +0.011 A 
ATOM      7  C   UNL     1      -2.965  -2.596   0.022  0.00  0.00    +0.010 A 
ATOM      8  C   UNL     1      -2.689  -3.973   0.007  0.00  0.00    +0.050 A 
ATOM      9  N   UNL     1      -1.318  -4.125  -0.006  0.00  0.00    -0.360 N 
ATOM     10  H   UNL     1      -0.858  -4.979  -0.015  0.00  0.00    +0.165 HD
ATOM     11  C   UNL     1      -0.706  -2.925  -0.006  0.00  0.00    +0.095 A 
ATOM     12  C   UNL     1      -1.652  -1.923   0.007  0.00  0.00    +0.043 A 
BRANCH   3  14
ATOM     13  C   UNL     1      -3.236  -6.845   1.437  0.00  0.00    +0.009 C 
ATOM     14  C   UNL     1      -3.468  -6.360   0.004  0.00  0.00    +0.034 C 
ENDBRANCH   3  14
ENDBRANCH   1  12
BRANCH   1  15
ATOM     15  C   UNL     1       0.002  -0.004   0.002  0.00  0.00    +0.157 C 
BRANCH  15  16
ATOM     16  S   UNL     1      -0.022   1.806   0.012  0.00  0.00    -0.076 S 
BRANCH  16  17
ATOM     17  C   UNL     1       1.708   2.135  -0.003  0.00  0.00    +0.214 A 
ATOM     18  N   UNL     1       2.675   1.242  -0.017  0.00  0.00    -0.101 NA
ATOM     19  N   UNL     1       3.821   1.820  -0.025  0.00  0.00    -0.022 NA
ATOM     20  N   UNL     1       3.679   3.101  -0.017  0.00  0.00    -0.038 NA
ATOM     21  N   UNL     1       2.297   3.358  -0.007  0.00  0.00    -0.187 N 
BRANCH  21  22
ATOM     22  C   UNL     1       1.663   4.609  -0.001  0.00  0.00    +0.070 A 
ATOM     23  C   UNL     1       0.467   4.785  -0.685  0.00  0.00    +0.028 A 
ATOM     24  C   UNL     1      -0.158   6.017  -0.672  0.00  0.00    +0.002 A 
ATOM     25  C   UNL     1       0.411   7.076   0.011  0.00  0.00    +0.003 A 
ATOM     26  C   UNL     1       1.604   6.904   0.687  0.00  0.00    -0.048 A 
ATOM     27  C   UNL     1       2.232   5.673   0.683  0.00  0.00    +0.031 A 
ATOM     28  C   UNL     1       2.222   8.061   1.430  0.00  0.00    +0.044 C 
ENDBRANCH  21  22
ENDBRANCH  16  17
ENDBRANCH  15  16
ENDBRANCH   1  15
TORSDOF 6
