REMARK  Name = ZINC19353481
REMARK  11 active torsions:
REMARK  status: ('A' for Active; 'I' for Inactive)
REMARK    1  A    between atoms: C_1  and  C_2
REMARK    2  A    between atoms: C_2  and  C_3
REMARK    3  A    between atoms: C_8  and  N_9
REMARK    4  A    between atoms: C_10  and  C_12
REMARK    5  A    between atoms: C_12  and  N_13
REMARK    6  A    between atoms: C_19  and  C_21
REMARK    7  A    between atoms: C_21  and  S_22
REMARK    8  A    between atoms: S_22  and  C_23
REMARK    9  A    between atoms: C_25  and  C_35
REMARK   10  A    between atoms: C_26  and  C_34
REMARK   11  A    between atoms: N_27  and  C_28
REMARK                            x       y       z     vdW  Elec       q    Type
REMARK                         _______ _______ _______ _____ _____    ______ ____
ROOT
ATOM      1  N   UNL     1      -2.356  -0.596  -5.975  0.00  0.00    -0.291 NA
ATOM      2  C   UNL     1      -2.647  -2.035  -6.015  0.00  0.00    +0.104 C 
ATOM      3  C   UNL     1      -3.728  -2.306  -7.066  0.00  0.00    +0.123 C 
ATOM      4  N   UNL     1      -3.292  -1.724  -8.345  0.00  0.00    -0.298 N 
ATOM      5  C   UNL     1      -2.853  -0.320  -8.357  0.00  0.00    +0.123 C 
ATOM      6  C   UNL     1      -1.806  -0.128  -7.255  0.00  0.00    +0.104 C 
ATOM      7  C   UNL     1      -3.296  -2.458  -9.475  0.00  0.00    +0.226 C 
ATOM      8  O   UNL     1      -3.662  -3.614  -9.447  0.00  0.00    -0.275 OA
ENDROOT
BRANCH   1   9
ATOM      9  C   UNL     1      -1.451  -0.272  -4.864  0.00  0.00    +0.180 C 
BRANCH   9  11
ATOM     10  N   UNL     1      -1.505  -0.315  -2.391  0.00  0.00    -0.284 N 
ATOM     11  C   UNL     1      -2.147  -0.541  -3.555  0.00  0.00    +0.231 C 
ATOM     12  O   UNL     1      -3.285  -0.961  -3.548  0.00  0.00    -0.274 OA
ATOM     13  H   UNL     1      -0.620   0.082  -2.395  0.00  0.00    +0.155 HD
BRANCH  10  19
ATOM     14  C   UNL     1      -1.349  -1.119  -0.119  0.00  0.00    -0.026 A 
ATOM     15  C   UNL     1      -1.954  -1.445   1.079  0.00  0.00    +0.005 A 
ATOM     16  C   UNL     1      -3.322  -1.313   1.222  0.00  0.00    +0.000 A 
ATOM     17  C   UNL     1      -4.090  -0.854   0.168  0.00  0.00    +0.002 A 
ATOM     18  C   UNL     1      -3.491  -0.525  -1.033  0.00  0.00    +0.023 A 
ATOM     19  C   UNL     1      -2.116  -0.652  -1.178  0.00  0.00    +0.037 A 
BRANCH  14  21
ATOM     20  C   UNL     1       0.819   0.078   0.019  0.00  0.00    +0.009 C 
ATOM     21  C   UNL     1       0.143  -1.263  -0.275  0.00  0.00    +0.033 C 
ENDBRANCH  14  21
ENDBRANCH  10  19
ENDBRANCH   9  11
ENDBRANCH   1   9
BRANCH   7  22
ATOM     22  C   UNL     1      -2.845  -1.841 -10.775  0.00  0.00    +0.173 C 
BRANCH  22  23
ATOM     23  S   UNL     1      -2.965  -3.073 -12.101  0.00  0.00    -0.080 S 
BRANCH  23  24
ATOM     24  C   UNL     1      -2.411  -2.210 -13.534  0.00  0.00    +0.148 A 
ATOM     25  N   UNL     1      -2.008  -0.962 -13.572  0.00  0.00    -0.338 N 
ATOM     26  C   UNL     1      -1.660  -0.644 -14.830  0.00  0.00    +0.034 A 
ATOM     27  C   UNL     1      -1.850  -1.724 -15.607  0.00  0.00    +0.037 A 
ATOM     28  N   UNL     1      -2.322  -2.728 -14.790  0.00  0.00    -0.321 N 
ATOM     29  C   UNL     1      -1.590  -1.821 -17.088  0.00  0.00    +0.065 C 
ATOM     30  C   UNL     1      -1.146   0.695 -15.292  0.00  0.00    +0.065 C 
ATOM     31  H   UNL     1      -1.968  -0.362 -12.810  0.00  0.00    +0.168 HD
BRANCH  28  32
ATOM     32  C   UNL     1      -2.666  -4.092 -15.197  0.00  0.00    +0.089 C 
ATOM     33  C   UNL     1      -4.142  -4.358 -14.893  0.00  0.00    +0.025 C 
ATOM     34  C   UNL     1      -4.502  -5.783 -15.318  0.00  0.00    +0.002 C 
ATOM     35  C   UNL     1      -3.635  -6.780 -14.546  0.00  0.00    +0.000 C 
ATOM     36  C   UNL     1      -2.159  -6.514 -14.850  0.00  0.00    +0.002 C 
ATOM     37  C   UNL     1      -1.799  -5.089 -14.425  0.00  0.00    +0.025 C 
ENDBRANCH  28  32
ENDBRANCH  23  24
ENDBRANCH  22  23
ENDBRANCH   7  22
TORSDOF 8
