REMARK  Name = ZINC42953148
REMARK  9 active torsions:
REMARK  status: ('A' for Active; 'I' for Inactive)
REMARK    1  A    between atoms: C_1  and  C_2
REMARK    2  A    between atoms: C_2  and  C_3
REMARK    3  A    between atoms: C_3  and  C_5
REMARK    4  A    between atoms: C_3  and  N_22
REMARK    5  A    between atoms: C_5  and  C_7
REMARK    6  A    between atoms: C_5  and  N_14
REMARK    7  A    between atoms: N_14  and  C_15
REMARK    8  A    between atoms: N_14  and  C_16
REMARK    9  A    between atoms: C_16  and  C_17
REMARK                            x       y       z     vdW  Elec       q    Type
REMARK                         _______ _______ _______ _____ _____    ______ ____
ROOT
ATOM      1  C   UNL     1       0.872  -2.034   1.171  0.00  0.00    -0.052 C 
ENDROOT
BRANCH   1   2
ATOM      2  C   UNL     1      -0.498  -2.659   1.241  0.00  0.00    -0.062 A 
ATOM      3  C   UNL     1      -1.291  -2.713   0.110  0.00  0.00    +0.003 A 
ATOM      4  C   UNL     1      -2.547  -3.287   0.174  0.00  0.00    +0.015 A 
ATOM      5  C   UNL     1      -3.010  -3.806   1.369  0.00  0.00    +0.018 A 
ATOM      6  C   UNL     1      -2.216  -3.750   2.501  0.00  0.00    +0.015 A 
ATOM      7  C   UNL     1      -0.958  -3.182   2.435  0.00  0.00    +0.003 A 
ATOM      8 BR   UNL     1      -4.729  -4.590   1.457  0.00  0.00    -0.050 Br
ENDBRANCH   1   2
BRANCH   1   9
ATOM      9  N   UNL     1       1.519  -2.412  -0.093  0.00  0.00    +0.386 N 
ATOM     10  C   UNL     1       2.854  -1.803  -0.161  0.00  0.00    -0.095 C 
ATOM     11  H   UNL     1       0.960  -2.086  -0.867  0.00  0.00    -0.081 HD
BRANCH   9  12
ATOM     12  C   UNL     1       1.643  -3.874  -0.161  0.00  0.00    -0.003 C 
BRANCH  12  13
ATOM     13  C   UNL     1       2.193  -4.269  -1.507  0.00  0.00    +0.089 A 
ATOM     14  C   UNL     1       3.495  -4.413  -1.813  0.00  0.00    +0.042 A 
ATOM     15  C   UNL     1       3.556  -4.790  -3.175  0.00  0.00    +0.041 A 
ATOM     16  C   UNL     1       2.288  -4.855  -3.619  0.00  0.00    +0.195 A 
ATOM     17  O   UNL     1       1.467  -4.544  -2.602  0.00  0.00    -0.470 OA
ENDBRANCH  12  13
ENDBRANCH   9  12
ENDBRANCH   1   9
BRANCH   1  18
ATOM     18  C   UNL     1       0.742  -0.511   1.242  0.00  0.00    -0.085 C 
BRANCH  18  19
ATOM     19  N   UNL     1      -0.010  -0.139   2.447  0.00  0.00    +0.379 N 
ATOM     20  H   UNL     1      -0.929  -0.554   2.411  0.00  0.00    -0.090 HD
ATOM     21  H   UNL     1       0.478  -0.473   3.265  0.00  0.00    -0.090 HD
ATOM     22  H   UNL     1      -0.096   0.865   2.494  0.00  0.00    -0.090 HD
ENDBRANCH  18  19
BRANCH  18  24
ATOM     23  C   UNL     1      -0.019   1.526   0.010  0.00  0.00    +0.002 C 
ATOM     24  C   UNL     1       0.002  -0.004   0.002  0.00  0.00    -0.021 C 
ENDBRANCH  18  24
ENDBRANCH   1  18
TORSDOF 7
