REMARK  Name = ZINC35744173
REMARK  13 active torsions:
REMARK  status: ('A' for Active; 'I' for Inactive)
REMARK    1  A    between atoms: C_1  and  C_2
REMARK    2  A    between atoms: C_7  and  O_8
REMARK    3  A    between atoms: O_8  and  C_9
REMARK    4  A    between atoms: C_9  and  C_10
REMARK    5  A    between atoms: C_10  and  C_12
REMARK    6  A    between atoms: C_10  and  O_38
REMARK    7  A    between atoms: C_12  and  N_13
REMARK    8  A    between atoms: N_13  and  C_14
REMARK    9  A    between atoms: N_13  and  C_21
REMARK   10  A    between atoms: C_14  and  C_15
REMARK   11  A    between atoms: C_21  and  C_22
REMARK   12  A    between atoms: C_23  and  C_32
REMARK   13  A    between atoms: C_26  and  N_27
REMARK                            x       y       z     vdW  Elec       q    Type
REMARK                         _______ _______ _______ _____ _____    ______ ____
ROOT
ATOM      1  N   UNL     1       0.159   1.369   7.590  0.00  0.00    +0.387 N 
ATOM      2  H   UNL     1      -0.453   2.022   8.056  0.00  0.00    -0.081 HD
ENDROOT
BRANCH   1   3
ATOM      3  C   UNL     1      -0.448   0.949   6.320  0.00  0.00    -0.043 C 
BRANCH   3   4
ATOM      4  C   UNL     1      -1.049   2.166   5.614  0.00  0.00    +0.135 C 
BRANCH   4   5
ATOM      5  O   UNL     1      -1.994   2.800   6.478  0.00  0.00    -0.390 OA
ATOM      6  H   UNL     1      -2.730   2.231   6.741  0.00  0.00    +0.210 HD
ENDBRANCH   4   5
BRANCH   4   7
ATOM      7  C   UNL     1      -1.752   1.716   4.332  0.00  0.00    +0.258 C 
BRANCH   7   8
ATOM      8  O   UNL     1      -2.212   2.862   3.613  0.00  0.00    -0.489 OA
BRANCH   8  15
ATOM      9  C   UNL     1      -3.129   5.115   2.177  0.00  0.00    +0.047 C 
ATOM     10  C   UNL     1      -3.336   3.703   1.693  0.00  0.00    -0.009 A 
ATOM     11  C   UNL     1      -3.992   3.471   0.499  0.00  0.00    +0.007 A 
ATOM     12  C   UNL     1      -4.183   2.176   0.055  0.00  0.00    +0.000 A 
ATOM     13  C   UNL     1      -3.717   1.110   0.803  0.00  0.00    +0.004 A 
ATOM     14  C   UNL     1      -3.060   1.337   1.996  0.00  0.00    +0.046 A 
ATOM     15  C   UNL     1      -2.863   2.636   2.442  0.00  0.00    +0.124 A 
ENDBRANCH   8  15
ENDBRANCH   7   8
ENDBRANCH   4   7
ENDBRANCH   3   4
ENDBRANCH   1   3
BRANCH   1  16
ATOM     16  C   UNL     1       1.452   2.015   7.324  0.00  0.00    -0.042 C 
BRANCH  16  17
ATOM     17  C   UNL     1       1.223   3.323   6.611  0.00  0.00    -0.064 A 
ATOM     18  C   UNL     1       1.727   3.514   5.338  0.00  0.00    +0.002 A 
ATOM     19  C   UNL     1       1.517   4.713   4.684  0.00  0.00    +0.000 A 
ATOM     20  C   UNL     1       0.802   5.722   5.303  0.00  0.00    +0.000 A 
ATOM     21  C   UNL     1       0.297   5.531   6.575  0.00  0.00    +0.000 A 
ATOM     22  C   UNL     1       0.503   4.330   7.228  0.00  0.00    +0.002 A 
ENDBRANCH  16  17
ENDBRANCH   1  16
BRANCH   1  23
ATOM     23  C   UNL     1       0.366   0.195   8.447  0.00  0.00    -0.035 C 
BRANCH  23  24
ATOM     24  C   UNL     1       0.874   0.639   9.794  0.00  0.00    +0.025 A 
ATOM     25  C   UNL     1       2.225   0.687  10.197  0.00  0.00    +0.117 A 
ATOM     26  N   UNL     1       2.264   1.126  11.434  0.00  0.00    -0.076 NA
ATOM     27  O   UNL     1       0.934   1.370  11.853  0.00  0.00    -0.339 OA
ATOM     28  C   UNL     1       0.113   1.069  10.832  0.00  0.00    +0.222 A 
BRANCH  25  29
ATOM     29  C   UNL     1       3.397   0.308   9.368  0.00  0.00    +0.004 A 
ATOM     30  C   UNL     1       4.542   1.102   9.372  0.00  0.00    +0.010 A 
ATOM     31  C   UNL     1       5.629   0.745   8.600  0.00  0.00    +0.001 A 
ATOM     32  C   UNL     1       5.583  -0.399   7.823  0.00  0.00    +0.000 A 
ATOM     33  C   UNL     1       4.448  -1.190   7.815  0.00  0.00    +0.001 A 
ATOM     34  C   UNL     1       3.358  -0.845   8.587  0.00  0.00    +0.010 A 
ENDBRANCH  25  29
BRANCH  28  35
ATOM     35  N   UNL     1      -1.266   1.176  10.839  0.00  0.00    -0.299 N 
ATOM     36  C   UNL     1      -2.157   0.836   9.721  0.00  0.00    +0.108 C 
ATOM     37  C   UNL     1      -3.600   1.139  10.177  0.00  0.00    +0.020 C 
ATOM     38  C   UNL     1      -3.394   2.165  11.322  0.00  0.00    +0.020 C 
ATOM     39  C   UNL     1      -2.085   1.644  11.972  0.00  0.00    +0.108 C 
ENDBRANCH  28  35
ENDBRANCH  23  24
ENDBRANCH   1  23
TORSDOF 12
