REMARK  Name = ZINC67193470
REMARK  8 active torsions:
REMARK  status: ('A' for Active; 'I' for Inactive)
REMARK    1  A    between atoms: C_1  and  C_2
REMARK    2  A    between atoms: C_7  and  N_8
REMARK    3  A    between atoms: N_11  and  N_12
REMARK    4  A    between atoms: C_13  and  C_15
REMARK    5  A    between atoms: C_15  and  C_16
REMARK    6  A    between atoms: C_16  and  C_18
REMARK    7  A    between atoms: C_16  and  N_19
REMARK    8  A    between atoms: C_20  and  C_22
REMARK                            x       y       z     vdW  Elec       q    Type
REMARK                         _______ _______ _______ _____ _____    ______ ____
ROOT
ATOM      1  N   UNL     1      -0.175   1.375   4.750  0.00  0.00    -0.233 N 
ATOM      2  C   UNL     1      -0.274   2.042   5.917  0.00  0.00    +0.231 C 
ATOM      3  O   UNL     1      -0.347   1.431   6.961  0.00  0.00    -0.274 OA
ATOM      4  H   UNL     1      -0.116   1.864   3.915  0.00  0.00    +0.173 HD
ENDROOT
BRANCH   1   8
ATOM      5  N   UNL     1       0.025  -0.015   2.417  0.00  0.00    -0.268 N 
ATOM      6  C   UNL     1      -0.056  -0.694   3.578  0.00  0.00    +0.320 C 
ATOM      7  O   UNL     1      -0.040  -1.910   3.573  0.00  0.00    -0.251 OA
ATOM      8  N   UNL     1      -0.156  -0.026   4.745  0.00  0.00    -0.218 N 
ATOM      9  H   UNL     1       0.078   0.954   2.425  0.00  0.00    +0.156 HD
ATOM     10  H   UNL     1      -0.214  -0.515   5.580  0.00  0.00    +0.174 HD
BRANCH   5  17
ATOM     11  C   UNL     1      -1.267   1.183   0.182  0.00  0.00    +0.045 C 
ATOM     12  C   UNL     1      -0.585  -0.158   0.085  0.00  0.00    -0.029 A 
ATOM     13  C   UNL     1      -0.571  -0.841  -1.116  0.00  0.00    +0.005 A 
ATOM     14  C   UNL     1       0.054  -2.071  -1.206  0.00  0.00    +0.000 A 
ATOM     15  C   UNL     1       0.666  -2.622  -0.095  0.00  0.00    +0.002 A 
ATOM     16  C   UNL     1       0.654  -1.945   1.108  0.00  0.00    +0.023 A 
ATOM     17  C   UNL     1       0.033  -0.706   1.200  0.00  0.00    +0.038 A 
ENDBRANCH   5  17
ENDBRANCH   1   8
BRANCH   2  18
ATOM     18  C   UNL     1      -0.294   3.549   5.923  0.00  0.00    +0.119 C 
BRANCH  18  19
ATOM     19  C   UNL     1      -0.413   4.052   7.363  0.00  0.00    +0.079 C 
ATOM     20  C   UNL     1      -0.559   5.575   7.361  0.00  0.00    +0.028 C 
BRANCH  19  21
ATOM     21  N   UNL     1       0.789   3.677   8.111  0.00  0.00    -0.312 N 
ATOM     22  C   UNL     1       0.735   3.544   9.451  0.00  0.00    +0.216 C 
ATOM     23  O   UNL     1      -0.310   3.735  10.038  0.00  0.00    -0.276 OA
ATOM     24  H   UNL     1       1.625   3.525   7.643  0.00  0.00    +0.149 HD
BRANCH  22  25
ATOM     25  C   UNL     1       1.972   3.159  10.222  0.00  0.00    +0.075 C 
ATOM     26  C   UNL     1       2.472   1.798   9.735  0.00  0.00    +0.013 C 
ATOM     27  C   UNL     1       3.727   1.406  10.517  0.00  0.00    +0.001 C 
ATOM     28  C   UNL     1       3.395   1.325  12.008  0.00  0.00    +0.000 C 
ATOM     29  C   UNL     1       2.895   2.686  12.495  0.00  0.00    +0.001 C 
ATOM     30  C   UNL     1       1.639   3.077  11.713  0.00  0.00    +0.013 C 
ENDBRANCH  22  25
ENDBRANCH  19  21
ENDBRANCH  18  19
ENDBRANCH   2  18
TORSDOF 6
