REMARK  Name = ZINC36014241
REMARK  6 active torsions:
REMARK  status: ('A' for Active; 'I' for Inactive)
REMARK    1  A    between atoms: C_4  and  C_7
REMARK    2  A    between atoms: C_7  and  C_8
REMARK    3  A    between atoms: N_12  and  C_30
REMARK    4  A    between atoms: N_17  and  S_20
REMARK    5  A    between atoms: S_20  and  C_23
REMARK    6  A    between atoms: C_30  and  C_31
REMARK                            x       y       z     vdW  Elec       q    Type
REMARK                         _______ _______ _______ _____ _____    ______ ____
ROOT
ATOM      1  C   UNL     1       4.291  -0.938   1.131  0.00  0.00    +0.023 C 
ATOM      2  C   UNL     1       5.518  -1.823   1.092  0.00  0.00    +0.201 C 
ATOM      3  O   UNL     1       6.599  -1.516   0.635  0.00  0.00    -0.277 OA
ATOM      4  N   UNL     1       5.207  -3.011   1.651  0.00  0.00    -0.309 N 
ATOM      5  C   UNL     1       3.805  -2.998   2.078  0.00  0.00    +0.006 C 
ATOM      6  N   UNL     1       3.393  -1.576   2.123  0.00  0.00    +0.401 N 
ATOM      7  C   UNL     1       3.669  -3.619   3.467  0.00  0.00    +0.023 C 
ATOM      8  C   UNL     1       4.134  -5.078   3.419  0.00  0.00    +0.109 C 
ATOM      9  N   UNL     1       3.391  -5.776   2.361  0.00  0.00    -0.177 NA
ATOM     10  C   UNL     1       3.398  -5.215   1.004  0.00  0.00    +0.109 C 
ATOM     11  C   UNL     1       2.940  -3.755   1.072  0.00  0.00    +0.023 C 
ATOM     12  H   UNL     1       3.544  -1.190   3.043  0.00  0.00    -0.082 HD
ATOM     13  H   UNL     1       2.427  -1.475   1.847  0.00  0.00    -0.082 HD
ENDROOT
BRANCH   9  14
ATOM     14  S   UNL     1       2.561  -7.170   2.693  0.00  0.00    +0.061 S 
ATOM     15  O   UNL     1       2.444  -7.875   1.465  0.00  0.00    -0.153 OA
ATOM     16  O   UNL     1       3.168  -7.741   3.844  0.00  0.00    -0.153 OA
BRANCH  14  17
ATOM     17  C   UNL     1       0.928  -6.705   3.164  0.00  0.00    +0.106 A 
ATOM     18  C   UNL     1       0.638  -6.452   4.492  0.00  0.00    +0.031 A 
ATOM     19  C   UNL     1      -0.642  -6.086   4.863  0.00  0.00    +0.040 A 
ATOM     20  C   UNL     1      -1.634  -5.973   3.904  0.00  0.00    +0.124 A 
ATOM     21  C   UNL     1      -1.343  -6.226   2.574  0.00  0.00    +0.040 A 
ATOM     22  C   UNL     1      -0.060  -6.587   2.205  0.00  0.00    +0.031 A 
ATOM     23  F   UNL     1      -2.886  -5.616   4.265  0.00  0.00    -0.205 F 
ENDBRANCH  14  17
ENDBRANCH   9  14
BRANCH   1  24
ATOM     24  C   UNL     1       3.621  -0.894  -0.244  0.00  0.00    +0.028 C 
BRANCH  24  28
ATOM     25  C   UNL     1       0.205   1.666  -0.085  0.00  0.00    +0.000 A 
ATOM     26  C   UNL     1       1.443   2.185  -0.413  0.00  0.00    +0.000 A 
ATOM     27  C   UNL     1       2.549   1.357  -0.464  0.00  0.00    +0.003 A 
ATOM     28  C   UNL     1       2.416   0.009  -0.187  0.00  0.00    -0.048 A 
ATOM     29  C   UNL     1       1.178  -0.510   0.143  0.00  0.00    +0.003 A 
ATOM     30  C   UNL     1       0.072   0.318   0.193  0.00  0.00    +0.000 A 
ENDBRANCH  24  28
ENDBRANCH   1  24
BRANCH   4  31
ATOM     31  C   UNL     1       6.128  -4.139   1.808  0.00  0.00    +0.141 C 
BRANCH  31  32
ATOM     32  C   UNL     1       7.051  -3.876   2.971  0.00  0.00    -0.030 A 
ATOM     33  C   UNL     1       8.162  -3.072   2.802  0.00  0.00    +0.008 A 
ATOM     34  C   UNL     1       9.008  -2.830   3.868  0.00  0.00    +0.038 A 
ATOM     35  C   UNL     1       8.742  -3.394   5.104  0.00  0.00    +0.123 A 
ATOM     36  C   UNL     1       7.628  -4.199   5.272  0.00  0.00    +0.038 A 
ATOM     37  C   UNL     1       6.781  -4.435   4.206  0.00  0.00    +0.008 A 
ATOM     38  F   UNL     1       9.569  -3.159   6.147  0.00  0.00    -0.205 F 
ENDBRANCH  31  32
ENDBRANCH   4  31
TORSDOF 6
