REMARK  Name = ZINC38659200
REMARK  12 active torsions:
REMARK  status: ('A' for Active; 'I' for Inactive)
REMARK    1  A    between atoms: C_1  and  C_2
REMARK    2  A    between atoms: C_5  and  C_7
REMARK    3  A    between atoms: C_12  and  O_21
REMARK    4  A    between atoms: C_16  and  N_20
REMARK    5  A    between atoms: C_17  and  C_18
REMARK    6  A    between atoms: O_21  and  C_22
REMARK    7  A    between atoms: C_22  and  C_24
REMARK    8  A    between atoms: C_25  and  C_26
REMARK    9  A    between atoms: C_29  and  C_32
REMARK   10  A    between atoms: C_32  and  C_33
REMARK   11  A    between atoms: C_32  and  C_34
REMARK   12  A    between atoms: C_32  and  C_35
REMARK                            x       y       z     vdW  Elec       q    Type
REMARK                         _______ _______ _______ _____ _____    ______ ____
ROOT
ATOM      1  C   UNL     1       1.729  -3.316   0.004  0.00  0.00    +0.134 C 
ATOM      2  C   UNL     1       2.561  -3.232  -1.248  0.00  0.00    +0.011 A 
ATOM      3  C   UNL     1       3.043  -4.395  -1.824  0.00  0.00    +0.012 A 
ATOM      4  C   UNL     1       3.808  -4.338  -2.972  0.00  0.00    +0.047 A 
ATOM      5  C   UNL     1       4.096  -3.111  -3.553  0.00  0.00    +0.135 A 
ATOM      6  C   UNL     1       3.614  -1.945  -2.980  0.00  0.00    +0.093 A 
ATOM      7  C   UNL     1       2.845  -2.004  -1.825  0.00  0.00    +0.138 A 
ATOM      8  O   UNL     1       2.381  -0.855  -1.276  0.00  0.00    -0.441 OA
ATOM      9  C   UNL     1       1.984  -0.837   0.007  0.00  0.00    +0.199 C 
ATOM     10  C   UNL     1       1.660  -1.970   0.669  0.00  0.00    +0.101 C 
ENDROOT
BRANCH   1  15
ATOM     11  C   UNL     1      -2.865  -3.432  -2.073  0.00  0.00    +0.086 C 
ATOM     12  C   UNL     1      -1.662  -3.819  -1.254  0.00  0.00    +0.102 A 
ATOM     13  C   UNL     1      -1.555  -4.916  -0.482  0.00  0.00    +0.044 A 
ATOM     14  C   UNL     1      -0.267  -4.883   0.101  0.00  0.00    +0.046 A 
ATOM     15  C   UNL     1       0.336  -3.769  -0.351  0.00  0.00    +0.118 A 
ATOM     16  O   UNL     1      -0.511  -3.132  -1.175  0.00  0.00    -0.464 OA
ENDBRANCH   1  15
BRANCH   9  17
ATOM     17  N   UNL     1       1.904   0.365   0.664  0.00  0.00    -0.328 N 
ATOM     18  H   UNL     1       2.133   1.187   0.201  0.00  0.00    +0.145 HD
ATOM     19  H   UNL     1       1.619   0.394   1.591  0.00  0.00    +0.145 HD
ENDBRANCH   9  17
BRANCH  10  20
ATOM     20  C   UNL     1       1.242  -1.883   2.036  0.00  0.00    +0.101 C 
ATOM     21  N   UNL     1       0.911  -1.814   3.120  0.00  0.00    -0.191 NA
ENDBRANCH  10  20
BRANCH   5  22
ATOM     22  O   UNL     1       4.849  -3.053  -4.683  0.00  0.00    -0.423 OA
BRANCH  22  23
ATOM     23  C   UNL     1       4.311  -3.522  -5.827  0.00  0.00    +0.337 C 
ATOM     24  O   UNL     1       3.150  -3.883  -5.851  0.00  0.00    -0.245 OA
BRANCH  23  25
ATOM     25  C   UNL     1       5.125  -3.598  -7.040  0.00  0.00    +0.092 C 
ATOM     26  C   UNL     1       4.587  -4.067  -8.185  0.00  0.00    +0.015 C 
BRANCH  26  27
ATOM     27  C   UNL     1       5.405  -4.143  -9.406  0.00  0.00    -0.025 A 
ATOM     28  C   UNL     1       6.743  -3.735  -9.382  0.00  0.00    +0.008 A 
ATOM     29  C   UNL     1       7.503  -3.809 -10.529  0.00  0.00    +0.005 A 
ATOM     30  C   UNL     1       6.946  -4.286 -11.703  0.00  0.00    -0.042 A 
ATOM     31  C   UNL     1       5.623  -4.691 -11.735  0.00  0.00    +0.005 A 
ATOM     32  C   UNL     1       4.852  -4.629 -10.594  0.00  0.00    +0.008 A 
BRANCH  30  33
ATOM     33  C   UNL     1       7.785  -4.364 -12.953  0.00  0.00    -0.013 C 
ATOM     34  C   UNL     1       8.982  -5.285 -12.708  0.00  0.00    +0.015 C 
ATOM     35  C   UNL     1       6.939  -4.920 -14.100  0.00  0.00    +0.015 C 
ATOM     36  C   UNL     1       8.284  -2.965 -13.320  0.00  0.00    +0.015 C 
ENDBRANCH  30  33
ENDBRANCH  26  27
ENDBRANCH  23  25
ENDBRANCH  22  23
ENDBRANCH   5  22
TORSDOF 8
