REMARK  Name = ZINC04746637
REMARK  5 active torsions:
REMARK  status: ('A' for Active; 'I' for Inactive)
REMARK    1  A    between atoms: C_1  and  C_2
REMARK    2  A    between atoms: C_7  and  C_15
REMARK    3  A    between atoms: C_9  and  C_13
REMARK    4  A    between atoms: C_10  and  N_12
REMARK    5  A    between atoms: C_23  and  C_25
REMARK                            x       y       z     vdW  Elec       q    Type
REMARK                         _______ _______ _______ _____ _____    ______ ____
ROOT
ATOM      1  C   UNL     1      -0.013   1.086   0.008  0.00  0.00    +0.008 C 
ATOM      2  C   UNL     1      -0.729   1.579   1.267  0.00  0.00    +0.003 C 
ATOM      3  C   UNL     1      -2.162   1.044   1.287  0.00  0.00    +0.078 C 
ATOM      4  C   UNL     1      -2.855   1.493   2.552  0.00  0.00    +0.115 C 
ATOM      5  C   UNL     1      -2.158   1.685   3.687  0.00  0.00    +0.046 C 
ATOM      6  C   UNL     1      -2.856   2.130   4.950  0.00  0.00    +0.101 C 
ATOM      7  C   UNL     1      -4.197   2.721   4.618  0.00  0.00    +0.098 C 
ATOM      8  C   UNL     1      -4.779   2.471   3.420  0.00  0.00    +0.198 C 
ATOM      9  O   UNL     1      -4.186   1.691   2.504  0.00  0.00    -0.445 OA
ATOM     10  C   UNL     1      -0.766   1.482   3.735  0.00  0.00    +0.166 C 
ATOM     11  O   UNL     1      -0.175   1.647   4.783  0.00  0.00    -0.292 OA
ATOM     12  C   UNL     1       0.004   1.065   2.511  0.00  0.00    +0.060 C 
ATOM     13  C   UNL     1       1.411   1.664   2.561  0.00  0.00    +0.016 C 
ENDROOT
BRANCH   6  14
ATOM     14  C   UNL     1      -3.044   0.944   5.861  0.00  0.00    -0.035 A 
ATOM     15  C   UNL     1      -3.788  -0.142   5.437  0.00  0.00    +0.004 A 
ATOM     16  C   UNL     1      -3.957  -1.232   6.270  0.00  0.00    +0.000 A 
ATOM     17  C   UNL     1      -3.391  -1.232   7.532  0.00  0.00    +0.000 A 
ATOM     18  C   UNL     1      -2.652  -0.144   7.957  0.00  0.00    +0.000 A 
ATOM     19  C   UNL     1      -2.478   0.944   7.122  0.00  0.00    +0.004 A 
ENDBRANCH   6  14
BRANCH   8  20
ATOM     20  N   UNL     1      -6.001   3.028   3.138  0.00  0.00    -0.328 N 
ATOM     21  H   UNL     1      -6.427   2.856   2.284  0.00  0.00    +0.145 HD
ATOM     22  H   UNL     1      -6.439   3.594   3.793  0.00  0.00    +0.145 HD
ENDBRANCH   8  20
BRANCH   7  23
ATOM     23  C   UNL     1      -4.863   3.554   5.574  0.00  0.00    +0.101 C 
ATOM     24  N   UNL     1      -5.392   4.215   6.332  0.00  0.00    -0.191 NA
ENDBRANCH   7  23
TORSDOF 3
