REMARK  Name = ZINC59385907
REMARK  10 active torsions:
REMARK  status: ('A' for Active; 'I' for Inactive)
REMARK    1  A    between atoms: C_1  and  C_2
REMARK    2  A    between atoms: C_2  and  O_3
REMARK    3  A    between atoms: O_3  and  C_4
REMARK    4  A    between atoms: C_7  and  C_10
REMARK    5  A    between atoms: C_12  and  C_19
REMARK    6  A    between atoms: C_13  and  C_18
REMARK    7  A    between atoms: N_21  and  N_22
REMARK    8  A    between atoms: C_23  and  C_24
REMARK    9  A    between atoms: C_29  and  O_30
REMARK   10  A    between atoms: O_30  and  C_31
REMARK                            x       y       z     vdW  Elec       q    Type
REMARK                         _______ _______ _______ _____ _____    ______ ____
ROOT
ATOM      1  C   UNL     1       1.371  -5.799   1.801  0.00  0.00    +0.142 C 
ATOM      2  C   UNL     1       2.551  -6.506   1.166  0.00  0.00    +0.057 C 
ATOM      3  C   UNL     1       3.276  -7.340   1.941  0.00  0.00    +0.019 C 
ATOM      4  N   UNL     1       2.956  -7.538   3.255  0.00  0.00    -0.273 N 
ATOM      5  C   UNL     1       1.926  -6.939   3.867  0.00  0.00    +0.304 C 
ATOM      6  O   UNL     1       1.720  -7.178   5.041  0.00  0.00    -0.252 OA
ATOM      7  N   UNL     1       1.112  -6.081   3.223  0.00  0.00    -0.288 N 
ATOM      8  C   UNL     1       4.457  -8.063   1.349  0.00  0.00    +0.061 C 
ATOM      9  H   UNL     1       3.506  -8.146   3.774  0.00  0.00    +0.156 HD
ATOM     10  H   UNL     1       0.371  -5.658   3.686  0.00  0.00    +0.151 HD
ENDROOT
BRANCH   1  14
ATOM     11  C   UNL     1       1.978  -1.589   1.383  0.00  0.00    +0.121 A 
ATOM     12  C   UNL     1       1.211  -2.277   0.453  0.00  0.00    +0.046 A 
ATOM     13  C   UNL     1       1.017  -3.638   0.590  0.00  0.00    +0.009 A 
ATOM     14  C   UNL     1       1.585  -4.314   1.653  0.00  0.00    -0.022 A 
ATOM     15  C   UNL     1       2.350  -3.631   2.582  0.00  0.00    +0.009 A 
ATOM     16  C   UNL     1       2.552  -2.272   2.445  0.00  0.00    +0.046 A 
BRANCH  11  17
ATOM     17  O   UNL     1       2.171  -0.251   1.249  0.00  0.00    -0.492 OA
BRANCH  17  19
ATOM     18  C   UNL     1       1.877   1.881   0.148  0.00  0.00    +0.048 C 
ATOM     19  C   UNL     1       1.549   0.386   0.131  0.00  0.00    +0.225 C 
ENDBRANCH  17  19
ENDBRANCH  11  17
ENDBRANCH   1  14
BRANCH   2  20
ATOM     20  C   UNL     1       2.881  -6.300  -0.196  0.00  0.00    +0.263 C 
ATOM     21  O   UNL     1       2.256  -6.876  -1.068  0.00  0.00    -0.269 OA
ATOM     22  N   UNL     1       3.888  -5.467  -0.527  0.00  0.00    -0.203 N 
ATOM     23  H   UNL     1       4.339  -4.954   0.162  0.00  0.00    +0.178 HD
BRANCH  22  24
ATOM     24  N   UNL     1       4.283  -5.343  -1.865  0.00  0.00    -0.187 NA
ATOM     25  C   UNL     1       5.252  -4.540  -2.184  0.00  0.00    +0.142 C 
BRANCH  25  26
ATOM     26  C   UNL     1       5.668  -4.409  -3.592  0.00  0.00    +0.036 A 
ATOM     27  C   UNL     1       6.714  -3.551  -3.938  0.00  0.00    +0.013 A 
ATOM     28  C   UNL     1       7.098  -3.433  -5.257  0.00  0.00    +0.001 A 
ATOM     29  C   UNL     1       6.450  -4.161  -6.241  0.00  0.00    +0.004 A 
ATOM     30  C   UNL     1       5.413  -5.013  -5.911  0.00  0.00    +0.046 A 
ATOM     31  C   UNL     1       5.019  -5.149  -4.590  0.00  0.00    +0.129 A 
BRANCH  31  32
ATOM     32  O   UNL     1       4.004  -5.990  -4.264  0.00  0.00    -0.494 OA
ATOM     33  C   UNL     1       3.390  -6.712  -5.334  0.00  0.00    +0.277 C 
ENDBRANCH  31  32
ENDBRANCH  25  26
ENDBRANCH  22  24
ENDBRANCH   2  20
TORSDOF 7
