REMARK  Name = ZINC04125417
REMARK  7 active torsions:
REMARK  status: ('A' for Active; 'I' for Inactive)
REMARK    1  A    between atoms: C_1  and  C_2
REMARK    2  A    between atoms: C_2  and  C_3
REMARK    3  A    between atoms: C_9  and  C_11
REMARK    4  A    between atoms: C_12  and  N_27
REMARK    5  A    between atoms: C_17  and  O_24
REMARK    6  A    between atoms: O_24  and  C_25
REMARK    7  A    between atoms: C_25  and  C_26
REMARK                            x       y       z     vdW  Elec       q    Type
REMARK                         _______ _______ _______ _____ _____    ______ ____
ROOT
ATOM      1  C   UNL     1      -8.120  -0.952   1.217  0.00  0.00    +0.097 A 
ATOM      2  C   UNL     1      -8.923  -1.994   1.622  0.00  0.00    +0.053 A 
ATOM      3  C   UNL     1     -10.347  -1.930   1.317  0.00  0.00    +0.030 A 
ATOM      4  C   UNL     1     -11.346  -2.869   1.629  0.00  0.00    +0.022 A 
ATOM      5  C   UNL     1     -12.664  -2.610   1.240  0.00  0.00    +0.005 A 
ATOM      6  C   UNL     1     -13.697  -3.522   1.531  0.00  0.00    +0.055 A 
ATOM      7  C   UNL     1     -14.974  -3.244   1.140  0.00  0.00    +0.121 A 
ATOM      8  C   UNL     1     -15.273  -2.063   0.452  0.00  0.00    +0.048 A 
ATOM      9  C   UNL     1     -14.299  -1.161   0.155  0.00  0.00    +0.032 A 
ATOM     10  C   UNL     1     -12.971  -1.412   0.542  0.00  0.00    +0.073 A 
ATOM     11  N   UNL     1     -11.998  -0.541   0.261  0.00  0.00    -0.239 NA
ATOM     12  C   UNL     1     -10.758  -0.764   0.616  0.00  0.00    +0.111 A 
ATOM     13  S   UNL     1      -9.255   0.163   0.415  0.00  0.00    -0.062 S 
ENDROOT
BRANCH   1  20
ATOM     14  C   UNL     1      -2.143   1.058   1.278  0.00  0.00    +0.103 A 
ATOM     15  N   UNL     1      -2.630  -0.059   1.782  0.00  0.00    -0.145 NA
ATOM     16  N   UNL     1      -3.854  -0.352   1.706  0.00  0.00    -0.126 NA
ATOM     17  C   UNL     1      -4.729   0.449   1.113  0.00  0.00    +0.188 A 
ATOM     18  S   UNL     1      -3.641   1.781   0.616  0.00  0.00    -0.035 S 
ATOM     19  N   UNL     1      -6.099   0.299   0.932  0.00  0.00    -0.259 N 
ATOM     20  C   UNL     1      -6.724  -0.799   1.401  0.00  0.00    +0.258 C 
ATOM     21  O   UNL     1      -6.088  -1.661   1.982  0.00  0.00    -0.269 OA
ATOM     22  H   UNL     1      -6.605   0.985   0.470  0.00  0.00    +0.157 HD
BRANCH  14  24
ATOM     23  C   UNL     1      -0.013   1.086   0.008  0.00  0.00    +0.011 C 
ATOM     24  C   UNL     1      -0.729   1.579   1.267  0.00  0.00    +0.061 C 
ENDBRANCH  14  24
ENDBRANCH   1  20
BRANCH   2  25
ATOM     25  N   UNL     1      -8.390  -3.078   2.302  0.00  0.00    -0.356 N 
ATOM     26  H   UNL     1      -7.440  -3.109   2.499  0.00  0.00    +0.142 HD
ATOM     27  H   UNL     1      -8.966  -3.807   2.581  0.00  0.00    +0.142 HD
ENDBRANCH   2  25
BRANCH   7  28
ATOM     28  O   UNL     1     -15.969  -4.127   1.422  0.00  0.00    -0.492 OA
BRANCH  28  29
ATOM     29  C   UNL     1     -17.285  -3.781   0.987  0.00  0.00    +0.225 C 
ATOM     30  C   UNL     1     -18.263  -4.886   1.391  0.00  0.00    +0.048 C 
ENDBRANCH  28  29
ENDBRANCH   7  28
TORSDOF 5
