REMARK  Name = ZINC13149261
REMARK  10 active torsions:
REMARK  status: ('A' for Active; 'I' for Inactive)
REMARK    1  A    between atoms: C_1  and  C_2
REMARK    2  A    between atoms: C_4  and  C_32
REMARK    3  A    between atoms: C_5  and  C_31
REMARK    4  A    between atoms: C_6  and  S_9
REMARK    5  A    between atoms: C_7  and  C_8
REMARK    6  A    between atoms: S_9  and  N_12
REMARK    7  A    between atoms: C_16  and  O_30
REMARK    8  A    between atoms: N_26  and  C_27
REMARK    9  A    between atoms: C_27  and  C_28
REMARK   10  A    between atoms: C_28  and  O_29
REMARK                            x       y       z     vdW  Elec       q    Type
REMARK                         _______ _______ _______ _____ _____    ______ ____
ROOT
ATOM      1  N   UNL     1       1.596  -3.715   2.901  0.00  0.00    -0.128 NA
ATOM      2  C   UNL     1       1.897  -4.366   3.996  0.00  0.00    +0.095 C 
ATOM      3  C   UNL     1       3.293  -4.690   4.382  0.00  0.00    +0.054 C 
ATOM      4  C   UNL     1       3.492  -5.902   4.961  0.00  0.00    +0.073 C 
ATOM      5  C   UNL     1       2.334  -6.837   5.131  0.00  0.00    +0.235 C 
ATOM      6  C   UNL     1       1.099  -6.099   5.549  0.00  0.00    +0.026 A 
ATOM      7  C   UNL     1       0.865  -4.840   4.964  0.00  0.00    +0.011 A 
ATOM      8  C   UNL     1      -0.262  -4.108   5.285  0.00  0.00    +0.010 A 
ATOM      9  C   UNL     1      -1.160  -4.619   6.207  0.00  0.00    +0.001 A 
ATOM     10  C   UNL     1      -0.926  -5.848   6.797  0.00  0.00    +0.000 A 
ATOM     11  C   UNL     1       0.203  -6.596   6.465  0.00  0.00    +0.010 A 
ATOM     12  O   UNL     1       2.599  -7.978   5.898  0.00  0.00    -0.339 OA
ATOM     13  C   UNL     1       3.751  -8.029   6.713  0.00  0.00    +0.183 C 
ATOM     14  C   UNL     1       4.994  -7.556   5.969  0.00  0.00    +0.133 C 
ATOM     15  N   UNL     1       4.750  -6.238   5.387  0.00  0.00    -0.324 N 
ENDROOT
BRANCH   1  16
ATOM     16  S   UNL     1       0.013  -3.548   2.445  0.00  0.00    +0.100 S 
ATOM     17  O   UNL     1      -0.414  -2.277   2.917  0.00  0.00    -0.146 OA
ATOM     18  O   UNL     1      -0.643  -4.755   2.807  0.00  0.00    -0.146 OA
BRANCH  16  24
ATOM     19  C   UNL     1      -0.541  -5.792  -2.243  0.00  0.00    +0.044 C 
ATOM     20  C   UNL     1      -0.279  -4.547  -1.436  0.00  0.00    -0.045 A 
ATOM     21  C   UNL     1      -0.061  -3.341  -2.076  0.00  0.00    +0.007 A 
ATOM     22  C   UNL     1       0.180  -2.199  -1.336  0.00  0.00    -0.045 A 
ATOM     23  C   UNL     1       0.202  -2.262   0.044  0.00  0.00    -0.020 A 
ATOM     24  C   UNL     1      -0.016  -3.467   0.685  0.00  0.00    +0.119 A 
ATOM     25  C   UNL     1      -0.261  -4.609  -0.055  0.00  0.00    -0.020 A 
ATOM     26  C   UNL     1      -0.505  -5.922   0.643  0.00  0.00    +0.046 C 
ATOM     27  C   UNL     1       0.466  -1.017   0.851  0.00  0.00    +0.046 C 
ATOM     28  C   UNL     1       0.418  -0.885  -2.034  0.00  0.00    +0.044 C 
ENDBRANCH  16  24
ENDBRANCH   1  16
BRANCH   5  29
ATOM     29  O   UNL     1       2.053  -7.335   3.822  0.00  0.00    -0.356 OA
ATOM     30  H   UNL     1       1.315  -7.960   3.788  0.00  0.00    +0.213 HD
ENDBRANCH   5  29
BRANCH  15  31
ATOM     31  C   UNL     1       5.848  -5.278   5.259  0.00  0.00    +0.133 C 
BRANCH  31  32
ATOM     32  C   UNL     1       5.927  -4.421   6.524  0.00  0.00    +0.174 C 
BRANCH  32  33
ATOM     33  O   UNL     1       6.274  -5.246   7.638  0.00  0.00    -0.393 OA
ATOM     34  H   UNL     1       6.342  -4.768   8.475  0.00  0.00    +0.209 HD
ENDBRANCH  32  33
ENDBRANCH  31  32
ENDBRANCH  15  31
TORSDOF 6
