REMARK  Name = ZINC13499326
REMARK  11 active torsions:
REMARK  status: ('A' for Active; 'I' for Inactive)
REMARK    1  A    between atoms: C_1  and  C_2
REMARK    2  A    between atoms: C_2  and  C_3
REMARK    3  A    between atoms: C_3  and  C_4
REMARK    4  A    between atoms: C_4  and  C_6
REMARK    5  A    between atoms: C_4  and  N_69
REMARK    6  A    between atoms: N_10  and  C_11
REMARK    7  A    between atoms: C_11  and  C_12
REMARK    8  A    between atoms: C_19  and  C_20
REMARK    9  A    between atoms: C_19  and  N_69
REMARK   10  A    between atoms: C_25  and  C_32
REMARK   11  A    between atoms: C_33  and  N_69
REMARK                            x       y       z     vdW  Elec       q    Type
REMARK                         _______ _______ _______ _____ _____    ______ ____
ROOT
ATOM      1  N   UNL     1      -2.991   0.816  -1.170  0.00  0.00    +0.391 N 
ATOM      2  H   UNL     1      -2.600   1.615  -1.681  0.00  0.00    -0.080 HD
ENDROOT
BRANCH   1   3
ATOM      3  C   UNL     1      -2.110  -0.355  -1.363  0.00  0.00    -0.067 C 
ATOM      4  C   UNL     1      -2.303  -1.386  -0.232  0.00  0.00    -0.015 C 
ATOM      5  C   UNL     1      -0.876  -1.931   0.032  0.00  0.00    -0.002 C 
ATOM      6  C   UNL     1       0.008  -0.670  -0.130  0.00  0.00    -0.002 C 
ATOM      7  C   UNL     1      -0.641   0.100  -1.299  0.00  0.00    -0.015 C 
ENDBRANCH   1   3
BRANCH   1   8
ATOM      8  C   UNL     1      -4.341   0.524  -1.696  0.00  0.00    +0.003 C 
BRANCH   8   9
ATOM      9  C   UNL     1      -5.116  -0.323  -0.719  0.00  0.00    +0.138 A 
ATOM     10  N   UNL     1      -4.693  -1.408  -0.117  0.00  0.00    -0.115 NA
ATOM     11  N   UNL     1      -5.644  -1.839   0.638  0.00  0.00    -0.023 NA
ATOM     12  N   UNL     1      -6.664  -1.062   0.528  0.00  0.00    -0.044 NA
ATOM     13  N   UNL     1      -6.378  -0.115  -0.300  0.00  0.00    -0.226 N 
BRANCH  13  14
ATOM     14  C   UNL     1      -7.261   0.980  -0.708  0.00  0.00    +0.182 C 
BRANCH  14  15
ATOM     15  C   UNL     1      -8.051   0.563  -1.922  0.00  0.00    -0.026 A 
ATOM     16  C   UNL     1      -7.553   0.808  -3.188  0.00  0.00    +0.008 A 
ATOM     17  C   UNL     1      -8.274   0.422  -4.301  0.00  0.00    +0.038 A 
ATOM     18  C   UNL     1      -9.501  -0.201  -4.149  0.00  0.00    +0.123 A 
ATOM     19  C   UNL     1     -10.001  -0.442  -2.880  0.00  0.00    +0.038 A 
ATOM     20  C   UNL     1      -9.276  -0.059  -1.768  0.00  0.00    +0.008 A 
ATOM     21  F   UNL     1     -10.209  -0.575  -5.237  0.00  0.00    -0.205 F 
ENDBRANCH  14  15
ENDBRANCH  13  14
ENDBRANCH   8   9
BRANCH   8  22
ATOM     22  C   UNL     1      -4.214  -0.220  -3.027  0.00  0.00    -0.008 C 
BRANCH  22  24
ATOM     23  C   UNL     1      -3.390  -0.058  -5.380  0.00  0.00    +0.004 C 
ATOM     24  C   UNL     1      -3.432   0.641  -4.020  0.00  0.00    -0.005 C 
ENDBRANCH  22  24
ENDBRANCH   8  22
ENDBRANCH   1   8
BRANCH   1  25
ATOM     25  C   UNL     1      -3.071   1.156   0.266  0.00  0.00    -0.036 C 
BRANCH  25  26
ATOM     26  C   UNL     1      -3.621   2.552   0.402  0.00  0.00    +0.001 A 
ATOM     27  C   UNL     1      -4.926   2.736   0.720  0.00  0.00    +0.017 A 
ATOM     28  C   UNL     1      -5.431   4.106   0.838  0.00  0.00    -0.001 A 
ATOM     29  C   UNL     1      -6.769   4.358   1.156  0.00  0.00    +0.010 A 
ATOM     30  C   UNL     1      -7.209   5.647   1.259  0.00  0.00    +0.004 A 
ATOM     31  C   UNL     1      -6.340   6.709   1.050  0.00  0.00    -0.048 A 
ATOM     32  C   UNL     1      -5.017   6.484   0.737  0.00  0.00    +0.029 A 
ATOM     33  C   UNL     1      -4.546   5.179   0.626  0.00  0.00    +0.049 A 
ATOM     34  N   UNL     1      -3.228   4.925   0.312  0.00  0.00    -0.322 N 
ATOM     35  H   UNL     1      -2.619   5.666   0.167  0.00  0.00    +0.169 HD
ATOM     36  C   UNL     1      -2.774   3.664   0.205  0.00  0.00    +0.251 A 
ATOM     37  O   UNL     1      -1.602   3.476  -0.074  0.00  0.00    -0.268 OA
ATOM     38  C   UNL     1      -6.847   8.123   1.169  0.00  0.00    +0.044 C 
ENDBRANCH  25  26
ENDBRANCH   1  25
TORSDOF 9
