REMARK  Name = ZINC22910935
REMARK  8 active torsions:
REMARK  status: ('A' for Active; 'I' for Inactive)
REMARK    1  A    between atoms: C_1  and  C_2
REMARK    2  A    between atoms: C_4  and  N_7
REMARK    3  A    between atoms: C_8  and  C_10
REMARK    4  A    between atoms: C_10  and  C_12
REMARK    5  A    between atoms: C_10  and  N_13
REMARK    6  A    between atoms: N_13  and  C_14
REMARK    7  A    between atoms: C_14  and  C_16
REMARK    8  A    between atoms: C_14  and  C_17
REMARK                            x       y       z     vdW  Elec       q    Type
REMARK                         _______ _______ _______ _____ _____    ______ ____
ROOT
ATOM      1  N   UNL     1       5.199   4.546  -0.023  0.00  0.00    +0.391 N 
ATOM      2  H   UNL     1       5.530   3.677   0.564  0.00  0.00    -0.084 HD
ATOM      3  H   UNL     1       5.551   4.444  -1.060  0.00  0.00    -0.084 HD
ENDROOT
BRANCH   1   4
ATOM      4  C   UNL     1       3.731   4.615  -0.009  0.00  0.00    +0.014 C 
ATOM      5  C   UNL     1       3.244   5.366  -1.249  0.00  0.00    -0.004 C 
BRANCH   4   7
ATOM      6  N   UNL     1       1.827   3.036   0.001  0.00  0.00    -0.256 N 
ATOM      7  C   UNL     1       3.162   3.220  -0.011  0.00  0.00    +0.205 C 
ATOM      8  O   UNL     1       3.906   2.262  -0.023  0.00  0.00    -0.277 OA
ATOM      9  H   UNL     1       1.153   3.905   0.012  0.00  0.00    +0.158 HD
BRANCH   6  13
ATOM     10  C   UNL     1      -1.193  -0.922   0.008  0.00  0.00    +0.069 C 
ATOM     11  C   UNL     1       0.002  -0.004   0.002  0.00  0.00    +0.082 A 
ATOM     12  C   UNL     1      -0.017   1.405   0.010  0.00  0.00    +0.092 A 
ATOM     13  C   UNL     1       1.304   1.752  -0.001  0.00  0.00    +0.224 A 
ATOM     14  O   UNL     1       1.994   0.600  -0.014  0.00  0.00    -0.339 OA
ATOM     15  N   UNL     1       1.256  -0.358  -0.012  0.00  0.00    -0.081 NA
ENDBRANCH   6  13
ENDBRANCH   4   7
ENDBRANCH   1   4
BRANCH   1  16
ATOM     16  C   UNL     1       5.789   5.759   0.557  0.00  0.00    -0.042 C 
ATOM     17  C   UNL     1       5.862   5.613   2.079  0.00  0.00    -0.009 C 
BRANCH  16  18
ATOM     18  C   UNL     1       7.176   5.957   0.004  0.00  0.00    -0.043 A 
ATOM     19  C   UNL     1       7.856   4.891  -0.555  0.00  0.00    +0.005 A 
ATOM     20  C   UNL     1       9.127   5.073  -1.067  0.00  0.00    +0.020 A 
ATOM     21  C   UNL     1       9.724   6.320  -1.011  0.00  0.00    +0.042 A 
ATOM     22  C   UNL     1       9.046   7.386  -0.447  0.00  0.00    +0.040 A 
ATOM     23  C   UNL     1       7.772   7.205   0.060  0.00  0.00    +0.044 A 
ATOM     24 CL   UNL     1       6.921   8.542   0.769  0.00  0.00    -0.083 Cl
ATOM     25 CL   UNL     1      11.322   6.547  -1.650  0.00  0.00    -0.083 Cl
ENDBRANCH  16  18
ENDBRANCH   1  16
TORSDOF 5
