REMARK  Name = ZINC66803683
REMARK  3 active torsions:
REMARK  status: ('A' for Active; 'I' for Inactive)
REMARK    1  A    between atoms: C_3  and  C_10
REMARK    2  A    between atoms: N_12  and  C_13
REMARK    3  A    between atoms: C_16  and  C_19
REMARK                            x       y       z     vdW  Elec       q    Type
REMARK                         _______ _______ _______ _____ _____    ______ ____
ROOT
ATOM      1  C   UNL     1       4.796   4.287   0.068  0.00  0.00    +0.034 A 
ATOM      2  C   UNL     1       6.038   3.668  -0.021  0.00  0.00    +0.024 A 
ATOM      3  C   UNL     1       7.191   4.418   0.060  0.00  0.00    +0.013 A 
ATOM      4  C   UNL     1       7.111   5.801   0.232  0.00  0.00    +0.019 A 
ATOM      5  C   UNL     1       5.863   6.420   0.321  0.00  0.00    +0.013 A 
ATOM      6  C   UNL     1       4.714   5.665   0.234  0.00  0.00    +0.024 A 
ENDROOT
BRANCH   4   7
ATOM      7  C   UNL     1       8.347   6.609   0.320  0.00  0.00    +0.164 A 
ATOM      8  N   UNL     1       8.453   7.836   0.788  0.00  0.00    -0.129 NA
ATOM      9  N   UNL     1       9.678   8.228   0.713  0.00  0.00    -0.134 NA
ATOM     10  C   UNL     1      10.412   7.287   0.202  0.00  0.00    +0.134 A 
ATOM     11  N   UNL     1       9.595   6.227  -0.061  0.00  0.00    -0.311 N 
ATOM     12  C   UNL     1      10.033   4.959  -0.643  0.00  0.00    +0.125 C 
ATOM     13  C   UNL     1      11.412   5.161  -1.282  0.00  0.00    +0.022 C 
ATOM     14  C   UNL     1      12.348   5.840  -0.279  0.00  0.00    +0.009 C 
ATOM     15  C   UNL     1      11.896   7.294  -0.071  0.00  0.00    +0.076 C 
ENDBRANCH   4   7
BRANCH   1  18
ATOM     16  C   UNL     1       3.594   2.287   0.518  0.00  0.00    +0.252 C 
ATOM     17  O   UNL     1       4.601   1.802   0.997  0.00  0.00    -0.270 OA
ATOM     18  N   UNL     1       3.629   3.524  -0.015  0.00  0.00    -0.281 N 
ATOM     19  H   UNL     1       2.844   3.885  -0.455  0.00  0.00    +0.155 HD
BRANCH  16  22
ATOM     20  C   UNL     1      -0.002   1.356  -0.024  0.00  0.00    +0.005 A 
ATOM     21  C   UNL     1       1.173   2.075  -0.028  0.00  0.00    +0.017 A 
ATOM     22  C   UNL     1       2.333   1.521   0.521  0.00  0.00    +0.082 A 
ATOM     23  C   UNL     1       2.293   0.235   1.073  0.00  0.00    +0.178 A 
ATOM     24  C   UNL     1       1.098  -0.480   1.070  0.00  0.00    +0.167 A 
ATOM     25  C   UNL     1      -0.042   0.084   0.522  0.00  0.00    +0.049 A 
ATOM     26  O   UNL     1       1.315  -1.693   1.658  0.00  0.00    -0.453 OA
ATOM     27  C   UNL     1       2.743  -1.872   1.652  0.00  0.00    +0.466 C 
ATOM     28  O   UNL     1       3.257  -0.527   1.661  0.00  0.00    -0.452 OA
ENDBRANCH  16  22
ENDBRANCH   1  18
TORSDOF 3
