REMARK  Name = ZINC14171412
REMARK  12 active torsions:
REMARK  status: ('A' for Active; 'I' for Inactive)
REMARK    1  A    between atoms: C_1  and  C_2
REMARK    2  A    between atoms: C_7  and  C_10
REMARK    3  A    between atoms: C_11  and  C_13
REMARK    4  A    between atoms: C_15  and  C_24
REMARK    5  A    between atoms: C_16  and  O_23
REMARK    6  A    between atoms: C_17  and  C_19
REMARK    7  A    between atoms: C_19  and  C_20
REMARK    8  A    between atoms: C_19  and  C_21
REMARK    9  A    between atoms: C_19  and  C_22
REMARK   10  A    between atoms: C_24  and  C_25
REMARK   11  A    between atoms: C_24  and  C_26
REMARK   12  A    between atoms: C_24  and  C_27
REMARK                            x       y       z     vdW  Elec       q    Type
REMARK                         _______ _______ _______ _____ _____    ______ ____
ROOT
ATOM      1  C   UNL     1      -0.022   1.471  -0.033  0.00  0.00    +0.038 A 
ATOM      2  C   UNL     1      -0.928   2.138  -0.862  0.00  0.00    +0.020 A 
ATOM      3  C   UNL     1      -0.950   3.514  -0.888  0.00  0.00    +0.000 A 
ATOM      4  C   UNL     1      -0.066   4.241  -0.100  0.00  0.00    +0.124 A 
ATOM      5  C   UNL     1       0.841   3.582   0.722  0.00  0.00    +0.000 A 
ATOM      6  C   UNL     1       0.866   2.205   0.758  0.00  0.00    +0.020 A 
ENDROOT
BRANCH   1  15
ATOM      7  C   UNL     1      -2.576  -0.045   2.627  0.00  0.00    +0.039 C 
ATOM      8  C   UNL     1      -3.250  -0.509   1.334  0.00  0.00    +0.133 C 
ATOM      9  C   UNL     1      -2.449  -0.002   0.130  0.00  0.00    +0.139 C 
ATOM     10  N   UNL     1      -1.150  -0.694   0.111  0.00  0.00    -0.293 N 
ATOM     11  C   UNL     1      -1.148  -2.163   0.209  0.00  0.00    +0.139 C 
ATOM     12  C   UNL     1      -2.012  -2.564   1.415  0.00  0.00    +0.133 C 
ATOM     13  O   UNL     1      -3.292  -1.938   1.304  0.00  0.00    -0.371 OA
ATOM     14  C   UNL     1      -2.186  -4.084   1.434  0.00  0.00    +0.039 C 
ATOM     15  C   UNL     1       0.002  -0.004   0.002  0.00  0.00    +0.247 C 
ATOM     16  O   UNL     1       1.061  -0.597  -0.068  0.00  0.00    -0.270 OA
ENDBRANCH   1  15
BRANCH   5  17
ATOM     17  C   UNL     1       1.798   4.374   1.575  0.00  0.00    -0.009 C 
ATOM     18  C   UNL     1       2.680   3.415   2.377  0.00  0.00    +0.015 C 
ATOM     19  C   UNL     1       2.678   5.247   0.678  0.00  0.00    +0.015 C 
ATOM     20  C   UNL     1       1.007   5.265   2.536  0.00  0.00    +0.015 C 
ENDBRANCH   5  17
BRANCH   3  21
ATOM     21  C   UNL     1      -1.931   4.234  -1.777  0.00  0.00    -0.009 C 
ATOM     22  C   UNL     1      -2.781   3.211  -2.532  0.00  0.00    +0.015 C 
ATOM     23  C   UNL     1      -2.839   5.121  -0.923  0.00  0.00    +0.015 C 
ATOM     24  C   UNL     1      -1.168   5.102  -2.780  0.00  0.00    +0.015 C 
ENDBRANCH   3  21
BRANCH   4  25
ATOM     25  O   UNL     1      -0.086   5.597  -0.133  0.00  0.00    -0.506 OA
ATOM     26  H   UNL     1       0.498   5.984  -0.799  0.00  0.00    +0.292 HD
ENDBRANCH   4  25
TORSDOF 4
