REMARK  Name = ZINC20863777
REMARK  12 active torsions:
REMARK  status: ('A' for Active; 'I' for Inactive)
REMARK    1  A    between atoms: C_1  and  C_2
REMARK    2  A    between atoms: C_2  and  C_3
REMARK    3  A    between atoms: C_6  and  C_9
REMARK    4  A    between atoms: C_15  and  C_32
REMARK    5  A    between atoms: C_15  and  C_33
REMARK    6  A    between atoms: N_16  and  C_19
REMARK    7  A    between atoms: C_19  and  C_20
REMARK    8  A    between atoms: C_20  and  C_21
REMARK    9  A    between atoms: C_21  and  N_22
REMARK   10  A    between atoms: C_24  and  C_31
REMARK   11  A    between atoms: C_27  and  C_30
REMARK   12  A    between atoms: N_35  and  C_36
REMARK                            x       y       z     vdW  Elec       q    Type
REMARK                         _______ _______ _______ _____ _____    ______ ____
ROOT
ATOM      1  C   UNL     1       4.693   5.086  -9.002  0.00  0.00    +0.093 A 
ATOM      2  C   UNL     1       5.571   4.153  -8.410  0.00  0.00    +0.062 A 
ATOM      3  C   UNL     1       4.871   3.626  -7.364  0.00  0.00    +0.124 A 
ATOM      4  N   UNL     1       3.639   4.242  -7.345  0.00  0.00    -0.256 N 
ATOM      5  N   UNL     1       3.569   5.073  -8.311  0.00  0.00    -0.170 NA
ATOM      6  C   UNL     1       2.643   3.917  -6.316  0.00  0.00    +0.179 C 
ATOM      7  C   UNL     1       2.827   2.466  -5.875  0.00  0.00    +0.130 C 
ATOM      8  N   UNL     1       4.220   2.138  -5.594  0.00  0.00    -0.281 N 
ATOM      9  C   UNL     1       5.227   2.593  -6.377  0.00  0.00    +0.266 C 
ATOM     10  O   UNL     1       6.363   2.172  -6.271  0.00  0.00    -0.268 OA
ATOM     11  C   UNL     1       2.318   1.544  -6.984  0.00  0.00    +0.044 C 
ENDROOT
BRANCH   1  15
ATOM     12  C   UNL     1       5.523   7.505 -12.400  0.00  0.00    -0.048 A 
ATOM     13  C   UNL     1       4.294   7.597 -11.772  0.00  0.00    +0.004 A 
ATOM     14  C   UNL     1       4.019   6.815 -10.669  0.00  0.00    +0.010 A 
ATOM     15  C   UNL     1       4.983   5.931 -10.188  0.00  0.00    +0.002 A 
ATOM     16  C   UNL     1       6.221   5.846 -10.821  0.00  0.00    +0.010 A 
ATOM     17  C   UNL     1       6.483   6.629 -11.927  0.00  0.00    +0.004 A 
BRANCH  12  19
ATOM     18  C   UNL     1       6.435   9.686 -13.150  0.00  0.00    +0.009 C 
ATOM     19  C   UNL     1       5.816   8.362 -13.604  0.00  0.00    +0.032 C 
ENDBRANCH  12  19
ENDBRANCH   1  15
BRANCH   7  20
ATOM     20  C   UNL     1       2.010   2.228  -4.631  0.00  0.00    +0.238 C 
ATOM     21  O   UNL     1       0.981   1.590  -4.695  0.00  0.00    -0.273 OA
ATOM     22  N   UNL     1       2.422   2.725  -3.449  0.00  0.00    -0.311 N 
ATOM     23  H   UNL     1       3.398   3.227  -3.373  0.00  0.00    +0.149 HD
BRANCH  22  24
ATOM     24  C   UNL     1       1.571   2.597  -2.263  0.00  0.00    +0.073 C 
ATOM     25  C   UNL     1       0.517   3.720  -2.282  0.00  0.00    +0.022 C 
ATOM     26  C   UNL     1      -0.141   3.946  -0.908  0.00  0.00    +0.002 C 
ATOM     27  C   UNL     1      -0.458   2.655  -0.202  0.00  0.00    +0.000 C 
ATOM     28  C   UNL     1       0.717   2.309   0.737  0.00  0.00    +0.000 C 
ATOM     29  C   UNL     1       1.833   1.701   0.028  0.00  0.00    +0.002 C 
ATOM     30  C   UNL     1       2.438   2.642  -1.034  0.00  0.00    +0.022 C 
ENDBRANCH  22  24
ENDBRANCH   7  20
BRANCH   8  31
ATOM     31  C   UNL     1       4.538   1.297  -4.437  0.00  0.00    +0.107 C 
BRANCH  31  32
ATOM     32  C   UNL     1       4.599  -0.168  -4.873  0.00  0.00    +0.000 C 
BRANCH  32  33
ATOM     33  C   UNL     1       4.931  -1.046  -3.665  0.00  0.00    -0.077 C 
BRANCH  33  34
ATOM     34  N   UNL     1       4.990  -2.453  -4.083  0.00  0.00    +0.380 N 
ATOM     35  C   UNL     1       5.764  -2.601  -5.322  0.00  0.00    -0.076 C 
ATOM     36  C   UNL     1       5.683  -4.051  -5.806  0.00  0.00    -0.031 C 
ATOM     37  C   UNL     1       6.239  -4.978  -4.721  0.00  0.00    +0.003 C 
ATOM     38  C   UNL     1       5.446  -4.769  -3.428  0.00  0.00    -0.031 C 
ATOM     39  C   UNL     1       5.535  -3.298  -3.013  0.00  0.00    -0.076 C 
ATOM     40  C   UNL     1       6.034  -5.647  -2.321  0.00  0.00    +0.005 C 
ATOM     41  C   UNL     1       6.507  -4.210  -7.085  0.00  0.00    +0.005 C 
ATOM     42  H   UNL     1       3.963  -2.790  -4.287  0.00  0.00    -0.082 HD
ENDBRANCH  33  34
ENDBRANCH  32  33
ENDBRANCH  31  32
ENDBRANCH   8  31
TORSDOF 8
