REMARK  Name = ZINC03345833
REMARK  7 active torsions:
REMARK  status: ('A' for Active; 'I' for Inactive)
REMARK    1  A    between atoms: C_1  and  C_2
REMARK    2  A    between atoms: C_2  and  C_4
REMARK    3  A    between atoms: C_2  and  N_12
REMARK    4  A    between atoms: C_13  and  C_15
REMARK    5  A    between atoms: C_15  and  N_16
REMARK    6  A    between atoms: C_19  and  C_23
REMARK    7  A    between atoms: C_19  and  C_29
REMARK                            x       y       z     vdW  Elec       q    Type
REMARK                         _______ _______ _______ _____ _____    ______ ____
ROOT
ATOM      1  N   UNL     1       0.921   2.043  -0.752  0.00  0.00    -0.215 N 
ATOM      2  C   UNL     1      -0.265   1.408  -0.674  0.00  0.00    +0.256 C 
ATOM      3  O   UNL     1      -0.537   0.310  -1.108  0.00  0.00    -0.272 OA
ATOM      4  C   UNL     1      -1.190   2.357   0.063  0.00  0.00    +0.164 C 
ATOM      5  N   UNL     1      -0.335   3.522   0.349  0.00  0.00    -0.278 N 
ATOM      6  C   UNL     1       0.876   3.246  -0.168  0.00  0.00    +0.310 C 
ATOM      7  O   UNL     1       1.823   4.005  -0.110  0.00  0.00    -0.252 OA
ATOM      8  H   UNL     1      -0.596   4.331   0.815  0.00  0.00    +0.152 HD
ENDROOT
BRANCH   4   9
ATOM      9  C   UNL     1      -2.353   2.750  -0.812  0.00  0.00    -0.011 A 
ATOM     10  C   UNL     1      -2.980   1.801  -1.596  0.00  0.00    +0.006 A 
ATOM     11  C   UNL     1      -4.049   2.161  -2.395  0.00  0.00    +0.000 A 
ATOM     12  C   UNL     1      -4.485   3.473  -2.416  0.00  0.00    +0.000 A 
ATOM     13  C   UNL     1      -3.854   4.424  -1.636  0.00  0.00    +0.000 A 
ATOM     14  C   UNL     1      -2.787   4.062  -0.834  0.00  0.00    +0.006 A 
ENDBRANCH   4   9
BRANCH   4  15
ATOM     15  C   UNL     1      -1.677   1.732   1.345  0.00  0.00    -0.011 A 
ATOM     16  C   UNL     1      -2.405   0.557   1.309  0.00  0.00    +0.006 A 
ATOM     17  C   UNL     1      -2.848  -0.018   2.485  0.00  0.00    +0.000 A 
ATOM     18  C   UNL     1      -2.571   0.587   3.697  0.00  0.00    +0.000 A 
ATOM     19  C   UNL     1      -1.848   1.764   3.733  0.00  0.00    +0.000 A 
ATOM     20  C   UNL     1      -1.401   2.337   2.557  0.00  0.00    +0.006 A 
ENDBRANCH   4  15
BRANCH   1  21
ATOM     21  C   UNL     1       2.113   1.485  -1.395  0.00  0.00    +0.213 C 
BRANCH  21  23
ATOM     22  N   UNL     1       3.138   1.473  -3.646  0.00  0.00    -0.307 N 
ATOM     23  C   UNL     1       2.128   1.877  -2.850  0.00  0.00    +0.231 C 
ATOM     24  O   UNL     1       1.232   2.556  -3.305  0.00  0.00    -0.274 OA
ATOM     25  H   UNL     1       3.855   0.930  -3.282  0.00  0.00    +0.149 HD
BRANCH  22  27
ATOM     26  C   UNL     1       3.830   3.218  -5.214  0.00  0.00    +0.033 C 
ATOM     27  C   UNL     1       3.154   1.855  -5.061  0.00  0.00    +0.102 C 
BRANCH  27  28
ATOM     28  C   UNL     1       3.917   0.823  -5.851  0.00  0.00    -0.009 A 
ATOM     29  C   UNL     1       4.892   0.062  -5.233  0.00  0.00    +0.008 A 
ATOM     30  C   UNL     1       5.593  -0.884  -5.957  0.00  0.00    +0.020 A 
ATOM     31  C   UNL     1       5.319  -1.069  -7.301  0.00  0.00    +0.042 A 
ATOM     32  C   UNL     1       4.344  -0.308  -7.919  0.00  0.00    +0.040 A 
ATOM     33  C   UNL     1       3.638   0.634  -7.192  0.00  0.00    +0.047 A 
ATOM     34 CL   UNL     1       2.409   1.585  -7.966  0.00  0.00    -0.083 Cl
ATOM     35 CL   UNL     1       6.199  -2.258  -8.210  0.00  0.00    -0.083 Cl
ENDBRANCH  27  28
ENDBRANCH  22  27
ENDBRANCH  21  23
ENDBRANCH   1  21
TORSDOF 6
