REMARK  Name = ZINC09662092
REMARK  10 active torsions:
REMARK  status: ('A' for Active; 'I' for Inactive)
REMARK    1  A    between atoms: C_1  and  C_2
REMARK    2  A    between atoms: C_8  and  N_10
REMARK    3  A    between atoms: C_11  and  C_26
REMARK    4  A    between atoms: C_14  and  S_15
REMARK    5  A    between atoms: S_15  and  C_16
REMARK    6  A    between atoms: C_16  and  C_17
REMARK    7  A    between atoms: N_19  and  C_20
REMARK    8  A    between atoms: C_20  and  C_21
REMARK    9  A    between atoms: C_29  and  O_32
REMARK   10  A    between atoms: O_32  and  C_33
REMARK                            x       y       z     vdW  Elec       q    Type
REMARK                         _______ _______ _______ _____ _____    ______ ____
ROOT
ATOM      1  N   UNL     1       2.563   5.290   0.192  0.00  0.00    -0.299 N 
ATOM      2  C   UNL     1       2.450   3.919   0.188  0.00  0.00    +0.165 A 
ATOM      3  N   UNL     1       3.639   3.435  -0.086  0.00  0.00    -0.128 NA
ATOM      4  N   UNL     1       4.477   4.396  -0.247  0.00  0.00    -0.122 NA
ATOM      5  C   UNL     1       3.875   5.552  -0.085  0.00  0.00    +0.193 A 
ENDROOT
BRANCH   1  12
ATOM      6  C   UNL     1       1.112   6.479  -2.014  0.00  0.00    +0.009 C 
ATOM      7  C   UNL     1       1.419   7.247  -0.727  0.00  0.00    +0.009 C 
ATOM      8  C   UNL     1       0.309   8.266  -0.463  0.00  0.00    +0.005 C 
ATOM      9  C   UNL     1       0.616   9.033   0.825  0.00  0.00    +0.000 C 
ATOM     10  C   UNL     1       0.696   8.052   1.996  0.00  0.00    +0.002 C 
ATOM     11  C   UNL     1       1.807   7.033   1.732  0.00  0.00    +0.025 C 
ATOM     12  C   UNL     1       1.500   6.266   0.445  0.00  0.00    +0.094 C 
ENDBRANCH   1  12
BRANCH   2  13
ATOM     13  C   UNL     1       1.220   3.139   0.440  0.00  0.00    +0.020 A 
ATOM     14  C   UNL     1       0.243   3.631   1.307  0.00  0.00    +0.015 A 
ATOM     15  C   UNL     1      -0.902   2.901   1.538  0.00  0.00    +0.046 A 
ATOM     16  C   UNL     1      -1.083   1.673   0.914  0.00  0.00    +0.120 A 
ATOM     17  C   UNL     1      -0.116   1.182   0.047  0.00  0.00    +0.046 A 
ATOM     18  C   UNL     1       1.032   1.907  -0.190  0.00  0.00    +0.015 A 
BRANCH  16  19
ATOM     19  O   UNL     1      -2.211   0.953   1.149  0.00  0.00    -0.495 OA
ATOM     20  C   UNL     1      -2.333  -0.300   0.474  0.00  0.00    +0.277 C 
ENDBRANCH  16  19
ENDBRANCH   2  13
BRANCH   5  21
ATOM     21  S   UNL     1       4.620   7.145  -0.209  0.00  0.00    -0.077 S 
BRANCH  21  22
ATOM     22  C   UNL     1       6.322   6.667  -0.598  0.00  0.00    +0.173 C 
BRANCH  22  23
ATOM     23  C   UNL     1       7.168   7.904  -0.753  0.00  0.00    +0.224 C 
ATOM     24  O   UNL     1       6.669   9.001  -0.615  0.00  0.00    -0.275 OA
ATOM     25  N   UNL     1       8.479   7.791  -1.046  0.00  0.00    -0.308 N 
ATOM     26  H   UNL     1       8.877   6.914  -1.156  0.00  0.00    +0.149 HD
BRANCH  25  27
ATOM     27  C   UNL     1       9.301   8.994  -1.197  0.00  0.00    +0.178 C 
BRANCH  27  28
ATOM     28  C   UNL     1      10.719   8.596  -1.520  0.00  0.00    +0.122 A 
ATOM     29  C   UNL     1      11.222   8.410  -2.753  0.00  0.00    +0.046 A 
ATOM     30  C   UNL     1      12.579   8.050  -2.592  0.00  0.00    +0.041 A 
ATOM     31  C   UNL     1      12.822   8.030  -1.269  0.00  0.00    +0.195 A 
ATOM     32  O   UNL     1      11.692   8.361  -0.625  0.00  0.00    -0.466 OA
ENDBRANCH  27  28
ENDBRANCH  25  27
ENDBRANCH  22  23
ENDBRANCH  21  22
ENDBRANCH   5  21
TORSDOF 8
