REMARK  Name = ZINC38501978
REMARK  6 active torsions:
REMARK  status: ('A' for Active; 'I' for Inactive)
REMARK    1  A    between atoms: C_1  and  C_2
REMARK    2  A    between atoms: C_2  and  C_3
REMARK    3  A    between atoms: C_2  and  N_4
REMARK    4  A    between atoms: C_5  and  C_9
REMARK    5  A    between atoms: C_17  and  S_21
REMARK    6  A    between atoms: S_21  and  C_22
REMARK                            x       y       z     vdW  Elec       q    Type
REMARK                         _______ _______ _______ _____ _____    ______ ____
ROOT
ATOM      1  C   UNL     1      -1.208  -1.982  -2.053  0.00  0.00    +0.268 C 
ATOM      2  O   UNL     1      -1.835  -2.632  -2.868  0.00  0.00    -0.268 OA
ATOM      3  N   UNL     1       0.120  -1.810  -2.206  0.00  0.00    -0.259 N 
ATOM      4  C   UNL     1       0.752  -2.282  -3.344  0.00  0.00    +0.166 A 
ATOM      5  N   UNL     1       0.234  -2.909  -4.373  0.00  0.00    -0.225 NA
ATOM      6  C   UNL     1       0.978  -3.317  -5.426  0.00  0.00    +0.080 A 
ATOM      7  C   UNL     1       0.546  -3.998  -6.588  0.00  0.00    +0.030 A 
ATOM      8  C   UNL     1       1.427  -4.342  -7.565  0.00  0.00    +0.017 A 
ATOM      9  C   UNL     1       2.784  -4.041  -7.463  0.00  0.00    +0.009 A 
ATOM     10  C   UNL     1       3.246  -3.373  -6.336  0.00  0.00    +0.032 A 
ATOM     11  C   UNL     1       2.359  -3.024  -5.349  0.00  0.00    +0.042 A 
ATOM     12  S   UNL     1       2.481  -2.186  -3.787  0.00  0.00    -0.052 S 
ATOM     13  H   UNL     1       0.632  -1.356  -1.520  0.00  0.00    +0.157 HD
ENDROOT
BRANCH   1  15
ATOM     14  N   UNL     1      -3.211  -1.546  -0.555  0.00  0.00    -0.257 N 
ATOM     15  C   UNL     1      -1.899  -1.383  -0.901  0.00  0.00    +0.124 A 
ATOM     16  C   UNL     1      -1.351  -0.540   0.051  0.00  0.00    +0.054 A 
ATOM     17  C   UNL     1      -2.396  -0.245   0.929  0.00  0.00    +0.135 A 
ATOM     18  N   UNL     1      -3.465  -0.870   0.506  0.00  0.00    -0.179 NA
BRANCH  14  20
ATOM     19  C   UNL     1      -4.632  -3.531  -0.407  0.00  0.00    +0.032 C 
ATOM     20  C   UNL     1      -4.181  -2.364  -1.288  0.00  0.00    +0.102 C 
ATOM     21  C   UNL     1      -5.393  -1.507  -1.659  0.00  0.00    +0.032 C 
ENDBRANCH  14  20
ENDBRANCH   1  15
BRANCH   9  22
ATOM     22  S   UNL     1       3.899  -4.502  -8.747  0.00  0.00    -0.129 S 
ATOM     23  C   UNL     1       2.843  -5.328  -9.970  0.00  0.00    +0.090 C 
ENDBRANCH   9  22
TORSDOF 3
