REMARK  Name = ZINC44923572
REMARK  6 active torsions:
REMARK  status: ('A' for Active; 'I' for Inactive)
REMARK    1  A    between atoms: C_1  and  C_2
REMARK    2  A    between atoms: C_2  and  C_4
REMARK    3  A    between atoms: C_2  and  N_12
REMARK    4  A    between atoms: N_12  and  C_13
REMARK    5  A    between atoms: C_13  and  C_15
REMARK    6  A    between atoms: C_13  and  C_16
REMARK                            x       y       z     vdW  Elec       q    Type
REMARK                         _______ _______ _______ _____ _____    ______ ____
ROOT
ATOM      1  C   UNL     1      -0.019   1.526   0.010  0.00  0.00    -0.009 C 
ATOM      2  C   UNL     1       0.002  -0.004   0.002  0.00  0.00    -0.043 C 
ENDROOT
BRANCH   2   3
ATOM      3  C   UNL     1       0.707  -0.490  -1.238  0.00  0.00    -0.060 A 
ATOM      4  C   UNL     1       2.089  -0.511  -1.284  0.00  0.00    +0.003 A 
ATOM      5  C   UNL     1       2.737  -0.956  -2.420  0.00  0.00    +0.021 A 
ATOM      6  C   UNL     1       2.003  -1.381  -3.513  0.00  0.00    +0.059 A 
ATOM      7  C   UNL     1       0.620  -1.361  -3.467  0.00  0.00    +0.059 A 
ATOM      8  C   UNL     1      -0.027  -0.920  -2.327  0.00  0.00    +0.023 A 
ATOM      9 CL   UNL     1      -0.302  -1.895  -4.838  0.00  0.00    -0.082 Cl
ATOM     10 CL   UNL     1       2.817  -1.940  -4.941  0.00  0.00    -0.082 Cl
ENDBRANCH   2   3
BRANCH   2  11
ATOM     11  N   UNL     1       0.713  -0.491   1.192  0.00  0.00    +0.390 N 
ATOM     12  H   UNL     1       0.798  -1.495   1.145  0.00  0.00    -0.084 HD
ATOM     13  H   UNL     1       1.632  -0.076   1.228  0.00  0.00    -0.084 HD
BRANCH  11  14
ATOM     14  C   UNL     1      -0.040  -0.119   2.398  0.00  0.00    -0.001 C 
ATOM     15  C   UNL     1      -1.385  -0.847   2.404  0.00  0.00    -0.006 C 
BRANCH  14  16
ATOM     16  C   UNL     1       0.748  -0.509   3.622  0.00  0.00    +0.163 A 
ATOM     17  N   UNL     1       0.947   0.231   4.703  0.00  0.00    -0.113 NA
ATOM     18  N   UNL     1       1.668  -0.458   5.520  0.00  0.00    -0.021 NA
ATOM     19  N   UNL     1       1.927  -1.601   4.988  0.00  0.00    -0.021 NA
ATOM     20  N   UNL     1       1.370  -1.661   3.827  0.00  0.00    -0.113 NA
ENDBRANCH  14  16
ENDBRANCH  11  14
ENDBRANCH   2  11
TORSDOF 4
