REMARK  Name = ZINC14762835
REMARK  10 active torsions:
REMARK  status: ('A' for Active; 'I' for Inactive)
REMARK    1  A    between atoms: C_1  and  C_2
REMARK    2  A    between atoms: C_2  and  C_27
REMARK    3  A    between atoms: C_3  and  C_4
REMARK    4  A    between atoms: C_4  and  C_5
REMARK    5  A    between atoms: C_6  and  O_26
REMARK    6  A    between atoms: C_10  and  O_11
REMARK    7  A    between atoms: O_11  and  C_12
REMARK    8  A    between atoms: C_14  and  C_18
REMARK    9  A    between atoms: C_21  and  O_25
REMARK   10  A    between atoms: C_23  and  O_24
REMARK                            x       y       z     vdW  Elec       q    Type
REMARK                         _______ _______ _______ _____ _____    ______ ____
ROOT
ATOM      1  C   UNL     1      -0.976   2.269  -3.501  0.00  0.00    +0.040 A 
ATOM      2  C   UNL     1      -1.549   3.530  -3.573  0.00  0.00    +0.127 A 
ATOM      3  C   UNL     1      -1.526   4.363  -2.467  0.00  0.00    +0.091 A 
ATOM      4  C   UNL     1      -0.931   3.941  -1.283  0.00  0.00    +0.131 A 
ATOM      5  C   UNL     1      -0.356   2.685  -1.212  0.00  0.00    +0.037 A 
ATOM      6  C   UNL     1      -0.381   1.848  -2.323  0.00  0.00    +0.134 A 
ATOM      7  C   UNL     1       0.304   2.192   0.051  0.00  0.00    +0.054 C 
ATOM      8  C   UNL     1      -0.156   3.043   1.237  0.00  0.00    +0.065 C 
ATOM      9  C   UNL     1      -0.027   4.521   0.849  0.00  0.00    +0.237 C 
ATOM     10  O   UNL     1      -0.938   4.786  -0.219  0.00  0.00    -0.491 OA
ENDROOT
BRANCH   8  11
ATOM     11  C   UNL     1       0.713   2.756   2.435  0.00  0.00    +0.001 A 
ATOM     12  C   UNL     1       2.074   2.985   2.372  0.00  0.00    +0.011 A 
ATOM     13  C   UNL     1       2.873   2.723   3.468  0.00  0.00    +0.046 A 
ATOM     14  C   UNL     1       2.310   2.227   4.636  0.00  0.00    +0.120 A 
ATOM     15  C   UNL     1       0.945   1.996   4.702  0.00  0.00    +0.091 A 
ATOM     16  C   UNL     1       0.144   2.266   3.602  0.00  0.00    +0.124 A 
BRANCH  16  17
ATOM     17  O   UNL     1      -1.195   2.046   3.666  0.00  0.00    -0.506 OA
ATOM     18  H   UNL     1      -1.461   1.156   3.397  0.00  0.00    +0.292 HD
ENDBRANCH  16  17
BRANCH  14  19
ATOM     19  O   UNL     1       3.096   1.970   5.714  0.00  0.00    -0.507 OA
ATOM     20  H   UNL     1       3.198   2.720   6.315  0.00  0.00    +0.292 HD
ENDBRANCH  14  19
ENDBRANCH   8  11
BRANCH   6  21
ATOM     21  O   UNL     1       0.180   0.613  -2.252  0.00  0.00    -0.494 OA
ATOM     22  C   UNL     1      -0.663  -0.460  -1.829  0.00  0.00    +0.277 C 
ENDBRANCH   6  21
BRANCH   2  23
ATOM     23  O   UNL     1      -2.133   3.947  -4.727  0.00  0.00    -0.506 OA
ATOM     24  H   UNL     1      -1.530   4.403  -5.330  0.00  0.00    +0.292 HD
ENDBRANCH   2  23
BRANCH   1  25
ATOM     25  C   UNL     1      -1.001   1.358  -4.701  0.00  0.00    +0.069 C 
BRANCH  25  28
ATOM     26  C   UNL     1      -1.236   1.817  -7.474  0.00  0.00    +0.038 C 
ATOM     27  C   UNL     1       0.116   1.871  -6.811  0.00  0.00    -0.079 C 
ATOM     28  C   UNL     1       0.232   1.594  -5.536  0.00  0.00    -0.023 C 
ATOM     29  C   UNL     1       1.336   2.243  -7.615  0.00  0.00    +0.038 C 
ENDBRANCH  25  28
ENDBRANCH   1  25
TORSDOF 7
