REMARK  Name = ZINC64815148
REMARK  4 active torsions:
REMARK  status: ('A' for Active; 'I' for Inactive)
REMARK    1  A    between atoms: C_1  and  N_2
REMARK    2  A    between atoms: N_2  and  C_3
REMARK    3  A    between atoms: C_8  and  C_9
REMARK    4  A    between atoms: C_15  and  C_17
REMARK                            x       y       z     vdW  Elec       q    Type
REMARK                         _______ _______ _______ _____ _____    ______ ____
ROOT
ATOM      1  C   UNL     1       0.137  -0.707   1.201  0.00  0.00    +0.044 A 
ATOM      2  C   UNL     1      -0.989  -1.087   1.917  0.00  0.00    +0.024 A 
ATOM      3  C   UNL     1      -0.854  -1.782   3.102  0.00  0.00    +0.002 A 
ATOM      4  C   UNL     1       0.403  -2.104   3.584  0.00  0.00    +0.001 A 
ATOM      5  C   UNL     1       1.533  -1.733   2.883  0.00  0.00    +0.010 A 
ATOM      6  C   UNL     1       1.409  -1.037   1.683  0.00  0.00    +0.004 A 
ENDROOT
BRANCH   6   7
ATOM      7  C   UNL     1       2.619  -0.640   0.923  0.00  0.00    -0.016 A 
ATOM      8  C   UNL     1       2.711  -0.914  -0.440  0.00  0.00    +0.008 A 
ATOM      9  C   UNL     1       3.839  -0.543  -1.142  0.00  0.00    +0.001 A 
ATOM     10  C   UNL     1       4.879   0.100  -0.495  0.00  0.00    +0.000 A 
ATOM     11  C   UNL     1       4.794   0.375   0.858  0.00  0.00    +0.001 A 
ATOM     12  C   UNL     1       3.668   0.013   1.569  0.00  0.00    +0.008 A 
ENDBRANCH   6   7
BRANCH   1  14
ATOM     13  C   UNL     1      -0.026   1.461   0.011  0.00  0.00    +0.138 C 
ATOM     14  N   UNL     1       0.002  -0.004   0.002  0.00  0.00    -0.269 N 
ATOM     15  C   UNL     1      -0.102  -0.673  -1.163  0.00  0.00    +0.271 C 
ATOM     16  O   UNL     1      -0.120  -0.063  -2.215  0.00  0.00    -0.268 OA
BRANCH  15  17
ATOM     17  C   UNL     1      -0.193  -2.147  -1.163  0.00  0.00    +0.147 A 
ATOM     18  C   UNL     1      -0.201  -2.990  -2.299  0.00  0.00    +0.054 A 
ATOM     19  C   UNL     1      -0.297  -4.250  -1.814  0.00  0.00    +0.105 A 
ATOM     20  N   UNL     1      -0.344  -4.158  -0.468  0.00  0.00    -0.284 N 
ATOM     21  H   UNL     1      -0.414  -4.912   0.138  0.00  0.00    +0.188 HD
ATOM     22  N   UNL     1      -0.277  -2.928  -0.104  0.00  0.00    -0.169 NA
ENDBRANCH  15  17
ENDBRANCH   1  14
TORSDOF 3
