REMARK  Name = ZINC07687888
REMARK  6 active torsions:
REMARK  status: ('A' for Active; 'I' for Inactive)
REMARK    1  A    between atoms: N_9  and  C_12
REMARK    2  A    between atoms: C_12  and  C_13
REMARK    3  A    between atoms: C_13  and  C_14
REMARK    4  A    between atoms: C_14  and  C_15
REMARK    5  A    between atoms: N_17  and  N_18
REMARK    6  A    between atoms: C_19  and  C_21
REMARK                            x       y       z     vdW  Elec       q    Type
REMARK                         _______ _______ _______ _____ _____    ______ ____
ROOT
ATOM      1  C   UNL     1      -7.281   1.168   2.100  0.00  0.00    +0.229 C 
ATOM      2  O   UNL     1      -6.886   1.865   3.009  0.00  0.00    -0.274 OA
ATOM      3  N   UNL     1      -6.457   0.859   1.079  0.00  0.00    -0.234 N 
ATOM      4  H   UNL     1      -6.774   0.301   0.352  0.00  0.00    +0.173 HD
ENDROOT
BRANCH   3   5
ATOM      5  N   UNL     1      -5.143   1.344   1.069  0.00  0.00    -0.234 N 
ATOM      6  C   UNL     1      -4.318   1.035   0.049  0.00  0.00    +0.235 C 
ATOM      7  O   UNL     1      -4.714   0.337  -0.861  0.00  0.00    -0.274 OA
ATOM      8  H   UNL     1      -4.826   1.902   1.797  0.00  0.00    +0.173 HD
BRANCH   6   9
ATOM      9  C   UNL     1      -2.904   1.556   0.038  0.00  0.00    +0.049 C 
ATOM     10  C   UNL     1      -2.188   1.063  -1.221  0.00  0.00    +0.019 C 
ATOM     11  C   UNL     1      -0.753   1.593  -1.232  0.00  0.00    -0.009 C 
ATOM     12  C   UNL     1      -0.013   1.086   0.008  0.00  0.00    +0.007 C 
ATOM     13  C   UNL     1      -0.729   1.579   1.267  0.00  0.00    -0.009 C 
ATOM     14  C   UNL     1      -2.164   1.050   1.278  0.00  0.00    +0.019 C 
ATOM     15  C   UNL     1      -0.750   3.109   1.275  0.00  0.00    +0.007 C 
ATOM     16  C   UNL     1      -1.490   3.616   0.036  0.00  0.00    -0.009 C 
ATOM     17  C   UNL     1      -0.773   3.123  -1.223  0.00  0.00    +0.007 C 
ATOM     18  C   UNL     1      -2.925   3.086   0.047  0.00  0.00    +0.019 C 
ENDBRANCH   6   9
ENDBRANCH   3   5
BRANCH   1  19
ATOM     19  C   UNL     1      -8.695   0.646   2.110  0.00  0.00    +0.099 C 
BRANCH  19  20
ATOM     20  C   UNL     1      -9.411   1.139   3.369  0.00  0.00    +0.029 C 
BRANCH  20  21
ATOM     21  C   UNL     1     -10.847   0.610   3.380  0.00  0.00    +0.117 C 
BRANCH  21  30
ATOM     22  C   UNL     1     -13.888   3.122   8.012  0.00  0.00    +0.001 A 
ATOM     23  C   UNL     1     -13.468   1.995   8.693  0.00  0.00    +0.001 A 
ATOM     24  C   UNL     1     -12.694   1.037   8.056  0.00  0.00    +0.014 A 
ATOM     25  C   UNL     1     -12.341   1.211   6.728  0.00  0.00    +0.049 A 
ATOM     26  C   UNL     1     -12.770   2.360   6.034  0.00  0.00    +0.049 A 
ATOM     27  C   UNL     1     -13.542   3.309   6.683  0.00  0.00    +0.014 A 
ATOM     28  C   UNL     1     -12.226   2.232   4.665  0.00  0.00    +0.254 C 
ATOM     29  O   UNL     1     -12.381   3.031   3.763  0.00  0.00    -0.270 OA
ATOM     30  N   UNL     1     -11.533   1.082   4.585  0.00  0.00    -0.234 N 
ATOM     31  C   UNL     1     -11.556   0.421   5.756  0.00  0.00    +0.254 C 
ATOM     32  O   UNL     1     -11.020  -0.646   5.979  0.00  0.00    -0.270 OA
ENDBRANCH  21  30
ENDBRANCH  20  21
ENDBRANCH  19  20
ENDBRANCH   1  19
TORSDOF 6
