REMARK  Name = ZINC35032804
REMARK  17 active torsions:
REMARK  status: ('A' for Active; 'I' for Inactive)
REMARK    1  A    between atoms: C_1  and  C_2
REMARK    2  A    between atoms: C_2  and  C_3
REMARK    3  A    between atoms: C_3  and  C_4
REMARK    4  A    between atoms: C_4  and  C_5
REMARK    5  A    between atoms: C_5  and  C_7
REMARK    6  A    between atoms: C_5  and  C_9
REMARK    7  A    between atoms: C_7  and  C_8
REMARK    8  A    between atoms: N_11  and  C_12
REMARK    9  A    between atoms: N_11  and  C_17
REMARK   10  A    between atoms: C_12  and  C_13
REMARK   11  A    between atoms: C_13  and  N_14
REMARK   12  A    between atoms: N_14  and  C_15
REMARK   13  A    between atoms: N_14  and  C_16
REMARK   14  A    between atoms: C_17  and  C_19
REMARK   15  A    between atoms: C_17  and  C_20
REMARK   16  A    between atoms: N_30  and  C_31
REMARK   17  A    between atoms: C_31  and  C_32
REMARK                            x       y       z     vdW  Elec       q    Type
REMARK                         _______ _______ _______ _____ _____    ______ ____
ROOT
ATOM      1  C   UNL     1      -2.637  -4.826  -0.140  0.00  0.00    +0.219 C 
ATOM      2  O   UNL     1      -1.713  -5.526   0.218  0.00  0.00    -0.275 OA
ATOM      3  N   UNL     1      -3.848  -4.961   0.436  0.00  0.00    -0.293 N 
ENDROOT
BRANCH   3   4
ATOM      4  C   UNL     1      -4.032  -5.906   1.540  0.00  0.00    +0.139 C 
ATOM      5  C   UNL     1      -4.339  -5.134   2.825  0.00  0.00    +0.036 C 
BRANCH   4   6
ATOM      6  C   UNL     1      -5.178  -6.831   1.224  0.00  0.00    +0.133 A 
ATOM      7  N   UNL     1      -6.248  -6.759   1.956  0.00  0.00    -0.232 NA
ATOM      8  C   UNL     1      -7.320  -7.560   1.730  0.00  0.00    +0.078 A 
ATOM      9  C   UNL     1      -8.471  -7.483   2.517  0.00  0.00    +0.028 A 
ATOM     10  C   UNL     1      -9.535  -8.315   2.252  0.00  0.00    +0.002 A 
ATOM     11  C   UNL     1      -9.479  -9.232   1.211  0.00  0.00    +0.001 A 
ATOM     12  C   UNL     1      -8.354  -9.327   0.421  0.00  0.00    +0.015 A 
ATOM     13  C   UNL     1      -7.266  -8.494   0.672  0.00  0.00    +0.065 A 
ATOM     14  C   UNL     1      -6.040  -8.550  -0.138  0.00  0.00    +0.262 A 
ATOM     15  O   UNL     1      -5.929  -9.332  -1.064  0.00  0.00    -0.267 OA
ATOM     16  N   UNL     1      -5.042  -7.694   0.184  0.00  0.00    -0.295 N 
BRANCH  16  17
ATOM     17  C   UNL     1      -3.800  -7.703  -0.594  0.00  0.00    +0.123 C 
ATOM     18  C   UNL     1      -2.749  -8.546   0.133  0.00  0.00    +0.027 C 
ENDBRANCH  16  17
ENDBRANCH   4   6
ENDBRANCH   3   4
BRANCH   1  19
ATOM     19  C   UNL     1      -2.430  -3.806  -1.230  0.00  0.00    +0.075 C 
BRANCH  19  20
ATOM     20  C   UNL     1      -2.121  -2.445  -0.602  0.00  0.00    +0.009 C 
ATOM     21  C   UNL     1      -0.788  -2.520   0.145  0.00  0.00    +0.004 C 
ENDBRANCH  19  20
BRANCH  19  22
ATOM     22  C   UNL     1      -1.260  -4.236  -2.117  0.00  0.00    +0.013 C 
BRANCH  22  23
ATOM     23  C   UNL     1      -1.137  -3.275  -3.301  0.00  0.00    +0.000 C 
BRANCH  23  25
ATOM     24  C   UNL     1       0.214  -2.685  -5.318  0.00  0.00    +0.004 C 
ATOM     25  C   UNL     1       0.091  -3.647  -4.134  0.00  0.00    -0.003 C 
ENDBRANCH  23  25
ENDBRANCH  22  23
ENDBRANCH  19  22
ENDBRANCH   1  19
BRANCH   3  26
ATOM     26  C   UNL     1      -4.980  -4.164  -0.043  0.00  0.00    +0.090 C 
BRANCH  26  27
ATOM     27  C   UNL     1      -5.636  -4.870  -1.231  0.00  0.00    -0.060 C 
BRANCH  27  28
ATOM     28  N   UNL     1      -6.800  -4.095  -1.679  0.00  0.00    +0.377 N 
ATOM     29  C   UNL     1      -6.352  -2.796  -2.199  0.00  0.00    -0.097 C 
ATOM     30  C   UNL     1      -7.499  -4.832  -2.740  0.00  0.00    -0.097 C 
ATOM     31  H   UNL     1      -7.426  -3.949  -0.902  0.00  0.00    -0.083 HD
ENDBRANCH  27  28
ENDBRANCH  26  27
ENDBRANCH   3  26
TORSDOF 11
