REMARK  Name = ZINC02443085
REMARK  11 active torsions:
REMARK  status: ('A' for Active; 'I' for Inactive)
REMARK    1  A    between atoms: C_1  and  C_2
REMARK    2  A    between atoms: C_2  and  C_3
REMARK    3  A    between atoms: C_2  and  O_4
REMARK    4  A    between atoms: O_4  and  C_5
REMARK    5  A    between atoms: C_8  and  C_11
REMARK    6  A    between atoms: N_12  and  N_13
REMARK    7  A    between atoms: C_14  and  C_16
REMARK    8  A    between atoms: C_17  and  C_27
REMARK    9  A    between atoms: C_27  and  N_28
REMARK   10  A    between atoms: N_28  and  C_29
REMARK   11  A    between atoms: N_28  and  C_30
REMARK                            x       y       z     vdW  Elec       q    Type
REMARK                         _______ _______ _______ _____ _____    ______ ____
ROOT
ATOM      1  C   UNL     1      -2.622  -1.905  10.557  0.00  0.00    +0.170 A 
ATOM      2  C   UNL     1      -2.124  -2.236  11.786  0.00  0.00    +0.063 A 
ATOM      3  N   UNL     1      -3.170  -2.247  12.641  0.00  0.00    -0.194 N 
ATOM      4  N   UNL     1      -4.308  -1.914  11.892  0.00  0.00    -0.058 NA
ATOM      5  N   UNL     1      -3.947  -1.714  10.672  0.00  0.00    -0.124 NA
ATOM      6  C   UNL     1      -3.127  -2.535  14.010  0.00  0.00    +0.240 A 
ATOM      7  C   UNL     1      -4.275  -2.548  14.920  0.00  0.00    +0.206 A 
ATOM      8  N   UNL     1      -3.849  -2.859  16.114  0.00  0.00    -0.032 NA
ATOM      9  O   UNL     1      -2.449  -3.057  16.036  0.00  0.00    -0.239 OA
ATOM     10  N   UNL     1      -2.060  -2.844  14.690  0.00  0.00    -0.027 NA
ATOM     11  N   UNL     1      -5.593  -2.274  14.572  0.00  0.00    -0.337 N 
ATOM     12  H   UNL     1      -5.816  -2.051  13.655  0.00  0.00    +0.144 HD
ATOM     13  H   UNL     1      -6.290  -2.307  15.247  0.00  0.00    +0.144 HD
ENDROOT
BRANCH   1  15
ATOM     14  N   UNL     1      -2.448  -1.434   8.164  0.00  0.00    -0.202 N 
ATOM     15  C   UNL     1      -1.836  -1.772   9.316  0.00  0.00    +0.285 C 
ATOM     16  O   UNL     1      -0.636  -1.969   9.332  0.00  0.00    -0.267 OA
ATOM     17  H   UNL     1      -3.405  -1.277   8.152  0.00  0.00    +0.178 HD
BRANCH  14  19
ATOM     18  C   UNL     1      -2.292  -0.982   5.876  0.00  0.00    +0.138 C 
ATOM     19  N   UNL     1      -1.702  -1.308   6.985  0.00  0.00    -0.187 NA
BRANCH  18  23
ATOM     20  C   UNL     1      -0.030  -0.600   2.303  0.00  0.00    +0.121 A 
ATOM     21  C   UNL     1      -1.401  -0.375   2.282  0.00  0.00    +0.046 A 
ATOM     22  C   UNL     1      -2.139  -0.498   3.439  0.00  0.00    +0.013 A 
ATOM     23  C   UNL     1      -1.506  -0.850   4.635  0.00  0.00    -0.005 A 
ATOM     24  C   UNL     1      -0.127  -1.075   4.651  0.00  0.00    +0.013 A 
ATOM     25  C   UNL     1       0.602  -0.954   3.488  0.00  0.00    +0.046 A 
BRANCH  20  26
ATOM     26  O   UNL     1       0.693  -0.477   1.160  0.00  0.00    -0.489 OA
BRANCH  26  28
ATOM     27  C   UNL     1      -0.292   1.273  -0.184  0.00  0.00    +0.051 C 
ATOM     28  C   UNL     1      -0.034  -0.229  -0.045  0.00  0.00    +0.167 C 
ATOM     29  C   UNL     1       0.781  -0.719  -1.243  0.00  0.00    +0.051 C 
ENDBRANCH  26  28
ENDBRANCH  20  26
ENDBRANCH  18  23
ENDBRANCH  14  19
ENDBRANCH   1  15
BRANCH   2  30
ATOM     30  C   UNL     1      -0.685  -2.531  12.123  0.00  0.00    -0.020 C 
BRANCH  30  31
ATOM     31  N   UNL     1      -0.429  -3.968  11.956  0.00  0.00    +0.383 N 
ATOM     32  C   UNL     1      -0.579  -4.332  10.541  0.00  0.00    -0.095 C 
ATOM     33  H   UNL     1      -1.088  -4.494  12.510  0.00  0.00    -0.081 HD
BRANCH  31  34
ATOM     34  C   UNL     1       0.938  -4.277  12.398  0.00  0.00    -0.068 C 
ATOM     35  C   UNL     1       1.205  -5.773  12.225  0.00  0.00    -0.015 C 
ATOM     36  C   UNL     1       2.628  -6.094  12.685  0.00  0.00    -0.002 C 
ATOM     37  C   UNL     1       2.785  -5.715  14.159  0.00  0.00    -0.000 C 
ATOM     38  C   UNL     1       2.518  -4.219  14.332  0.00  0.00    -0.002 C 
ATOM     39  C   UNL     1       1.095  -3.898  13.872  0.00  0.00    -0.015 C 
ENDBRANCH  31  34
ENDBRANCH  30  31
ENDBRANCH   2  30
TORSDOF 8
