REMARK  Name = ZINC12793284
REMARK  8 active torsions:
REMARK  status: ('A' for Active; 'I' for Inactive)
REMARK    1  A    between atoms: C_1  and  C_2
REMARK    2  A    between atoms: C_2  and  C_3
REMARK    3  A    between atoms: C_3  and  C_5
REMARK    4  A    between atoms: C_3  and  N_12
REMARK    5  A    between atoms: C_8  and  C_11
REMARK    6  A    between atoms: C_13  and  C_15
REMARK    7  A    between atoms: C_15  and  C_16
REMARK    8  A    between atoms: C_16  and  N_17
REMARK                            x       y       z     vdW  Elec       q    Type
REMARK                         _______ _______ _______ _____ _____    ______ ____
ROOT
ATOM      1  C   UNL     1      -0.688   1.503  -4.202  0.00  0.00    +0.117 C 
ENDROOT
BRANCH   1   3
ATOM      2  N   UNL     1      -0.055  -0.114  -2.441  0.00  0.00    -0.308 N 
ATOM      3  C   UNL     1       0.107   1.109  -2.984  0.00  0.00    +0.215 C 
ATOM      4  O   UNL     1       0.893   1.891  -2.493  0.00  0.00    -0.276 OA
ATOM      5  H   UNL     1      -0.683  -0.740  -2.833  0.00  0.00    +0.149 HD
BRANCH   2   6
ATOM      6  C   UNL     1       0.718  -0.497  -1.257  0.00  0.00    +0.103 C 
BRANCH   6   7
ATOM      7  C   UNL     1       0.847  -1.998  -1.206  0.00  0.00    -0.027 A 
ATOM      8  C   UNL     1      -0.227  -2.796  -1.552  0.00  0.00    +0.006 A 
ATOM      9  C   UNL     1      -0.108  -4.173  -1.505  0.00  0.00    +0.004 A 
ATOM     10  C   UNL     1       1.084  -4.751  -1.113  0.00  0.00    -0.050 A 
ATOM     11  C   UNL     1       2.159  -3.953  -0.767  0.00  0.00    +0.004 A 
ATOM     12  C   UNL     1       2.042  -2.576  -0.818  0.00  0.00    +0.006 A 
ATOM     13  C   UNL     1       1.213  -6.252  -1.060  0.00  0.00    +0.044 C 
ENDBRANCH   6   7
BRANCH   6  15
ATOM     14  C   UNL     1      -0.019   1.526   0.010  0.00  0.00    +0.006 C 
ATOM     15  C   UNL     1       0.002  -0.004   0.002  0.00  0.00    +0.024 C 
ENDBRANCH   6  15
ENDBRANCH   2   6
ENDBRANCH   1   3
BRANCH   1  16
ATOM     16  C   UNL     1      -0.318   2.930  -4.613  0.00  0.00    +0.136 C 
BRANCH  16  17
ATOM     17  N   UNL     1      -1.091   3.313  -5.796  0.00  0.00    -0.286 N 
ATOM     18  C   UNL     1      -0.596   3.064  -7.031  0.00  0.00    +0.262 A 
ATOM     19  O   UNL     1       0.484   2.523  -7.180  0.00  0.00    -0.267 OA
ATOM     20  C   UNL     1      -1.411   3.467  -8.184  0.00  0.00    +0.065 A 
ATOM     21  C   UNL     1      -0.987   3.252  -9.495  0.00  0.00    +0.017 A 
ATOM     22  C   UNL     1      -1.781   3.646 -10.536  0.00  0.00    +0.021 A 
ATOM     23  C   UNL     1      -3.007   4.259 -10.303  0.00  0.00    +0.043 A 
ATOM     24  C   UNL     1      -3.450   4.483  -9.017  0.00  0.00    +0.048 A 
ATOM     25  C   UNL     1      -2.656   4.090  -7.937  0.00  0.00    +0.080 A 
ATOM     26  N   UNL     1      -3.050   4.290  -6.657  0.00  0.00    -0.222 NA
ATOM     27  C   UNL     1      -2.307   3.915  -5.645  0.00  0.00    +0.183 A 
ATOM     28  S   UNL     1      -2.902   4.208  -4.013  0.00  0.00    -0.011 SA
ATOM     29 CL   UNL     1      -3.991   4.748 -11.646  0.00  0.00    -0.083 Cl
ENDBRANCH  16  17
ENDBRANCH   1  16
TORSDOF 6
