REMARK  Name = ZINC45095664
REMARK  8 active torsions:
REMARK  status: ('A' for Active; 'I' for Inactive)
REMARK    1  A    between atoms: C_1  and  C_2
REMARK    2  A    between atoms: C_5  and  C_9
REMARK    3  A    between atoms: C_6  and  C_8
REMARK    4  A    between atoms: C_10  and  C_11
REMARK    5  A    between atoms: C_16  and  C_24
REMARK    6  A    between atoms: C_17  and  S_19
REMARK    7  A    between atoms: S_19  and  C_20
REMARK    8  A    between atoms: C_20  and  C_21
REMARK                            x       y       z     vdW  Elec       q    Type
REMARK                         _______ _______ _______ _____ _____    ______ ____
ROOT
ATOM      1  C   UNL     1      -0.056  -4.180  -2.454  0.00  0.00    +0.243 C 
ATOM      2  O   UNL     1       0.111  -2.975  -2.460  0.00  0.00    -0.270 OA
ATOM      3  N   UNL     1      -0.255  -4.839  -3.612  0.00  0.00    -0.261 N 
ATOM      4  C   UNL     1      -0.271  -4.141  -4.815  0.00  0.00    +0.166 A 
ATOM      5  N   UNL     1      -0.454  -4.593  -6.042  0.00  0.00    -0.229 NA
ATOM      6  C   UNL     1      -0.437  -3.780  -7.082  0.00  0.00    +0.061 A 
ATOM      7  C   UNL     1      -0.227  -2.448  -6.892  0.00  0.00    +0.070 A 
ATOM      8  S   UNL     1      -0.056  -2.392  -5.112  0.00  0.00    -0.045 S 
ATOM      9  C   UNL     1      -0.648  -4.324  -8.472  0.00  0.00    +0.067 C 
ATOM     10  H   UNL     1      -0.388  -5.800  -3.608  0.00  0.00    +0.157 HD
ENDROOT
BRANCH   1  12
ATOM     11  C   UNL     1       0.293  -4.281  -0.045  0.00  0.00    +0.013 C 
ATOM     12  C   UNL     1      -0.040  -4.915  -1.188  0.00  0.00    +0.068 C 
BRANCH  11  17
ATOM     13  C   UNL     1       2.474   1.035  -0.237  0.00  0.00    +0.044 C 
ATOM     14  C   UNL     1       1.902  -0.359  -0.186  0.00  0.00    -0.050 A 
ATOM     15  C   UNL     1       2.432  -1.350  -0.995  0.00  0.00    +0.004 A 
ATOM     16  C   UNL     1       1.915  -2.627  -0.955  0.00  0.00    +0.008 A 
ATOM     17  C   UNL     1       0.852  -2.920  -0.094  0.00  0.00    -0.022 A 
ATOM     18  C   UNL     1       0.323  -1.914   0.720  0.00  0.00    -0.043 A 
ATOM     19  C   UNL     1       0.855  -0.642   0.672  0.00  0.00    +0.007 A 
ATOM     20  C   UNL     1      -0.822  -2.219   1.651  0.00  0.00    +0.044 C 
ENDBRANCH  11  17
ENDBRANCH   1  12
BRANCH   7  21
ATOM     21  S   UNL     1      -0.152  -1.141  -8.071  0.00  0.00    -0.107 S 
BRANCH  21  22
ATOM     22  C   UNL     1       0.157   0.339  -7.067  0.00  0.00    +0.170 C 
BRANCH  22  23
ATOM     23  C   UNL     1       0.244   1.546  -7.965  0.00  0.00    +0.221 C 
ATOM     24  O   UNL     1       0.112   1.420  -9.164  0.00  0.00    -0.275 OA
ATOM     25  N   UNL     1       0.470   2.764  -7.436  0.00  0.00    -0.329 N 
ATOM     26  H   UNL     1       0.576   2.865  -6.477  0.00  0.00    +0.145 HD
ATOM     27  H   UNL     1       0.526   3.541  -8.014  0.00  0.00    +0.145 HD
ENDBRANCH  22  23
ENDBRANCH  21  22
ENDBRANCH   7  21
TORSDOF 5
