REMARK  Name = ZINC44425636
REMARK  8 active torsions:
REMARK  status: ('A' for Active; 'I' for Inactive)
REMARK    1  A    between atoms: C_1  and  C_2
REMARK    2  A    between atoms: C_2  and  C_3
REMARK    3  A    between atoms: C_6  and  C_9
REMARK    4  A    between atoms: C_9  and  N_10
REMARK    5  A    between atoms: C_12  and  C_17
REMARK    6  A    between atoms: C_19  and  C_22
REMARK    7  A    between atoms: C_22  and  N_23
REMARK    8  A    between atoms: C_24  and  C_26
REMARK                            x       y       z     vdW  Elec       q    Type
REMARK                         _______ _______ _______ _____ _____    ______ ____
ROOT
ATOM      1  C   UNL     1       2.944   1.686  -8.282  0.00  0.00    +0.177 A 
ATOM      2  N   UNL     1       2.346   2.776  -8.776  0.00  0.00    -0.194 NA
ATOM      3  C   UNL     1       2.478   2.809 -10.073  0.00  0.00    +0.245 A 
ATOM      4  O   UNL     1       3.172   1.729 -10.452  0.00  0.00    -0.336 OA
ATOM      5  N   UNL     1       3.471   1.012  -9.264  0.00  0.00    -0.061 NA
ENDROOT
BRANCH   1   8
ATOM      6  N   UNL     1       3.149  -0.719  -5.546  0.00  0.00    -0.296 N 
ATOM      7  C   UNL     1       2.343  -0.072  -6.588  0.00  0.00    +0.120 C 
ATOM      8  C   UNL     1       3.004   1.304  -6.826  0.00  0.00    +0.086 C 
ATOM      9  C   UNL     1       4.461   1.034  -6.383  0.00  0.00    +0.109 C 
ATOM     10  C   UNL     1       4.344  -0.118  -5.409  0.00  0.00    +0.217 C 
ATOM     11  O   UNL     1       5.204  -0.452  -4.622  0.00  0.00    -0.276 OA
BRANCH   6  12
ATOM     12  C   UNL     1       2.707  -1.868  -4.752  0.00  0.00    +0.142 C 
BRANCH  12  16
ATOM     13  C   UNL     1       0.707  -0.490  -1.238  0.00  0.00    -0.048 A 
ATOM     14  C   UNL     1      -0.011  -0.719  -2.397  0.00  0.00    +0.004 A 
ATOM     15  C   UNL     1       0.636  -1.164  -3.534  0.00  0.00    +0.005 A 
ATOM     16  C   UNL     1       2.002  -1.381  -3.513  0.00  0.00    -0.030 A 
ATOM     17  C   UNL     1       2.720  -1.152  -2.354  0.00  0.00    +0.005 A 
ATOM     18  C   UNL     1       2.073  -0.702  -1.218  0.00  0.00    +0.004 A 
BRANCH  13  20
ATOM     19  C   UNL     1      -0.019   1.526   0.010  0.00  0.00    +0.009 C 
ATOM     20  C   UNL     1       0.002  -0.004   0.002  0.00  0.00    +0.032 C 
ENDBRANCH  13  20
ENDBRANCH  12  16
ENDBRANCH   6  12
ENDBRANCH   1   8
BRANCH   3  21
ATOM     21  C   UNL     1       1.941   3.879 -10.988  0.00  0.00    +0.203 C 
BRANCH  21  22
ATOM     22  N   UNL     1       2.944   4.935 -11.147  0.00  0.00    -0.303 N 
ATOM     23  C   UNL     1       2.682   6.002 -11.927  0.00  0.00    +0.244 C 
ATOM     24  O   UNL     1       1.613   6.089 -12.499  0.00  0.00    -0.270 OA
ATOM     25  H   UNL     1       3.797   4.865 -10.691  0.00  0.00    +0.150 HD
BRANCH  23  26
ATOM     26  C   UNL     1       3.695   7.067 -12.087  0.00  0.00    +0.037 A 
ATOM     27  C   UNL     1       4.925   6.968 -11.437  0.00  0.00    +0.013 A 
ATOM     28  C   UNL     1       5.866   7.965 -11.591  0.00  0.00    +0.001 A 
ATOM     29  C   UNL     1       5.591   9.062 -12.388  0.00  0.00    +0.000 A 
ATOM     30  C   UNL     1       4.373   9.167 -13.035  0.00  0.00    +0.001 A 
ATOM     31  C   UNL     1       3.426   8.174 -12.894  0.00  0.00    +0.013 A 
ENDBRANCH  23  26
ENDBRANCH  21  22
ENDBRANCH   3  21
TORSDOF 7
