REMARK  Name = ZINC01069598
REMARK  6 active torsions:
REMARK  status: ('A' for Active; 'I' for Inactive)
REMARK    1  A    between atoms: C_1  and  C_2
REMARK    2  A    between atoms: C_14  and  C_16
REMARK    3  A    between atoms: C_19  and  C_22
REMARK    4  A    between atoms: C_22  and  O_24
REMARK    5  A    between atoms: O_24  and  C_25
REMARK    6  A    between atoms: C_29  and  C_32
REMARK                            x       y       z     vdW  Elec       q    Type
REMARK                         _______ _______ _______ _____ _____    ______ ____
ROOT
ATOM      1  C   UNL     1       0.122   0.813   0.103  0.00  0.00    +0.110 C 
ATOM      2  C   UNL     1      -0.614   1.411   1.274  0.00  0.00    +0.218 C 
ATOM      3  O   UNL     1      -1.566   2.138   1.086  0.00  0.00    -0.276 OA
ATOM      4  N   UNL     1      -0.213   1.138   2.532  0.00  0.00    -0.258 N 
ATOM      5  C   UNL     1       0.878   0.297   2.739  0.00  0.00    +0.058 A 
ATOM      6  C   UNL     1       2.159   0.679   2.353  0.00  0.00    +0.025 A 
ATOM      7  C   UNL     1       3.228  -0.153   2.632  0.00  0.00    +0.002 A 
ATOM      8  C   UNL     1       3.030  -1.351   3.295  0.00  0.00    +0.002 A 
ATOM      9  C   UNL     1       1.754  -1.743   3.660  0.00  0.00    +0.025 A 
ATOM     10  C   UNL     1       0.681  -0.923   3.357  0.00  0.00    +0.053 A 
ATOM     11  N   UNL     1      -0.633  -1.280   3.636  0.00  0.00    -0.316 N 
ATOM     12  C   UNL     1      -1.451  -0.621   4.498  0.00  0.00    +0.017 C 
ATOM     13  C   UNL     1      -1.622   0.710   4.535  0.00  0.00    +0.037 C 
ATOM     14  C   UNL     1      -0.926   1.718   3.650  0.00  0.00    +0.146 C 
ATOM     15  C   UNL     1      -2.516   1.290   5.466  0.00  0.00    +0.163 C 
ATOM     16  O   UNL     1      -2.667   2.496   5.463  0.00  0.00    -0.292 OA
ATOM     17  C   UNL     1      -3.284   0.467   6.457  0.00  0.00    +0.091 C 
ATOM     18  C   UNL     1      -2.472  -0.796   6.770  0.00  0.00    +0.068 C 
ATOM     19  C   UNL     1      -2.218  -1.524   5.451  0.00  0.00    +0.063 C 
ATOM     20  H   UNL     1      -0.993  -2.057   3.182  0.00  0.00    +0.152 HD
ENDROOT
BRANCH  14  21
ATOM     21  C   UNL     1       0.053   2.494   4.492  0.00  0.00    -0.022 A 
ATOM     22  C   UNL     1       1.136   1.847   5.061  0.00  0.00    +0.006 A 
ATOM     23  C   UNL     1       2.039   2.552   5.829  0.00  0.00    +0.015 A 
ATOM     24  C   UNL     1       1.853   3.920   6.040  0.00  0.00    +0.059 A 
ATOM     25  C   UNL     1       0.756   4.566   5.467  0.00  0.00    +0.015 A 
ATOM     26  C   UNL     1      -0.137   3.849   4.697  0.00  0.00    +0.006 A 
BRANCH  24  27
ATOM     27  C   UNL     1       2.814   4.681   6.865  0.00  0.00    +0.339 C 
ATOM     28  O   UNL     1       2.650   5.871   7.046  0.00  0.00    -0.245 OA
BRANCH  27  29
ATOM     29  O   UNL     1       3.872   4.055   7.417  0.00  0.00    -0.464 OA
ATOM     30  C   UNL     1       4.774   4.865   8.215  0.00  0.00    +0.280 C 
ENDBRANCH  27  29
ENDBRANCH  24  27
ENDBRANCH  14  21
BRANCH  18  31
ATOM     31  C   UNL     1      -3.252  -1.687   7.703  0.00  0.00    +0.109 A 
ATOM     32  C   UNL     1      -2.846  -2.105   8.915  0.00  0.00    +0.045 A 
ATOM     33  C   UNL     1      -3.880  -2.915   9.437  0.00  0.00    +0.041 A 
ATOM     34  C   UNL     1      -4.857  -2.943   8.513  0.00  0.00    +0.195 A 
ATOM     35  O   UNL     1      -4.474  -2.193   7.467  0.00  0.00    -0.468 OA
ENDBRANCH  18  31
TORSDOF 4
