REMARK  Name = ZINC27239786
REMARK  12 active torsions:
REMARK  status: ('A' for Active; 'I' for Inactive)
REMARK    1  A    between atoms: C_1  and  C_2
REMARK    2  A    between atoms: C_2  and  C_3
REMARK    3  A    between atoms: C_6  and  C_9
REMARK    4  A    between atoms: C_9  and  C_10
REMARK    5  A    between atoms: C_9  and  C_17
REMARK    6  A    between atoms: C_9  and  O_36
REMARK    7  A    between atoms: C_15  and  C_16
REMARK    8  A    between atoms: C_17  and  C_19
REMARK    9  A    between atoms: C_17  and  O_27
REMARK   10  A    between atoms: C_19  and  N_20
REMARK   11  A    between atoms: O_27  and  C_28
REMARK   12  A    between atoms: C_33  and  C_34
REMARK                            x       y       z     vdW  Elec       q    Type
REMARK                         _______ _______ _______ _____ _____    ______ ____
ROOT
ATOM      1  C   UNL     1      -1.578   4.510   3.074  0.00  0.00    +0.198 C 
ENDROOT
BRANCH   1   2
ATOM      2  C   UNL     1      -2.777   4.647   4.014  0.00  0.00    +0.151 C 
BRANCH   2   3
ATOM      3  C   UNL     1      -2.302   4.606   5.444  0.00  0.00    -0.005 A 
ATOM      4  C   UNL     1      -2.182   5.779   6.167  0.00  0.00    +0.007 A 
ATOM      5  C   UNL     1      -1.750   5.740   7.479  0.00  0.00    +0.000 A 
ATOM      6  C   UNL     1      -1.429   4.531   8.066  0.00  0.00    +0.000 A 
ATOM      7  C   UNL     1      -1.543   3.359   7.342  0.00  0.00    +0.004 A 
ATOM      8  C   UNL     1      -1.980   3.397   6.031  0.00  0.00    -0.044 A 
ATOM      9  C   UNL     1      -2.105   2.119   5.241  0.00  0.00    +0.044 C 
ENDBRANCH   2   3
BRANCH   2  13
ATOM     10  C   UNL     1      -4.749   8.364   3.276  0.00  0.00    -0.048 A 
ATOM     11  C   UNL     1      -5.463   7.289   3.770  0.00  0.00    +0.004 A 
ATOM     12  C   UNL     1      -4.825   6.086   4.009  0.00  0.00    +0.007 A 
ATOM     13  C   UNL     1      -3.473   5.958   3.754  0.00  0.00    -0.008 A 
ATOM     14  C   UNL     1      -2.757   7.036   3.266  0.00  0.00    +0.007 A 
ATOM     15  C   UNL     1      -3.396   8.237   3.023  0.00  0.00    +0.004 A 
BRANCH  10  17
ATOM     16  C   UNL     1      -5.388  10.543   4.274  0.00  0.00    +0.009 C 
ATOM     17  C   UNL     1      -5.445   9.675   3.015  0.00  0.00    +0.032 C 
ENDBRANCH  10  17
ENDBRANCH   2  13
BRANCH   2  18
ATOM     18  O   UNL     1      -3.688   3.571   3.784  0.00  0.00    -0.376 OA
ATOM     19  H   UNL     1      -3.358   2.531   3.925  0.00  0.00    +0.211 HD
ENDBRANCH   2  18
ENDBRANCH   1   2
BRANCH   1  20
ATOM     20  C   UNL     1      -2.072   4.413   1.629  0.00  0.00    -0.030 C 
BRANCH  20  21
ATOM     21  N   UNL     1      -0.923   4.463   0.715  0.00  0.00    +0.382 N 
ATOM     22  C   UNL     1      -0.156   3.198   0.756  0.00  0.00    -0.079 C 
ATOM     23  C   UNL     1      -0.721   2.144  -0.158  0.00  0.00    -0.019 C 
ATOM     24  C   UNL     1       0.020   2.222  -1.510  0.00  0.00    -0.002 C 
ATOM     25  C   UNL     1      -0.467   3.317  -2.341  0.00  0.00    -0.002 C 
ATOM     26  C   UNL     1      -0.264   4.693  -1.671  0.00  0.00    -0.019 C 
ATOM     27  C   UNL     1      -1.342   4.886  -0.640  0.00  0.00    -0.079 C 
ATOM     28  H   UNL     1      -0.226   5.240   1.062  0.00  0.00    -0.082 HD
ENDBRANCH  20  21
ENDBRANCH   1  20
BRANCH   1  29
ATOM     29  O   UNL     1      -0.844   3.331   3.407  0.00  0.00    -0.487 OA
BRANCH  29  30
ATOM     30  C   UNL     1       0.276   3.493   4.161  0.00  0.00    +0.124 A 
ATOM     31  C   UNL     1       0.575   4.736   4.702  0.00  0.00    +0.047 A 
ATOM     32  C   UNL     1       1.710   4.898   5.471  0.00  0.00    +0.023 A 
ATOM     33  C   UNL     1       2.555   3.824   5.695  0.00  0.00    +0.041 A 
ATOM     34  C   UNL     1       2.261   2.586   5.152  0.00  0.00    +0.027 A 
ATOM     35  C   UNL     1       1.123   2.419   4.386  0.00  0.00    -0.007 A 
ATOM     36  C   UNL     1       0.804   1.070   3.795  0.00  0.00    +0.047 C 
ATOM     37 CL   UNL     1       3.985   4.032   6.657  0.00  0.00    -0.084 Cl
ENDBRANCH  29  30
ENDBRANCH   1  29
TORSDOF 9
