REMARK  Name = ZINC38975056
REMARK  8 active torsions:
REMARK  status: ('A' for Active; 'I' for Inactive)
REMARK    1  A    between atoms: C_1  and  C_2
REMARK    2  A    between atoms: C_2  and  C_3
REMARK    3  A    between atoms: C_8  and  N_9
REMARK    4  A    between atoms: N_9  and  C_10
REMARK    5  A    between atoms: N_13  and  S_14
REMARK    6  A    between atoms: S_14  and  C_17
REMARK    7  A    between atoms: C_20  and  C_24
REMARK    8  A    between atoms: C_21  and  C_23
REMARK                            x       y       z     vdW  Elec       q    Type
REMARK                         _______ _______ _______ _____ _____    ______ ____
ROOT
ATOM      1  C   UNL     1      -2.047  -0.600   3.743  0.00  0.00    +0.237 C 
ATOM      2  C   UNL     1      -3.251  -1.444   3.391  0.00  0.00    +0.192 C 
ATOM      3  N   UNL     1      -3.102  -2.595   2.805  0.00  0.00    -0.110 NA
ATOM      4  N   UNL     1      -4.477  -0.987   3.693  0.00  0.00    -0.226 NA
ATOM      5  C   UNL     1      -4.654   0.175   4.287  0.00  0.00    +0.089 A 
ATOM      6  C   UNL     1      -5.964   0.626   4.591  0.00  0.00    +0.030 A 
ATOM      7  C   UNL     1      -6.151   1.817   5.199  0.00  0.00    +0.002 A 
ATOM      8  C   UNL     1      -5.088   2.663   5.559  0.00  0.00    +0.002 A 
ATOM      9  C   UNL     1      -3.802   2.330   5.315  0.00  0.00    +0.027 A 
ATOM     10  C   UNL     1      -3.512   1.048   4.656  0.00  0.00    +0.063 A 
ATOM     11  N   UNL     1      -2.284   0.693   4.405  0.00  0.00    -0.359 N 
ATOM     12  H   UNL     1      -1.542   1.268   4.649  0.00  0.00    +0.162 HD
ENDROOT
BRANCH   3  13
ATOM     13  S   UNL     1      -4.429  -3.509   2.426  0.00  0.00    +0.100 S 
ATOM     14  O   UNL     1      -5.017  -3.903   3.659  0.00  0.00    -0.146 OA
ATOM     15  O   UNL     1      -5.149  -2.789   1.435  0.00  0.00    -0.146 OA
BRANCH  13  16
ATOM     16  C   UNL     1      -3.845  -4.981   1.654  0.00  0.00    +0.113 A 
ATOM     17  C   UNL     1      -3.674  -5.021   0.282  0.00  0.00    +0.029 A 
ATOM     18  C   UNL     1      -3.215  -6.175  -0.324  0.00  0.00    +0.005 A 
ATOM     19  C   UNL     1      -2.927  -7.290   0.442  0.00  0.00    -0.047 A 
ATOM     20  C   UNL     1      -3.098  -7.250   1.813  0.00  0.00    -0.046 A 
ATOM     21  C   UNL     1      -3.552  -6.094   2.419  0.00  0.00    +0.032 A 
ATOM     22  C   UNL     1      -2.784  -8.466   2.647  0.00  0.00    +0.044 C 
ATOM     23  C   UNL     1      -2.428  -8.549  -0.219  0.00  0.00    +0.044 C 
ENDBRANCH  13  16
ENDBRANCH   3  13
BRANCH   1  24
ATOM     24  N   UNL     1      -1.307  -0.339   2.506  0.00  0.00    -0.318 N 
ATOM     25  H   UNL     1      -1.768   0.016   1.730  0.00  0.00    +0.148 HD
BRANCH  24  31
ATOM     26  C   UNL     1       0.739  -0.489   1.234  0.00  0.00    -0.027 A 
ATOM     27  C   UNL     1       2.095  -0.745   1.177  0.00  0.00    +0.005 A 
ATOM     28  C   UNL     1       2.779  -1.121   2.318  0.00  0.00    +0.000 A 
ATOM     29  C   UNL     1       2.108  -1.241   3.522  0.00  0.00    +0.002 A 
ATOM     30  C   UNL     1       0.752  -0.986   3.587  0.00  0.00    +0.023 A 
ATOM     31  C   UNL     1       0.063  -0.603   2.442  0.00  0.00    +0.032 A 
BRANCH  26  33
ATOM     32  C   UNL     1      -0.084   1.446  -0.079  0.00  0.00    +0.009 C 
ATOM     33  C   UNL     1      -0.005  -0.080  -0.011  0.00  0.00    +0.033 C 
ENDBRANCH  26  33
ENDBRANCH  24  31
ENDBRANCH   1  24
TORSDOF 5
