REMARK  Name = ZINC40796981
REMARK  11 active torsions:
REMARK  status: ('A' for Active; 'I' for Inactive)
REMARK    1  A    between atoms: C_1  and  C_2
REMARK    2  A    between atoms: C_2  and  C_3
REMARK    3  A    between atoms: C_2  and  N_4
REMARK    4  A    between atoms: C_5  and  C_9
REMARK    5  A    between atoms: C_13  and  C_15
REMARK    6  A    between atoms: N_17  and  C_18
REMARK    7  A    between atoms: C_19  and  C_27
REMARK    8  A    between atoms: N_29  and  C_30
REMARK    9  A    between atoms: C_30  and  C_31
REMARK   10  A    between atoms: C_31  and  O_32
REMARK   11  A    between atoms: O_32  and  C_33
REMARK                            x       y       z     vdW  Elec       q    Type
REMARK                         _______ _______ _______ _____ _____    ______ ____
ROOT
ATOM      1  C   UNL     1       5.716  -3.918   0.320  0.00  0.00    +0.249 C 
ATOM      2  O   UNL     1       5.927  -4.303  -0.814  0.00  0.00    -0.270 OA
ATOM      3  N   UNL     1       6.499  -4.341   1.331  0.00  0.00    -0.275 N 
ATOM      4  H   UNL     1       6.331  -4.033   2.236  0.00  0.00    +0.156 HD
ENDROOT
BRANCH   3   5
ATOM      5  C   UNL     1       7.545  -5.214   1.080  0.00  0.00    +0.085 A 
ATOM      6  C   UNL     1       8.443  -5.753   1.989  0.00  0.00    +0.069 A 
ATOM      7  C   UNL     1       9.457  -6.652   1.466  0.00  0.00    -0.023 A 
ATOM      8  C   UNL     1       9.389  -6.846   0.131  0.00  0.00    -0.004 A 
ATOM      9  S   UNL     1       8.012  -5.867  -0.395  0.00  0.00    -0.077 S 
ATOM     10  C   UNL     1      10.288  -7.709  -0.699  0.00  0.00    +0.043 C 
ATOM     11  C   UNL     1      11.534  -8.047   0.132  0.00  0.00    +0.005 C 
ATOM     12  C   UNL     1      11.092  -8.516   1.521  0.00  0.00    +0.005 C 
ATOM     13  C   UNL     1      10.521  -7.337   2.311  0.00  0.00    +0.037 C 
BRANCH   6  14
ATOM     14  C   UNL     1       8.371  -5.430   3.417  0.00  0.00    +0.247 C 
ATOM     15  O   UNL     1       7.695  -6.114   4.162  0.00  0.00    -0.270 OA
ATOM     16  N   UNL     1       9.054  -4.375   3.904  0.00  0.00    -0.309 N 
ATOM     17  H   UNL     1       9.592  -3.830   3.310  0.00  0.00    +0.149 HD
BRANCH  16  18
ATOM     18  C   UNL     1       8.982  -4.052   5.331  0.00  0.00    +0.132 C 
BRANCH  18  19
ATOM     19  C   UNL     1       9.842  -2.819   5.619  0.00  0.00    +0.178 C 
BRANCH  19  20
ATOM     20  O   UNL     1       9.289  -1.686   4.946  0.00  0.00    -0.381 OA
ATOM     21  C   UNL     1      10.021  -0.475   5.150  0.00  0.00    +0.194 C 
ENDBRANCH  19  20
ENDBRANCH  18  19
ENDBRANCH  16  18
ENDBRANCH   6  14
ENDBRANCH   3   5
BRANCH   1  26
ATOM     22  C   UNL     1       2.741  -1.670  -0.196  0.00  0.00    +0.021 A 
ATOM     23  C   UNL     1       2.509  -1.234   1.109  0.00  0.00    +0.011 A 
ATOM     24  C   UNL     1       3.315  -1.672   2.141  0.00  0.00    +0.001 A 
ATOM     25  C   UNL     1       4.356  -2.543   1.890  0.00  0.00    +0.013 A 
ATOM     26  C   UNL     1       4.600  -2.986   0.588  0.00  0.00    +0.038 A 
ATOM     27  C   UNL     1       3.786  -2.553  -0.457  0.00  0.00    +0.024 A 
BRANCH  22  29
ATOM     28  N   UNL     1       1.248   0.001  -1.378  0.00  0.00    -0.223 N 
ATOM     29  C   UNL     1       1.875  -1.200  -1.300  0.00  0.00    +0.182 A 
ATOM     30  N   UNL     1       1.567  -1.867  -2.392  0.00  0.00    -0.108 NA
ATOM     31  N   UNL     1       0.795  -1.169  -3.144  0.00  0.00    -0.023 NA
ATOM     32  N   UNL     1       0.550  -0.027  -2.598  0.00  0.00    -0.043 NA
BRANCH  28  34
ATOM     33  C   UNL     1       1.656   2.396  -1.103  0.00  0.00    +0.032 C 
ATOM     34  C   UNL     1       1.286   1.089  -0.399  0.00  0.00    +0.105 C 
ATOM     35  C   UNL     1      -0.089   1.234   0.256  0.00  0.00    +0.032 C 
ENDBRANCH  28  34
ENDBRANCH  22  29
ENDBRANCH   1  26
TORSDOF 8
