REMARK  Name = ZINC49908084
REMARK  8 active torsions:
REMARK  status: ('A' for Active; 'I' for Inactive)
REMARK    1  A    between atoms: C_1  and  C_2
REMARK    2  A    between atoms: C_2  and  C_3
REMARK    3  A    between atoms: C_3  and  C_4
REMARK    4  A    between atoms: C_3  and  N_20
REMARK    5  A    between atoms: N_10  and  C_13
REMARK    6  A    between atoms: C_18  and  C_19
REMARK    7  A    between atoms: N_20  and  C_21
REMARK    8  A    between atoms: C_22  and  C_23
REMARK                            x       y       z     vdW  Elec       q    Type
REMARK                         _______ _______ _______ _____ _____    ______ ____
ROOT
ATOM      1  C   UNL     1      -1.348  -1.921  -0.015  0.00  0.00    +0.100 A 
ATOM      2  C   UNL     1      -0.616  -2.638   0.948  0.00  0.00    +0.263 A 
ATOM      3  O   UNL     1      -0.076  -2.052   1.871  0.00  0.00    -0.267 OA
ATOM      4  N   UNL     1      -0.516  -3.978   0.845  0.00  0.00    -0.274 N 
ATOM      5  C   UNL     1      -1.109  -4.631  -0.171  0.00  0.00    +0.337 A 
ATOM      6  O   UNL     1      -1.007  -5.840  -0.247  0.00  0.00    -0.246 OA
ATOM      7  N   UNL     1      -1.815  -3.966  -1.104  0.00  0.00    -0.228 N 
ATOM      8  C   UNL     1      -1.947  -2.600  -1.033  0.00  0.00    +0.270 A 
ATOM      9  O   UNL     1      -2.660  -1.936  -1.968  0.00  0.00    -0.267 OA
ATOM     10  H   UNL     1      -0.011  -4.476   1.507  0.00  0.00    +0.173 HD
ENDROOT
BRANCH   7  11
ATOM     11  C   UNL     1      -2.423  -4.671  -2.151  0.00  0.00    +0.057 A 
ATOM     12  C   UNL     1      -3.722  -5.142  -2.010  0.00  0.00    +0.026 A 
ATOM     13  C   UNL     1      -4.319  -5.837  -3.044  0.00  0.00    +0.002 A 
ATOM     14  C   UNL     1      -3.624  -6.063  -4.219  0.00  0.00    +0.000 A 
ATOM     15  C   UNL     1      -2.331  -5.595  -4.361  0.00  0.00    +0.005 A 
ATOM     16  C   UNL     1      -1.731  -4.894  -3.333  0.00  0.00    -0.026 A 
ATOM     17  C   UNL     1      -0.324  -4.379  -3.492  0.00  0.00    +0.046 C 
ENDBRANCH   7  11
BRANCH   1  18
ATOM     18  C   UNL     1      -1.474  -0.422   0.082  0.00  0.00    +0.094 C 
BRANCH  18  19
ATOM     19  N   UNL     1      -2.006  -0.059   1.402  0.00  0.00    -0.404 NA
ATOM     20  H   UNL     1      -1.427  -0.465   2.122  0.00  0.00    +0.123 HD
ATOM     21  H   UNL     1      -2.010   0.945   1.499  0.00  0.00    +0.123 HD
BRANCH  19  22
ATOM     22  C   UNL     1      -3.312  -0.544   1.527  0.00  0.00    +0.050 C 
ATOM     23  C   UNL     1      -3.638  -1.318   2.556  0.00  0.00    +0.016 C 
BRANCH  23  24
ATOM     24  C   UNL     1      -5.011  -1.828   2.688  0.00  0.00    -0.050 C 
ATOM     25  C   UNL     1      -5.294  -2.586   3.723  0.00  0.00    -0.023 C 
ATOM     26  C   UNL     1      -6.648  -3.181   3.978  0.00  0.00    +0.027 C 
ATOM     27  C   UNL     1      -7.707  -2.457   3.144  0.00  0.00    +0.004 C 
ATOM     28  C   UNL     1      -7.219  -2.386   1.692  0.00  0.00    +0.005 C 
ATOM     29  C   UNL     1      -6.011  -1.447   1.634  0.00  0.00    +0.035 C 
ENDBRANCH  23  24
ENDBRANCH  19  22
ENDBRANCH  18  19
BRANCH  18  31
ATOM     30  C   UNL     1      -0.243   1.741  -0.137  0.00  0.00    +0.006 C 
ATOM     31  C   UNL     1      -0.097   0.218  -0.106  0.00  0.00    +0.022 C 
ENDBRANCH  18  31
ENDBRANCH   1  18
TORSDOF 6
