REMARK  Name = ZINC64117927
REMARK  4 active torsions:
REMARK  status: ('A' for Active; 'I' for Inactive)
REMARK    1  A    between atoms: C_6  and  C_12
REMARK    2  A    between atoms: N_14  and  C_15
REMARK    3  A    between atoms: C_18  and  N_21
REMARK    4  A    between atoms: N_24  and  C_25
REMARK                            x       y       z     vdW  Elec       q    Type
REMARK                         _______ _______ _______ _____ _____    ______ ____
ROOT
ATOM      1  C   UNL     1       2.164  -4.457   0.838  0.00  0.00    +0.245 C 
ATOM      2  O   UNL     1       1.526  -5.364   1.331  0.00  0.00    -0.273 OA
ATOM      3  N   UNL     1       3.333  -4.077   1.391  0.00  0.00    -0.283 N 
ATOM      4  H   UNL     1       3.875  -3.397   0.960  0.00  0.00    +0.155 HD
ENDROOT
BRANCH   1  10
ATOM      5  C   UNL     1       1.276  -5.714  -4.587  0.00  0.00    +0.001 A 
ATOM      6  C   UNL     1      -0.023  -5.908  -4.102  0.00  0.00    +0.002 A 
ATOM      7  C   UNL     1      -0.413  -5.492  -2.878  0.00  0.00    +0.026 A 
ATOM      8  C   UNL     1       0.503  -4.828  -2.019  0.00  0.00    +0.045 A 
ATOM      9  N   UNL     1       0.368  -4.338  -0.808  0.00  0.00    -0.369 N 
ATOM     10  C   UNL     1       1.648  -3.755  -0.392  0.00  0.00    +0.209 C 
ATOM     11  C   UNL     1       2.597  -3.967  -1.551  0.00  0.00    +0.059 C 
ATOM     12  C   UNL     1       1.882  -4.612  -2.508  0.00  0.00    +0.015 A 
ATOM     13  C   UNL     1       2.226  -5.093  -3.849  0.00  0.00    +0.011 A 
ATOM     14 CL   UNL     1       4.262  -3.485  -1.639  0.00  0.00    -0.085 Cl
ATOM     15  H   UNL     1      -0.443  -4.359  -0.277  0.00  0.00    +0.161 HD
ENDBRANCH   1  10
BRANCH   3  16
ATOM     16  C   UNL     1       3.765  -4.663   2.587  0.00  0.00    +0.034 A 
ATOM     17  C   UNL     1       4.455  -3.903   3.523  0.00  0.00    +0.025 A 
ATOM     18  C   UNL     1       4.881  -4.480   4.702  0.00  0.00    +0.025 A 
ATOM     19  C   UNL     1       4.620  -5.821   4.953  0.00  0.00    +0.035 A 
ATOM     20  C   UNL     1       3.930  -6.581   4.017  0.00  0.00    +0.025 A 
ATOM     21  C   UNL     1       3.498  -6.002   2.841  0.00  0.00    +0.025 A 
BRANCH  19  22
ATOM     22  N   UNL     1       5.053  -6.407   6.150  0.00  0.00    -0.269 N 
ATOM     23  C   UNL     1       5.464  -7.691   6.161  0.00  0.00    +0.304 C 
ATOM     24  O   UNL     1       5.380  -8.365   5.153  0.00  0.00    -0.253 OA
ATOM     25  N   UNL     1       5.967  -8.227   7.291  0.00  0.00    -0.296 N 
ATOM     26  H   UNL     1       5.057  -5.889   6.970  0.00  0.00    +0.156 HD
ATOM     27  H   UNL     1       6.034  -7.689   8.095  0.00  0.00    +0.151 HD
BRANCH  25  28
ATOM     28  C   UNL     1       6.414  -9.622   7.303  0.00  0.00    +0.075 C 
ATOM     29  C   UNL     1       6.021 -10.479   8.509  0.00  0.00    +0.024 C 
ATOM     30  C   UNL     1       7.469 -10.016   8.338  0.00  0.00    +0.024 C 
ENDBRANCH  25  28
ENDBRANCH  19  22
ENDBRANCH   3  16
TORSDOF 4
