REMARK  Name = ZINC32931607
REMARK  8 active torsions:
REMARK  status: ('A' for Active; 'I' for Inactive)
REMARK    1  A    between atoms: C_1  and  C_2
REMARK    2  A    between atoms: C_2  and  C_3
REMARK    3  A    between atoms: C_6  and  C_9
REMARK    4  A    between atoms: C_12  and  S_14
REMARK    5  A    between atoms: S_14  and  C_15
REMARK    6  A    between atoms: C_15  and  C_16
REMARK    7  A    between atoms: C_16  and  S_17
REMARK    8  A    between atoms: S_17  and  C_19
REMARK                            x       y       z     vdW  Elec       q    Type
REMARK                         _______ _______ _______ _____ _____    ______ ____
ROOT
ATOM      1  C   UNL     1       7.961   7.264  -4.430  0.00  0.00    +0.182 A 
ATOM      2  N   UNL     1       8.012   7.291  -3.079  0.00  0.00    -0.152 NA
ATOM      3  N   UNL     1       6.875   6.605  -2.625  0.00  0.00    -0.253 N 
ATOM      4  C   UNL     1       6.212   6.216  -3.691  0.00  0.00    +0.185 A 
ATOM      5  N   UNL     1       6.870   6.613  -4.781  0.00  0.00    -0.201 NA
ATOM      6  H   UNL     1       6.696   6.490  -1.546  0.00  0.00    +0.191 HD
ENDROOT
BRANCH   1  10
ATOM      7  C   UNL     1      10.812   8.975  -7.074  0.00  0.00    -0.048 A 
ATOM      8  C   UNL     1       9.703   8.325  -7.584  0.00  0.00    +0.004 A 
ATOM      9  C   UNL     1       8.773   7.768  -6.731  0.00  0.00    +0.012 A 
ATOM     10  C   UNL     1       8.954   7.860  -5.351  0.00  0.00    +0.021 A 
ATOM     11  C   UNL     1      10.072   8.521  -4.842  0.00  0.00    +0.012 A 
ATOM     12  C   UNL     1      10.998   9.070  -5.706  0.00  0.00    +0.004 A 
BRANCH   7  14
ATOM     13  C   UNL     1      11.432  11.030  -8.316  0.00  0.00    +0.009 C 
ATOM     14  C   UNL     1      11.823   9.583  -8.012  0.00  0.00    +0.032 C 
ENDBRANCH   7  14
ENDBRANCH   1  10
BRANCH   4  15
ATOM     15  S   UNL     1       4.698   5.314  -3.681  0.00  0.00    -0.086 S 
BRANCH  15  16
ATOM     16  C   UNL     1       4.338   5.081  -1.919  0.00  0.00    +0.091 C 
BRANCH  16  17
ATOM     17  C   UNL     1       3.031   4.301  -1.764  0.00  0.00    +0.120 C 
BRANCH  17  18
ATOM     18  S   UNL     1       2.670   4.067  -0.002  0.00  0.00    +0.055 S 
ATOM     19  O   UNL     1       3.612   3.163   0.558  0.00  0.00    -0.252 OA
BRANCH  18  20
ATOM     20  C   UNL     1       1.156   3.165   0.008  0.00  0.00    +0.039 A 
ATOM     21  C   UNL     1       1.175   1.783   0.000  0.00  0.00    +0.017 A 
ATOM     22  C   UNL     1      -0.013   1.076   0.008  0.00  0.00    +0.001 A 
ATOM     23  C   UNL     1      -1.219   1.751   0.017  0.00  0.00    +0.000 A 
ATOM     24  C   UNL     1      -1.238   3.133   0.030  0.00  0.00    +0.001 A 
ATOM     25  C   UNL     1      -0.050   3.840   0.023  0.00  0.00    +0.017 A 
ENDBRANCH  18  20
ENDBRANCH  17  18
ENDBRANCH  16  17
ENDBRANCH  15  16
ENDBRANCH   4  15
TORSDOF 7
