REMARK  Name = ZINC10002039
REMARK  9 active torsions:
REMARK  status: ('A' for Active; 'I' for Inactive)
REMARK    1  A    between atoms: C_1  and  N_2
REMARK    2  A    between atoms: C_3  and  C_23
REMARK    3  A    between atoms: C_6  and  S_7
REMARK    4  A    between atoms: S_7  and  C_8
REMARK    5  A    between atoms: C_8  and  C_9
REMARK    6  A    between atoms: N_11  and  C_12
REMARK    7  A    between atoms: C_13  and  C_21
REMARK    8  A    between atoms: C_23  and  N_24
REMARK    9  A    between atoms: C_25  and  C_27
REMARK                            x       y       z     vdW  Elec       q    Type
REMARK                         _______ _______ _______ _____ _____    ______ ____
ROOT
ATOM      1  C   UNL     1      -3.912  10.408  -7.763  0.00  0.00    +0.152 C 
ATOM      2  N   UNL     1      -3.774  11.010  -6.435  0.00  0.00    -0.308 N 
ATOM      3  C   UNL     1      -3.981  12.319  -6.096  0.00  0.00    +0.151 A 
ATOM      4  N   UNL     1      -3.750  12.430  -4.819  0.00  0.00    -0.132 NA
ATOM      5  N   UNL     1      -3.418  11.289  -4.329  0.00  0.00    -0.122 NA
ATOM      6  C   UNL     1      -3.411  10.382  -5.278  0.00  0.00    +0.192 A 
ENDROOT
BRANCH   6   7
ATOM      7  S   UNL     1      -3.016   8.675  -5.093  0.00  0.00    -0.077 S 
BRANCH   7   8
ATOM      8  C   UNL     1      -2.653   8.627  -3.320  0.00  0.00    +0.173 C 
BRANCH   8   9
ATOM      9  C   UNL     1      -2.279   7.222  -2.922  0.00  0.00    +0.228 C 
ATOM     10  O   UNL     1      -2.260   6.341  -3.755  0.00  0.00    -0.275 OA
ATOM     11  N   UNL     1      -1.965   6.946  -1.641  0.00  0.00    -0.278 N 
ATOM     12  H   UNL     1      -1.980   7.652  -0.975  0.00  0.00    +0.155 HD
BRANCH  11  13
ATOM     13  C   UNL     1      -1.621   5.653  -1.274  0.00  0.00    +0.090 A 
ATOM     14  C   UNL     1      -1.271   5.177  -0.019  0.00  0.00    +0.084 A 
ATOM     15  C   UNL     1      -0.951   3.765   0.100  0.00  0.00    -0.018 A 
ATOM     16  C   UNL     1      -1.032   3.059  -1.049  0.00  0.00    -0.004 A 
ATOM     17  S   UNL     1      -1.524   4.240  -2.273  0.00  0.00    -0.077 S 
ATOM     18  C   UNL     1      -0.761   1.597  -1.232  0.00  0.00    +0.043 C 
ATOM     19  C   UNL     1      -0.013   1.086   0.008  0.00  0.00    +0.005 C 
ATOM     20  C   UNL     1      -0.735   1.583   1.264  0.00  0.00    +0.005 C 
ATOM     21  C   UNL     1      -0.551   3.094   1.407  0.00  0.00    +0.037 C 
BRANCH  14  22
ATOM     22  C   UNL     1      -1.226   6.046   1.118  0.00  0.00    +0.102 C 
ATOM     23  N   UNL     1      -1.191   6.736   2.020  0.00  0.00    -0.191 NA
ENDBRANCH  14  22
ENDBRANCH  11  13
ENDBRANCH   8   9
ENDBRANCH   7   8
ENDBRANCH   6   7
BRANCH   3  24
ATOM     24  C   UNL     1      -4.400  13.427  -7.028  0.00  0.00    +0.181 C 
BRANCH  24  25
ATOM     25  N   UNL     1      -5.862  13.507  -7.065  0.00  0.00    -0.304 N 
ATOM     26  C   UNL     1      -6.467  14.432  -7.837  0.00  0.00    +0.245 C 
ATOM     27  O   UNL     1      -5.799  15.200  -8.502  0.00  0.00    -0.270 OA
ATOM     28  H   UNL     1      -6.395  12.895  -6.535  0.00  0.00    +0.149 HD
BRANCH  26  29
ATOM     29  C   UNL     1      -7.940  14.513  -7.875  0.00  0.00    +0.040 A 
ATOM     30  C   UNL     1      -8.710  13.628  -7.116  0.00  0.00    +0.017 A 
ATOM     31  C   UNL     1     -10.085  13.708  -7.148  0.00  0.00    +0.050 A 
ATOM     32  C   UNL     1     -10.711  14.659  -7.943  0.00  0.00    +0.166 A 
ATOM     33  C   UNL     1      -9.948  15.543  -8.708  0.00  0.00    +0.167 A 
ATOM     34  C   UNL     1      -8.569  15.471  -8.675  0.00  0.00    +0.062 A 
ATOM     35  O   UNL     1     -10.793  16.368  -9.392  0.00  0.00    -0.453 OA
ATOM     36  C   UNL     1     -12.077  15.718  -9.356  0.00  0.00    +0.466 C 
ATOM     37  O   UNL     1     -12.030  14.934  -8.149  0.00  0.00    -0.453 OA
ENDBRANCH  26  29
ENDBRANCH  24  25
ENDBRANCH   3  24
TORSDOF 8
