REMARK  Name = ZINC20177566
REMARK  7 active torsions:
REMARK  status: ('A' for Active; 'I' for Inactive)
REMARK    1  A    between atoms: C_1  and  C_2
REMARK    2  A    between atoms: C_5  and  C_30
REMARK    3  A    between atoms: C_6  and  N_8
REMARK    4  A    between atoms: C_9  and  C_11
REMARK    5  A    between atoms: C_11  and  C_12
REMARK    6  A    between atoms: C_21  and  N_24
REMARK    7  A    between atoms: C_26  and  C_29
REMARK                            x       y       z     vdW  Elec       q    Type
REMARK                         _______ _______ _______ _____ _____    ______ ____
ROOT
ATOM      1  C   UNL     1       0.374  -1.917   6.022  0.00  0.00    -0.018 C 
ATOM      2  C   UNL     1       1.598  -1.019   5.836  0.00  0.00    +0.011 C 
ATOM      3  C   UNL     1       1.692  -0.036   7.005  0.00  0.00    -0.008 C 
ATOM      4  C   UNL     1       0.429   0.827   7.048  0.00  0.00    +0.007 C 
ATOM      5  C   UNL     1      -0.796  -0.071   7.234  0.00  0.00    -0.008 C 
ATOM      6  C   UNL     1      -0.889  -1.055   6.065  0.00  0.00    +0.011 C 
ATOM      7  C   UNL     1      -0.664  -0.849   8.545  0.00  0.00    +0.035 C 
ATOM      8  C   UNL     1       0.599  -1.711   8.502  0.00  0.00    +0.086 C 
ATOM      9  C   UNL     1       1.824  -0.813   8.316  0.00  0.00    +0.035 C 
ATOM     10  C   UNL     1       0.506  -2.694   7.333  0.00  0.00    +0.039 C 
ENDROOT
BRANCH   8  11
ATOM     11  N   UNL     1       0.726  -2.455   9.757  0.00  0.00    -0.157 N 
ATOM     12  N   UNL     1       0.821  -1.931  10.931  0.00  0.00    -0.135 NA
ATOM     13  C   UNL     1       0.917  -2.906  11.801  0.00  0.00    +0.172 A 
ATOM     14  N   UNL     1       0.876  -4.046  11.112  0.00  0.00    -0.113 NA
ATOM     15  N   UNL     1       0.753  -3.738   9.865  0.00  0.00    -0.046 NA
ATOM     16  C   UNL     1       1.048  -2.764  13.296  0.00  0.00    +0.092 C 
ENDBRANCH   8  11
BRANCH   1  17
ATOM     17  C   UNL     1       0.280  -2.900   4.854  0.00  0.00    +0.103 C 
BRANCH  17  19
ATOM     18  N   UNL     1       0.052  -2.797   2.393  0.00  0.00    -0.285 N 
ATOM     19  C   UNL     1       0.150  -2.135   3.562  0.00  0.00    +0.218 C 
ATOM     20  O   UNL     1       0.134  -0.922   3.575  0.00  0.00    -0.275 OA
ATOM     21  H   UNL     1      -0.016  -3.765   2.388  0.00  0.00    +0.155 HD
BRANCH  18  27
ATOM     22  C   UNL     1       1.264   1.227  -0.158  0.00  0.00    +0.044 C 
ATOM     23  C   UNL     1       0.628  -0.137  -0.079  0.00  0.00    -0.049 A 
ATOM     24  C   UNL     1       0.039  -0.690  -1.201  0.00  0.00    +0.004 A 
ATOM     25  C   UNL     1      -0.546  -1.941  -1.133  0.00  0.00    +0.005 A 
ATOM     26  C   UNL     1      -0.543  -2.643   0.057  0.00  0.00    -0.029 A 
ATOM     27  C   UNL     1       0.048  -2.090   1.185  0.00  0.00    +0.037 A 
ATOM     28  C   UNL     1       0.639  -0.835   1.112  0.00  0.00    +0.027 A 
ATOM     29  C   UNL     1      -1.181  -4.006   0.131  0.00  0.00    +0.045 C 
ENDBRANCH  18  27
ENDBRANCH  17  19
ENDBRANCH   1  17
TORSDOF 4
