REMARK  Name = ZINC08311874
REMARK  9 active torsions:
REMARK  status: ('A' for Active; 'I' for Inactive)
REMARK    1  A    between atoms: C_1  and  C_2
REMARK    2  A    between atoms: C_2  and  C_3
REMARK    3  A    between atoms: C_2  and  C_4
REMARK    4  A    between atoms: C_2  and  O_5
REMARK    5  A    between atoms: O_5  and  C_6
REMARK    6  A    between atoms: C_6  and  C_8
REMARK    7  A    between atoms: C_12  and  C_16
REMARK    8  A    between atoms: C_16  and  O_18
REMARK    9  A    between atoms: O_18  and  C_19
REMARK                            x       y       z     vdW  Elec       q    Type
REMARK                         _______ _______ _______ _____ _____    ______ ____
ROOT
ATOM      1  C   UNL     1       5.720  -2.031   0.053  0.00  0.00    +0.314 C 
ATOM      2  O   UNL     1       5.212  -2.759   0.873  0.00  0.00    -0.250 OA
ENDROOT
BRANCH   1   6
ATOM      3  C   UNL     1       2.720  -0.511  -2.547  0.00  0.00    +0.039 C 
ATOM      4  C   UNL     1       2.871  -2.033  -2.502  0.00  0.00    -0.004 C 
ATOM      5  C   UNL     1       3.637  -2.427  -1.236  0.00  0.00    +0.012 C 
ATOM      6  C   UNL     1       4.990  -1.709  -1.225  0.00  0.00    +0.081 C 
ATOM      7  C   UNL     1       4.760  -0.199  -1.317  0.00  0.00    -0.067 C 
ATOM      8  N   UNL     1       4.048   0.115  -2.561  0.00  0.00    +0.388 N 
ATOM      9  H   UNL     1       4.575  -0.234  -3.347  0.00  0.00    -0.085 HD
ATOM     10  H   UNL     1       3.946   1.116  -2.644  0.00  0.00    -0.085 HD
BRANCH   3  11
ATOM     11  C   UNL     1       1.959  -0.045  -1.333  0.00  0.00    +0.293 C 
ATOM     12  O   UNL     1       2.411   0.832  -0.636  0.00  0.00    -0.253 OA
BRANCH  11  13
ATOM     13  O   UNL     1       0.779  -0.606  -1.025  0.00  0.00    -0.460 OA
BRANCH  13  15
ATOM     14  C   UNL     1      -0.174   1.377  -0.026  0.00  0.00    +0.055 C 
ATOM     15  C   UNL     1       0.112  -0.117   0.140  0.00  0.00    +0.105 C 
ATOM     16  C   UNL     1       1.002  -0.333   1.366  0.00  0.00    +0.055 C 
ATOM     17  C   UNL     1      -1.206  -0.870   0.328  0.00  0.00    +0.055 C 
ENDBRANCH  13  15
ENDBRANCH  11  13
ENDBRANCH   3  11
ENDBRANCH   1   6
BRANCH   1  18
ATOM     18  O   UNL     1       6.935  -1.508   0.282  0.00  0.00    -0.426 OA
BRANCH  18  19
ATOM     19  C   UNL     1       7.602  -1.907   1.396  0.00  0.00    +0.135 A 
ATOM     20  C   UNL     1       8.208  -3.161   1.427  0.00  0.00    +0.047 A 
ATOM     21  C   UNL     1       8.882  -3.577   2.538  0.00  0.00    +0.015 A 
ATOM     22  C   UNL     1       8.963  -2.738   3.655  0.00  0.00    +0.021 A 
ATOM     23  C   UNL     1       8.354  -1.472   3.630  0.00  0.00    +0.143 A 
ATOM     24  C   UNL     1       7.678  -1.062   2.491  0.00  0.00    +0.093 A 
ATOM     25  O   UNL     1       8.437  -0.669   4.713  0.00  0.00    -0.422 OA
ATOM     26  C   UNL     1       9.099  -1.051   5.813  0.00  0.00    +0.341 A 
ATOM     27  O   UNL     1       9.155  -0.288   6.761  0.00  0.00    -0.245 OA
ATOM     28  C   UNL     1       9.736  -2.313   5.910  0.00  0.00    +0.041 A 
ATOM     29  C   UNL     1       9.680  -3.165   4.864  0.00  0.00    -0.027 A 
ATOM     30  C   UNL     1      10.307  -4.532   4.881  0.00  0.00    +0.036 C 
ATOM     31  C   UNL     1      11.343  -4.635   6.000  0.00  0.00    +0.005 C 
ATOM     32  C   UNL     1      10.695  -4.148   7.302  0.00  0.00    +0.005 C 
ATOM     33  C   UNL     1      10.459  -2.644   7.189  0.00  0.00    +0.042 C 
ENDBRANCH  18  19
ENDBRANCH   1  18
TORSDOF 6
