REMARK  Name = ZINC09197429
REMARK  9 active torsions:
REMARK  status: ('A' for Active; 'I' for Inactive)
REMARK    1  A    between atoms: C_1  and  C_2
REMARK    2  A    between atoms: C_2  and  C_3
REMARK    3  A    between atoms: C_9  and  C_25
REMARK    4  A    between atoms: C_11  and  C_14
REMARK    5  A    between atoms: N_16  and  C_17
REMARK    6  A    between atoms: C_22  and  O_23
REMARK    7  A    between atoms: O_23  and  C_24
REMARK    8  A    between atoms: C_28  and  O_31
REMARK    9  A    between atoms: O_31  and  C_32
REMARK                            x       y       z     vdW  Elec       q    Type
REMARK                         _______ _______ _______ _____ _____    ______ ____
ROOT
ATOM      1  C   UNL     1       1.997   0.568  -0.041  0.00  0.00    +0.151 A 
ATOM      2  N   UNL     1       1.171  -0.442  -0.036  0.00  0.00    -0.132 NA
ATOM      3  N   UNL     1      -0.046  -0.020  -0.010  0.00  0.00    -0.121 NA
ATOM      4  C   UNL     1      -0.053   1.284  -0.001  0.00  0.00    +0.209 A 
ATOM      5  N   UNL     1       1.246   1.708  -0.012  0.00  0.00    -0.225 N 
ATOM      6  N   UNL     1       1.688   2.992   0.012  0.00  0.00    -0.272 N 
ATOM      7  C   UNL     1       0.698   3.963  -0.458  0.00  0.00    +0.140 C 
ATOM      8  C   UNL     1      -0.564   3.906   0.412  0.00  0.00    +0.166 C 
ATOM      9  S   UNL     1      -1.447   2.367   0.014  0.00  0.00    -0.069 S 
ATOM     10  H   UNL     1       2.031   3.240   0.928  0.00  0.00    +0.167 HD
ENDROOT
BRANCH   7  11
ATOM     11  C   UNL     1       1.287   5.348  -0.385  0.00  0.00    -0.024 A 
ATOM     12  C   UNL     1       2.068   5.711   0.697  0.00  0.00    +0.009 A 
ATOM     13  C   UNL     1       2.613   6.978   0.763  0.00  0.00    +0.046 A 
ATOM     14  C   UNL     1       2.367   7.892  -0.252  0.00  0.00    +0.120 A 
ATOM     15  C   UNL     1       1.578   7.528  -1.334  0.00  0.00    +0.046 A 
ATOM     16  C   UNL     1       1.040   6.257  -1.398  0.00  0.00    +0.009 A 
BRANCH  14  17
ATOM     17  O   UNL     1       2.898   9.141  -0.186  0.00  0.00    -0.495 OA
ATOM     18  C   UNL     1       3.700   9.446   0.957  0.00  0.00    +0.277 C 
ENDBRANCH  14  17
ENDBRANCH   7  11
BRANCH   8  19
ATOM     19  C   UNL     1      -1.444   5.092   0.112  0.00  0.00    +0.233 C 
ATOM     20  O   UNL     1      -1.508   5.529  -1.018  0.00  0.00    -0.274 OA
ATOM     21  N   UNL     1      -2.161   5.666   1.099  0.00  0.00    -0.282 N 
ATOM     22  H   UNL     1      -2.161   5.278   1.987  0.00  0.00    +0.155 HD
BRANCH  21  23
ATOM     23  C   UNL     1      -2.906   6.824   0.840  0.00  0.00    +0.076 A 
ATOM     24  C   UNL     1      -3.512   7.000  -0.396  0.00  0.00    +0.027 A 
ATOM     25  C   UNL     1      -4.251   8.140  -0.646  0.00  0.00    +0.002 A 
ATOM     26  C   UNL     1      -4.380   9.113   0.328  0.00  0.00    +0.004 A 
ATOM     27  C   UNL     1      -3.775   8.947   1.560  0.00  0.00    +0.047 A 
ATOM     28  C   UNL     1      -3.037   7.804   1.821  0.00  0.00    +0.141 A 
BRANCH  28  29
ATOM     29  O   UNL     1      -2.441   7.639   3.033  0.00  0.00    -0.493 OA
ATOM     30  C   UNL     1      -2.618   8.685   3.990  0.00  0.00    +0.277 C 
ENDBRANCH  28  29
ENDBRANCH  21  23
ENDBRANCH   8  19
BRANCH   1  32
ATOM     31  C   UNL     1       3.981   0.482  -1.527  0.00  0.00    +0.012 C 
ATOM     32  C   UNL     1       3.502   0.491  -0.073  0.00  0.00    +0.074 C 
ENDBRANCH   1  32
TORSDOF 6
