REMARK  Name = ZINC21234894
REMARK  12 active torsions:
REMARK  status: ('A' for Active; 'I' for Inactive)
REMARK    1  A    between atoms: C_1  and  C_2
REMARK    2  A    between atoms: C_2  and  C_3
REMARK    3  A    between atoms: C_3  and  O_4
REMARK    4  A    between atoms: O_4  and  C_5
REMARK    5  A    between atoms: C_8  and  C_11
REMARK    6  A    between atoms: C_16  and  C_26
REMARK    7  A    between atoms: C_28  and  O_36
REMARK    8  A    between atoms: C_29  and  O_34
REMARK    9  A    between atoms: C_30  and  O_32
REMARK   10  A    between atoms: O_32  and  C_33
REMARK   11  A    between atoms: O_34  and  C_35
REMARK   12  A    between atoms: O_36  and  C_37
REMARK                            x       y       z     vdW  Elec       q    Type
REMARK                         _______ _______ _______ _____ _____    ______ ____
ROOT
ATOM      1  C   UNL     1       2.040   1.597  -3.608  0.00  0.00    +0.032 C 
ATOM      2  C   UNL     1       1.487   0.312  -2.993  0.00  0.00    +0.059 C 
ATOM      3  C   UNL     1       0.785   0.629  -1.682  0.00  0.00    +0.017 C 
ATOM      4  C   UNL     1       1.230   1.625  -0.898  0.00  0.00    +0.036 C 
ATOM      5  C   UNL     1       0.653   2.023   0.441  0.00  0.00    +0.136 C 
ATOM      6  N   UNL     1      -0.625   1.417   0.747  0.00  0.00    -0.331 N 
ATOM      7  C   UNL     1      -0.746   0.038   0.916  0.00  0.00    +0.049 A 
ATOM      8  C   UNL     1      -1.096  -0.513   2.138  0.00  0.00    +0.025 A 
ATOM      9  C   UNL     1      -1.159  -1.889   2.270  0.00  0.00    +0.002 A 
ATOM     10  C   UNL     1      -0.875  -2.710   1.193  0.00  0.00    +0.002 A 
ATOM     11  C   UNL     1      -0.541  -2.162  -0.034  0.00  0.00    +0.025 A 
ATOM     12  C   UNL     1      -0.497  -0.785  -0.172  0.00  0.00    +0.052 A 
ATOM     13  N   UNL     1      -0.275  -0.170  -1.399  0.00  0.00    -0.316 N 
ATOM     14  C   UNL     1       2.332   2.413  -1.303  0.00  0.00    +0.163 C 
ATOM     15  O   UNL     1       2.725   3.294  -0.563  0.00  0.00    -0.292 OA
ATOM     16  C   UNL     1       3.034   2.202  -2.610  0.00  0.00    +0.088 C 
ATOM     17  H   UNL     1      -1.522   2.045   0.849  0.00  0.00    +0.147 HD
ATOM     18  H   UNL     1      -1.034  -0.369  -2.169  0.00  0.00    +0.152 HD
ENDROOT
BRANCH   1  22
ATOM     19  C   UNL     1       4.035   0.704  -7.280  0.00  0.00    +0.121 A 
ATOM     20  C   UNL     1       2.971   1.594  -7.266  0.00  0.00    +0.046 A 
ATOM     21  C   UNL     1       2.328   1.881  -6.078  0.00  0.00    +0.007 A 
ATOM     22  C   UNL     1       2.744   1.282  -4.903  0.00  0.00    -0.043 A 
ATOM     23  C   UNL     1       3.807   0.399  -4.914  0.00  0.00    +0.007 A 
ATOM     24  C   UNL     1       4.450   0.104  -6.101  0.00  0.00    +0.046 A 
BRANCH  19  25
ATOM     25  O   UNL     1       4.670   0.420  -8.448  0.00  0.00    -0.492 OA
BRANCH  25  26
ATOM     26  C   UNL     1       5.757  -0.506  -8.388  0.00  0.00    +0.229 C 
BRANCH  26  28
ATOM     27  C   UNL     1       7.505  -1.689  -9.723  0.00  0.00    +0.007 C 
ATOM     28  C   UNL     1       6.341  -0.698  -9.788  0.00  0.00    +0.038 C 
ENDBRANCH  26  28
ENDBRANCH  25  26
ENDBRANCH  19  25
ENDBRANCH   1  22
BRANCH   5  29
ATOM     29  C   UNL     1       1.635   1.639   1.518  0.00  0.00    -0.016 A 
ATOM     30  C   UNL     1       2.217   2.618   2.301  0.00  0.00    +0.055 A 
ATOM     31  C   UNL     1       3.117   2.267   3.296  0.00  0.00    +0.165 A 
ATOM     32  C   UNL     1       3.440   0.931   3.499  0.00  0.00    +0.204 A 
ATOM     33  C   UNL     1       2.856  -0.050   2.706  0.00  0.00    +0.165 A 
ATOM     34  C   UNL     1       1.954   0.308   1.716  0.00  0.00    +0.055 A 
BRANCH  33  35
ATOM     35  O   UNL     1       3.170  -1.359   2.901  0.00  0.00    -0.491 OA
ATOM     36  C   UNL     1       2.532  -2.312   2.048  0.00  0.00    +0.277 C 
ENDBRANCH  33  35
BRANCH  32  37
ATOM     37  O   UNL     1       4.326   0.583   4.472  0.00  0.00    -0.488 OA
ATOM     38  C   UNL     1       5.705   0.522   4.103  0.00  0.00    +0.277 C 
ENDBRANCH  32  37
BRANCH  31  39
ATOM     39  O   UNL     1       3.685   3.230   4.070  0.00  0.00    -0.491 OA
ATOM     40  C   UNL     1       3.224   4.570   3.881  0.00  0.00    +0.277 C 
ENDBRANCH  31  39
ENDBRANCH   5  29
TORSDOF 8
