REMARK  Name = ZINC06207039
REMARK  4 active torsions:
REMARK  status: ('A' for Active; 'I' for Inactive)
REMARK    1  A    between atoms: C_1  and  C_2
REMARK    2  A    between atoms: C_2  and  O_3
REMARK    3  A    between atoms: O_3  and  C_4
REMARK    4  A    between atoms: C_7  and  N_8
REMARK                            x       y       z     vdW  Elec       q    Type
REMARK                         _______ _______ _______ _____ _____    ______ ____
ROOT
ATOM      1  C   UNL     1       3.865  -3.813  -0.048  0.00  0.00    +0.345 C 
ATOM      2  C   UNL     1       4.553  -2.470  -0.054  0.00  0.00    +0.081 C 
ATOM      3  C   UNL     1       3.833  -1.327  -0.041  0.00  0.00    +0.087 C 
ATOM      4  C   UNL     1       5.973  -2.431  -0.067  0.00  0.00    +0.200 C 
ATOM      5  O   UNL     1       6.579  -1.378   0.030  0.00  0.00    -0.287 OA
ATOM      6  C   UNL     1       6.689  -3.719  -0.204  0.00  0.00    +0.065 A 
ATOM      7  C   UNL     1       8.065  -3.804  -0.017  0.00  0.00    +0.035 A 
ATOM      8  C   UNL     1       8.697  -5.026  -0.142  0.00  0.00    +0.042 A 
ATOM      9  C   UNL     1       7.965  -6.160  -0.459  0.00  0.00    +0.023 A 
ATOM     10  C   UNL     1       6.602  -6.081  -0.666  0.00  0.00    +0.048 A 
ATOM     11  C   UNL     1       5.954  -4.862  -0.553  0.00  0.00    +0.135 A 
ATOM     12  O   UNL     1       4.625  -4.760  -0.802  0.00  0.00    -0.459 OA
ATOM     13 CL   UNL     1      10.412  -5.142   0.100  0.00  0.00    -0.084 Cl
ENDROOT
BRANCH   3  14
ATOM     14  N   UNL     1       2.467  -1.380  -0.029  0.00  0.00    -0.300 N 
ATOM     15  C   UNL     1       1.727  -0.207  -0.015  0.00  0.00    +0.162 A 
ATOM     16  N   UNL     1       2.153   1.042  -0.013  0.00  0.00    -0.233 NA
ATOM     17  C   UNL     1       1.306   2.053   0.001  0.00  0.00    +0.120 A 
ATOM     18  C   UNL     1      -0.022   1.783   0.012  0.00  0.00    +0.068 A 
ATOM     19  S   UNL     1       0.002  -0.004   0.002  0.00  0.00    -0.061 S 
ATOM     20  H   UNL     1       2.015  -2.239  -0.029  0.00  0.00    +0.154 HD
ENDBRANCH   3  14
BRANCH   1  21
ATOM     21  O   UNL     1       3.733  -4.271   1.299  0.00  0.00    -0.338 OA
BRANCH  21  23
ATOM     22  C   UNL     1       2.915  -5.878   2.907  0.00  0.00    +0.034 C 
ATOM     23  C   UNL     1       2.992  -5.485   1.431  0.00  0.00    +0.161 C 
ENDBRANCH  21  23
ENDBRANCH   1  21
TORSDOF 3
