REMARK  Name = ZINC55149093
REMARK  6 active torsions:
REMARK  status: ('A' for Active; 'I' for Inactive)
REMARK    1  A    between atoms: C_4  and  C_7
REMARK    2  A    between atoms: C_7  and  C_9
REMARK    3  A    between atoms: C_7  and  N_12
REMARK    4  A    between atoms: C_13  and  C_15
REMARK    5  A    between atoms: C_15  and  S_16
REMARK    6  A    between atoms: S_16  and  C_17
REMARK                            x       y       z     vdW  Elec       q    Type
REMARK                         _______ _______ _______ _____ _____    ______ ____
ROOT
ATOM      1  N   UNL     1       3.630  -1.873   0.845  0.00  0.00    -0.300 N 
ATOM      2  C   UNL     1       4.751  -2.385   1.391  0.00  0.00    +0.224 C 
ATOM      3  O   UNL     1       5.828  -1.880   1.151  0.00  0.00    -0.275 OA
ATOM      4  H   UNL     1       2.769  -2.277   1.038  0.00  0.00    +0.150 HD
ENDROOT
BRANCH   1   5
ATOM      5  C   UNL     1       3.711  -0.707  -0.038  0.00  0.00    +0.189 C 
BRANCH   5   9
ATOM      6  C   UNL     1      -0.017   1.378   0.010  0.00  0.00    +0.000 A 
ATOM      7  C   UNL     1       1.171   2.086   0.002  0.00  0.00    +0.000 A 
ATOM      8  C   UNL     1       2.377   1.411  -0.013  0.00  0.00    +0.006 A 
ATOM      9  C   UNL     1       2.396   0.029  -0.020  0.00  0.00    -0.018 A 
ATOM     10  C   UNL     1       1.208  -0.679  -0.012  0.00  0.00    +0.006 A 
ATOM     11  C   UNL     1       0.002  -0.004   0.002  0.00  0.00    +0.000 A 
ENDBRANCH   5   9
BRANCH   5  12
ATOM     12  C   UNL     1       4.014  -1.161  -1.442  0.00  0.00    +0.235 C 
ATOM     13  O   UNL     1       4.150  -2.342  -1.682  0.00  0.00    -0.274 OA
ATOM     14  N   UNL     1       4.136  -0.254  -2.432  0.00  0.00    -0.328 N 
ATOM     15  H   UNL     1       4.027   0.691  -2.240  0.00  0.00    +0.145 HD
ATOM     16  H   UNL     1       4.331  -0.546  -3.336  0.00  0.00    +0.145 HD
ENDBRANCH   5  12
ENDBRANCH   1   5
BRANCH   2  17
ATOM     17  C   UNL     1       4.668  -3.585   2.299  0.00  0.00    +0.174 C 
BRANCH  17  18
ATOM     18  S   UNL     1       6.332  -4.030   2.867  0.00  0.00    -0.058 S 
BRANCH  18  19
ATOM     19  C   UNL     1       6.068  -5.429   3.904  0.00  0.00    +0.258 A 
ATOM     20  N   UNL     1       4.902  -5.971   4.152  0.00  0.00    -0.203 NA
ATOM     21  C   UNL     1       5.081  -7.029   4.990  0.00  0.00    +0.110 A 
ATOM     22  C   UNL     1       4.214  -7.952   5.574  0.00  0.00    +0.031 A 
ATOM     23  C   UNL     1       4.716  -8.935   6.399  0.00  0.00    +0.002 A 
ATOM     24  C   UNL     1       6.077  -9.010   6.652  0.00  0.00    +0.004 A 
ATOM     25  C   UNL     1       6.946  -8.102   6.080  0.00  0.00    +0.048 A 
ATOM     26  C   UNL     1       6.458  -7.109   5.248  0.00  0.00    +0.156 A 
ATOM     27  O   UNL     1       7.036  -6.102   4.552  0.00  0.00    -0.431 OA
ENDBRANCH  18  19
ENDBRANCH  17  18
ENDBRANCH   2  17
TORSDOF 6
