REMARK  Name = ZINC21253299
REMARK  7 active torsions:
REMARK  status: ('A' for Active; 'I' for Inactive)
REMARK    1  A    between atoms: C_1  and  C_2
REMARK    2  A    between atoms: C_2  and  O_3
REMARK    3  A    between atoms: O_3  and  C_4
REMARK    4  A    between atoms: C_7  and  C_12
REMARK    5  A    between atoms: C_9  and  O_10
REMARK    6  A    between atoms: O_10  and  C_11
REMARK    7  A    between atoms: C_17  and  C_27
REMARK                            x       y       z     vdW  Elec       q    Type
REMARK                         _______ _______ _______ _____ _____    ______ ____
ROOT
ATOM      1  C   UNL     1       2.225   3.513   3.774  0.00  0.00    +0.032 C 
ATOM      2  C   UNL     1       0.761   3.662   3.362  0.00  0.00    +0.059 C 
ATOM      3  C   UNL     1       0.465   2.758   2.175  0.00  0.00    +0.017 C 
ATOM      4  C   UNL     1       1.409   2.526   1.251  0.00  0.00    +0.036 C 
ATOM      5  C   UNL     1       1.239   1.695  -0.001  0.00  0.00    +0.136 C 
ATOM      6  N   UNL     1       0.021   0.913  -0.033  0.00  0.00    -0.331 N 
ATOM      7  C   UNL     1      -1.226   1.529  -0.065  0.00  0.00    +0.049 A 
ATOM      8  C   UNL     1      -2.054   1.429  -1.167  0.00  0.00    +0.025 A 
ATOM      9  C   UNL     1      -3.262   2.105  -1.178  0.00  0.00    +0.002 A 
ATOM     10  C   UNL     1      -3.643   2.876  -0.095  0.00  0.00    +0.002 A 
ATOM     11  C   UNL     1      -2.830   2.959   1.023  0.00  0.00    +0.025 A 
ATOM     12  C   UNL     1      -1.634   2.264   1.043  0.00  0.00    +0.052 A 
ATOM     13  N   UNL     1      -0.796   2.255   2.154  0.00  0.00    -0.316 N 
ATOM     14  C   UNL     1       2.705   3.075   1.398  0.00  0.00    +0.163 C 
ATOM     15  O   UNL     1       3.535   2.855   0.538  0.00  0.00    -0.292 OA
ATOM     16  C   UNL     1       3.091   3.918   2.576  0.00  0.00    +0.088 C 
ATOM     17  H   UNL     1       0.073  -0.185  -0.033  0.00  0.00    +0.147 HD
ATOM     18  H   UNL     1      -1.222   1.799   3.060  0.00  0.00    +0.152 HD
ENDROOT
BRANCH   5  19
ATOM     19  C   UNL     1       1.247   2.619  -1.191  0.00  0.00    -0.015 A 
ATOM     20  C   UNL     1       0.955   3.939  -1.034  0.00  0.00    +0.006 A 
ATOM     21  C   UNL     1       0.964   4.811  -2.121  0.00  0.00    +0.001 A 
ATOM     22  C   UNL     1       1.253   4.364  -3.374  0.00  0.00    +0.008 A 
ATOM     23  C   UNL     1       1.554   3.007  -3.576  0.00  0.00    -0.018 A 
ATOM     24  C   UNL     1       1.551   2.122  -2.469  0.00  0.00    -0.013 A 
ATOM     25  C   UNL     1       1.852   0.764  -2.672  0.00  0.00    +0.009 A 
ATOM     26  C   UNL     1       2.140   0.318  -3.925  0.00  0.00    +0.001 A 
ATOM     27  C   UNL     1       2.144   1.188  -5.014  0.00  0.00    +0.001 A 
ATOM     28  C   UNL     1       1.857   2.510  -4.856  0.00  0.00    +0.008 A 
ENDBRANCH   5  19
BRANCH   1  32
ATOM     29  C   UNL     1       3.061   6.074   7.095  0.00  0.00    +0.162 A 
ATOM     30  C   UNL     1       2.618   6.611   5.897  0.00  0.00    +0.050 A 
ATOM     31  C   UNL     1       2.354   5.781   4.823  0.00  0.00    +0.008 A 
ATOM     32  C   UNL     1       2.520   4.413   4.946  0.00  0.00    -0.040 A 
ATOM     33  C   UNL     1       2.962   3.872   6.138  0.00  0.00    +0.053 A 
ATOM     34  C   UNL     1       3.233   4.699   7.216  0.00  0.00    +0.162 A 
BRANCH  34  35
ATOM     35  O   UNL     1       3.668   4.167   8.390  0.00  0.00    -0.491 OA
ATOM     36  C   UNL     1       3.822   2.748   8.442  0.00  0.00    +0.277 C 
ENDBRANCH  34  35
BRANCH  29  37
ATOM     37  O   UNL     1       3.326   6.890   8.150  0.00  0.00    -0.489 OA
BRANCH  37  39
ATOM     38  C   UNL     1       3.475   9.042   9.240  0.00  0.00    +0.048 C 
ATOM     39  C   UNL     1       3.127   8.291   7.953  0.00  0.00    +0.226 C 
ENDBRANCH  37  39
ENDBRANCH  29  37
ENDBRANCH   1  32
TORSDOF 5
