REMARK  Name = ZINC50776413
REMARK  6 active torsions:
REMARK  status: ('A' for Active; 'I' for Inactive)
REMARK    1  A    between atoms: C_1  and  C_2
REMARK    2  A    between atoms: C_2  and  C_4
REMARK    3  A    between atoms: C_2  and  N_10
REMARK    4  A    between atoms: C_11  and  C_13
REMARK    5  A    between atoms: C_17  and  N_19
REMARK    6  A    between atoms: N_19  and  C_20
REMARK                            x       y       z     vdW  Elec       q    Type
REMARK                         _______ _______ _______ _____ _____    ______ ____
ROOT
ATOM      1  N   UNL     1       0.688  -0.476  -1.203  0.00  0.00    -0.303 N 
ATOM      2  C   UNL     1       2.031  -0.587  -1.215  0.00  0.00    +0.264 C 
ATOM      3  O   UNL     1       2.673  -0.295  -0.226  0.00  0.00    -0.268 OA
ATOM      4  H   UNL     1       0.175  -0.710  -1.993  0.00  0.00    +0.150 HD
ENDROOT
BRANCH   2   5
ATOM      5  C   UNL     1       2.724  -1.065  -2.433  0.00  0.00    +0.146 A 
ATOM      6  C   UNL     1       4.112  -1.182  -2.436  0.00  0.00    +0.072 A 
ATOM      7  C   UNL     1       4.751  -1.631  -3.585  0.00  0.00    +0.025 A 
ATOM      8  C   UNL     1       3.982  -1.948  -4.689  0.00  0.00    +0.045 A 
ATOM      9  C   UNL     1       2.596  -1.807  -4.619  0.00  0.00    +0.119 A 
ATOM     10  N   UNL     1       2.016  -1.383  -3.512  0.00  0.00    -0.226 NA
ATOM     11 CL   UNL     1       5.031  -0.770  -1.022  0.00  0.00    -0.081 Cl
BRANCH   9  12
ATOM     12  N   UNL     1       1.817  -2.123  -5.726  0.00  0.00    -0.332 N 
ATOM     13  C   UNL     1       2.451  -2.600  -6.957  0.00  0.00    +0.127 C 
ATOM     14  H   UNL     1       0.852  -2.028  -5.683  0.00  0.00    +0.147 HD
ENDBRANCH   9  12
ENDBRANCH   2   5
BRANCH   1  16
ATOM     15  C   UNL     1      -0.019   1.526   0.010  0.00  0.00    +0.033 C 
ATOM     16  C   UNL     1       0.002  -0.004   0.002  0.00  0.00    +0.107 C 
BRANCH  16  17
ATOM     17  C   UNL     1      -1.412  -0.526   0.013  0.00  0.00    +0.011 A 
ATOM     18  C   UNL     1      -2.141  -0.993   1.055  0.00  0.00    +0.014 A 
ATOM     19  C   UNL     1      -3.435  -1.425   0.828  0.00  0.00    +0.028 A 
ATOM     20  C   UNL     1      -3.935  -1.368  -0.431  0.00  0.00    +0.078 A 
ATOM     21  S   UNL     1      -2.563  -0.681  -1.343  0.00  0.00    -0.080 S 
ATOM     22 CL   UNL     1      -5.505  -1.836  -1.006  0.00  0.00    -0.076 Cl
ENDBRANCH  16  17
ENDBRANCH   1  16
TORSDOF 4
