REMARK  Name = ZINC03052014
REMARK  11 active torsions:
REMARK  status: ('A' for Active; 'I' for Inactive)
REMARK    1  A    between atoms: C_1  and  O_2
REMARK    2  A    between atoms: O_2  and  C_3
REMARK    3  A    between atoms: C_6  and  C_11
REMARK    4  A    between atoms: C_8  and  O_9
REMARK    5  A    between atoms: O_9  and  C_10
REMARK    6  A    between atoms: C_11  and  C_12
REMARK    7  A    between atoms: C_12  and  N_13
REMARK    8  A    between atoms: C_14  and  C_16
REMARK    9  A    between atoms: N_26  and  C_29
REMARK   10  A    between atoms: C_29  and  C_30
REMARK   11  A    between atoms: C_30  and  C_31
REMARK                            x       y       z     vdW  Elec       q    Type
REMARK                         _______ _______ _______ _____ _____    ______ ____
ROOT
ATOM      1  C   UNL     1      -1.183   3.483   0.033  0.00  0.00    +0.039 A 
ATOM      2  C   UNL     1       0.036   4.167   0.025  0.00  0.00    +0.014 A 
ATOM      3  C   UNL     1       1.223   3.470   0.009  0.00  0.00    +0.016 A 
ATOM      4  C   UNL     1       1.206   2.077   0.002  0.00  0.00    +0.063 A 
ATOM      5  C   UNL     1      -0.017   1.383   0.010  0.00  0.00    +0.054 A 
ATOM      6  C   UNL     1      -1.208   2.091   0.030  0.00  0.00    +0.039 A 
ATOM      7  N   UNL     1       0.002  -0.004   0.002  0.00  0.00    -0.335 N 
ATOM      8  H   UNL     1      -0.834  -0.495   0.007  0.00  0.00    +0.168 HD
ATOM      9  C   UNL     1       1.167  -0.674  -0.013  0.00  0.00    +0.161 A 
ATOM     10  S   UNL     1       1.127  -2.386  -0.023  0.00  0.00    -0.013 S 
ATOM     11  N   UNL     1       2.360  -0.059  -0.021  0.00  0.00    -0.288 N 
ATOM     12  C   UNL     1       2.454   1.288  -0.015  0.00  0.00    +0.262 A 
ATOM     13  O   UNL     1       3.539   1.837  -0.023  0.00  0.00    -0.267 OA
ENDROOT
BRANCH   1  15
ATOM     14  N   UNL     1      -2.434   5.590   0.057  0.00  0.00    -0.311 N 
ATOM     15  C   UNL     1      -2.454   4.243   0.050  0.00  0.00    +0.244 C 
ATOM     16  O   UNL     1      -3.516   3.651   0.057  0.00  0.00    -0.270 OA
ATOM     17  H   UNL     1      -1.587   6.063   0.052  0.00  0.00    +0.149 HD
BRANCH  14  18
ATOM     18  C   UNL     1      -3.691   6.342   0.074  0.00  0.00    +0.109 C 
BRANCH  18  19
ATOM     19  C   UNL     1      -3.389   7.842   0.079  0.00  0.00    +0.054 C 
BRANCH  19  23
ATOM     20  C   UNL     1      -7.059  10.036   0.121  0.00  0.00    +0.161 A 
ATOM     21  C   UNL     1      -6.473   9.685  -1.084  0.00  0.00    +0.049 A 
ATOM     22  C   UNL     1      -5.283   8.981  -1.094  0.00  0.00    +0.007 A 
ATOM     23  C   UNL     1      -4.682   8.615   0.096  0.00  0.00    -0.042 A 
ATOM     24  C   UNL     1      -5.263   8.962   1.302  0.00  0.00    +0.053 A 
ATOM     25  C   UNL     1      -6.452   9.673   1.319  0.00  0.00    +0.162 A 
BRANCH  20  27
ATOM     26  C   UNL     1      -8.793  11.072  -1.134  0.00  0.00    +0.277 C 
ATOM     27  O   UNL     1      -8.227  10.733   0.133  0.00  0.00    -0.491 OA
ENDBRANCH  20  27
BRANCH  25  28
ATOM     28  O   UNL     1      -7.024  10.015   2.505  0.00  0.00    -0.491 OA
ATOM     29  C   UNL     1      -6.345   9.608   3.694  0.00  0.00    +0.277 C 
ENDBRANCH  25  28
ENDBRANCH  19  23
ENDBRANCH  18  19
ENDBRANCH  14  18
ENDBRANCH   1  15
BRANCH  11  30
ATOM     30  C   UNL     1       3.583  -0.865  -0.038  0.00  0.00    +0.131 C 
BRANCH  30  31
ATOM     31  C   UNL     1       3.995  -1.137  -1.486  0.00  0.00    +0.052 C 
BRANCH  31  32
ATOM     32  C   UNL     1       5.254  -1.966  -1.503  0.00  0.00    -0.072 C 
ATOM     33  C   UNL     1       5.133  -3.251  -1.609  0.00  0.00    -0.028 C 
ATOM     34  C   UNL     1       6.291  -4.205  -1.630  0.00  0.00    +0.027 C 
ATOM     35  C   UNL     1       7.588  -3.453  -1.936  0.00  0.00    +0.004 C 
ATOM     36  C   UNL     1       7.674  -2.235  -1.007  0.00  0.00    +0.005 C 
ATOM     37  C   UNL     1       6.569  -1.250  -1.402  0.00  0.00    +0.030 C 
ENDBRANCH  31  32
ENDBRANCH  30  31
ENDBRANCH  11  30
TORSDOF 9
