REMARK  Name = ZINC10751452
REMARK  10 active torsions:
REMARK  status: ('A' for Active; 'I' for Inactive)
REMARK    1  A    between atoms: C_1  and  C_2
REMARK    2  A    between atoms: C_2  and  C_3
REMARK    3  A    between atoms: N_12  and  C_13
REMARK    4  A    between atoms: C_13  and  C_14
REMARK    5  A    between atoms: C_14  and  N_63
REMARK    6  A    between atoms: C_15  and  N_63
REMARK    7  A    between atoms: C_16  and  N_63
REMARK    8  A    between atoms: C_17  and  C_19
REMARK    9  A    between atoms: N_24  and  S_26
REMARK   10  A    between atoms: S_26  and  C_29
REMARK                            x       y       z     vdW  Elec       q    Type
REMARK                         _______ _______ _______ _____ _____    ______ ____
ROOT
ATOM      1  C   UNL     1       1.099  10.654   9.560  0.00  0.00    -0.046 A 
ATOM      2  C   UNL     1       1.298   9.477  10.267  0.00  0.00    +0.006 A 
ATOM      3  C   UNL     1       1.067   8.252   9.698  0.00  0.00    +0.029 A 
ATOM      4  C   UNL     1       0.616   8.149   8.362  0.00  0.00    +0.080 A 
ATOM      5  C   UNL     1       0.425   9.369   7.672  0.00  0.00    +0.041 A 
ATOM      6  C   UNL     1       0.658  10.591   8.251  0.00  0.00    +0.021 A 
ATOM      7  S   UNL     1      -0.120   8.818   6.074  0.00  0.00    -0.052 S 
ATOM      8  C   UNL     1      -0.073   7.064   6.413  0.00  0.00    +0.168 A 
ATOM      9  N   UNL     1       0.343   7.030   7.657  0.00  0.00    -0.224 NA
ATOM     10  N   UNL     1      -0.388   6.007   5.573  0.00  0.00    -0.252 N 
ATOM     11  C   UNL     1      -0.676   6.239   4.277  0.00  0.00    +0.226 C 
ATOM     12  O   UNL     1      -1.042   5.329   3.565  0.00  0.00    -0.275 OA
ENDROOT
BRANCH  11  13
ATOM     13  C   UNL     1      -0.544   7.631   3.713  0.00  0.00    +0.091 C 
ATOM     14  C   UNL     1       0.924   8.062   3.755  0.00  0.00    +0.015 C 
ATOM     15  C   UNL     1       1.054   9.487   3.213  0.00  0.00    +0.018 C 
ATOM     16  C   UNL     1       0.583   9.518   1.751  0.00  0.00    +0.109 C 
ATOM     17  N   UNL     1      -0.780   8.971   1.688  0.00  0.00    -0.175 NA
ATOM     18  C   UNL     1      -1.035   7.643   2.262  0.00  0.00    +0.122 C 
BRANCH  17  19
ATOM     19  S   UNL     1      -2.002   9.832   0.977  0.00  0.00    +0.067 S 
ATOM     20  O   UNL     1      -2.980   8.886   0.567  0.00  0.00    -0.152 OA
ATOM     21  O   UNL     1      -1.388  10.736   0.068  0.00  0.00    -0.152 OA
BRANCH  19  22
ATOM     22  C   UNL     1      -2.749  10.814   2.236  0.00  0.00    +0.143 A 
ATOM     23  C   UNL     1      -2.441  12.074   2.630  0.00  0.00    +0.036 A 
ATOM     24  C   UNL     1      -3.168  12.652   3.654  0.00  0.00    +0.010 A 
ATOM     25  C   UNL     1      -4.174  11.946   4.226  0.00  0.00    +0.047 A 
ATOM     26  S   UNL     1      -4.112  10.411   3.316  0.00  0.00    -0.077 S 
ENDBRANCH  19  22
ENDBRANCH  17  19
ENDBRANCH  11  13
BRANCH   1  28
ATOM     27  C   UNL     1       0.083  12.484  10.890  0.00  0.00    +0.009 C 
ATOM     28  C   UNL     1       1.361  11.987  10.212  0.00  0.00    +0.032 C 
ENDBRANCH   1  28
BRANCH  10  29
ATOM     29  C   UNL     1      -0.409   4.638   6.095  0.00  0.00    +0.097 C 
BRANCH  29  30
ATOM     30  C   UNL     1       0.939   3.968   5.820  0.00  0.00    -0.060 C 
BRANCH  30  33
ATOM     31  C   UNL     1      -0.042   1.765   5.604  0.00  0.00    -0.097 C 
ATOM     32  C   UNL     1       2.261   2.000   6.313  0.00  0.00    -0.097 C 
ATOM     33  N   UNL     1       0.909   2.596   6.370  0.00  0.00    +0.377 N 
ATOM     34  H   UNL     1       0.604   2.636   7.350  0.00  0.00    -0.083 HD
ENDBRANCH  30  33
ENDBRANCH  29  30
ENDBRANCH  10  29
TORSDOF 7
