REMARK  Name = ZINC09664460
REMARK  5 active torsions:
REMARK  status: ('A' for Active; 'I' for Inactive)
REMARK    1  A    between atoms: N_12  and  C_16
REMARK    2  A    between atoms: C_16  and  C_17
REMARK    3  A    between atoms: N_19  and  C_20
REMARK    4  A    between atoms: C_23  and  O_26
REMARK    5  A    between atoms: O_26  and  C_27
REMARK                            x       y       z     vdW  Elec       q    Type
REMARK                         _______ _______ _______ _____ _____    ______ ____
ROOT
ATOM      1  C   UNL     1       4.059   1.246   3.051  0.00  0.00    +0.000 A 
ATOM      2  C   UNL     1       2.737   1.192   3.450  0.00  0.00    +0.000 A 
ATOM      3  C   UNL     1       1.729   1.381   2.525  0.00  0.00    +0.006 A 
ATOM      4  C   UNL     1       2.036   1.626   1.197  0.00  0.00    -0.012 A 
ATOM      5  C   UNL     1       3.361   1.681   0.798  0.00  0.00    -0.042 A 
ATOM      6  C   UNL     1       4.369   1.490   1.728  0.00  0.00    +0.004 A 
ATOM      7  C   UNL     1       3.439   1.962  -0.688  0.00  0.00    +0.038 C 
ATOM      8  C   UNL     1       2.026   1.652  -1.233  0.00  0.00    +0.045 C 
ATOM      9  C   UNL     1       1.148   1.863   0.006  0.00  0.00    +0.138 C 
ATOM     10  C   UNL     1       0.553   3.248   0.023  0.00  0.00    +0.251 C 
ATOM     11  O   UNL     1       1.149   4.304   0.032  0.00  0.00    -0.272 OA
ATOM     12  N   UNL     1      -0.784   3.060   0.027  0.00  0.00    -0.215 N 
ATOM     13  C   UNL     1      -1.099   1.758   0.009  0.00  0.00    +0.310 C 
ATOM     14  O   UNL     1      -2.240   1.339   0.003  0.00  0.00    -0.252 OA
ATOM     15  N   UNL     1      -0.008   0.966   0.002  0.00  0.00    -0.281 N 
ATOM     16  H   UNL     1       0.008  -0.004  -0.008  0.00  0.00    +0.152 HD
ENDROOT
BRANCH  12  17
ATOM     17  C   UNL     1      -1.768   4.146   0.042  0.00  0.00    +0.214 C 
BRANCH  17  18
ATOM     18  C   UNL     1      -2.112   4.532  -1.374  0.00  0.00    +0.235 C 
ATOM     19  O   UNL     1      -1.586   3.957  -2.304  0.00  0.00    -0.274 OA
ATOM     20  N   UNL     1      -3.003   5.516  -1.606  0.00  0.00    -0.284 N 
ATOM     21  H   UNL     1      -3.473   5.930  -0.866  0.00  0.00    +0.155 HD
BRANCH  20  22
ATOM     22  C   UNL     1      -3.250   5.941  -2.918  0.00  0.00    +0.034 A 
ATOM     23  C   UNL     1      -3.525   7.278  -3.175  0.00  0.00    +0.027 A 
ATOM     24  C   UNL     1      -3.764   7.697  -4.468  0.00  0.00    +0.048 A 
ATOM     25  C   UNL     1      -3.739   6.782  -5.510  0.00  0.00    +0.130 A 
ATOM     26  C   UNL     1      -3.470   5.446  -5.254  0.00  0.00    +0.048 A 
ATOM     27  C   UNL     1      -3.225   5.026  -3.961  0.00  0.00    +0.027 A 
BRANCH  25  28
ATOM     28  O   UNL     1      -3.979   7.195  -6.783  0.00  0.00    -0.406 OA
BRANCH  28  29
ATOM     29  C   UNL     1      -4.250   8.585  -6.974  0.00  0.00    +0.575 C 
ATOM     30  F   UNL     1      -3.155   9.337  -6.536  0.00  0.00    -0.133 F 
ATOM     31  F   UNL     1      -4.473   8.834  -8.333  0.00  0.00    -0.133 F 
ATOM     32  F   UNL     1      -5.386   8.944  -6.242  0.00  0.00    -0.133 F 
ENDBRANCH  28  29
ENDBRANCH  25  28
ENDBRANCH  20  22
ENDBRANCH  17  18
ENDBRANCH  12  17
TORSDOF 5
