REMARK  Name = ZINC36304765
REMARK  19 active torsions:
REMARK  status: ('A' for Active; 'I' for Inactive)
REMARK    1  A    between atoms: C_1  and  C_2
REMARK    2  A    between atoms: C_6  and  O_8
REMARK    3  A    between atoms: O_8  and  C_9
REMARK    4  A    between atoms: C_10  and  C_21
REMARK    5  A    between atoms: C_11  and  C_20
REMARK    6  A    between atoms: N_13  and  C_14
REMARK    7  A    between atoms: C_21  and  N_22
REMARK    8  A    between atoms: N_22  and  C_23
REMARK    9  A    between atoms: N_22  and  C_33
REMARK   10  A    between atoms: C_23  and  C_24
REMARK   11  A    between atoms: C_24  and  C_26
REMARK   12  A    between atoms: C_24  and  O_32
REMARK   13  A    between atoms: C_26  and  O_27
REMARK   14  A    between atoms: O_27  and  C_28
REMARK   15  A    between atoms: C_28  and  C_29
REMARK   16  A    between atoms: C_28  and  C_30
REMARK   17  A    between atoms: C_28  and  C_31
REMARK   18  A    between atoms: C_33  and  C_34
REMARK   19  A    between atoms: C_33  and  C_35
REMARK                            x       y       z     vdW  Elec       q    Type
REMARK                         _______ _______ _______ _____ _____    ______ ____
ROOT
ATOM      1  C   UNL     1       1.283  -5.881   3.413  0.00  0.00    +0.225 A 
ATOM      2  C   UNL     1       0.323  -6.262   4.297  0.00  0.00    +0.021 A 
ATOM      3  C   UNL     1      -0.065  -7.566   3.975  0.00  0.00    +0.065 A 
ATOM      4  N   UNL     1       0.630  -7.961   2.939  0.00  0.00    -0.168 NA
ATOM      5  N   UNL     1       1.486  -6.919   2.558  0.00  0.00    -0.200 N 
ATOM      6  C   UNL     1      -1.108  -8.379   4.698  0.00  0.00    +0.068 C 
ENDROOT
BRANCH   5   7
ATOM      7  C   UNL     1       2.390  -6.943   1.487  0.00  0.00    +0.069 A 
ATOM      8  C   UNL     1       2.535  -5.827   0.674  0.00  0.00    +0.028 A 
ATOM      9  C   UNL     1       3.428  -5.853  -0.380  0.00  0.00    +0.002 A 
ATOM     10  C   UNL     1       4.176  -6.990  -0.626  0.00  0.00    +0.000 A 
ATOM     11  C   UNL     1       4.033  -8.103   0.182  0.00  0.00    +0.002 A 
ATOM     12  C   UNL     1       3.147  -8.080   1.241  0.00  0.00    +0.028 A 
ENDBRANCH   5   7
BRANCH   1  13
ATOM     13  O   UNL     1       1.920  -4.683   3.386  0.00  0.00    -0.438 OA
BRANCH  13  19
ATOM     14  C   UNL     1       5.803  -1.999   4.626  0.00  0.00    +0.044 C 
ATOM     15  C   UNL     1       4.995  -3.267   4.720  0.00  0.00    -0.047 A 
ATOM     16  C   UNL     1       5.429  -4.306   5.522  0.00  0.00    +0.003 A 
ATOM     17  C   UNL     1       4.690  -5.471   5.610  0.00  0.00    +0.004 A 
ATOM     18  C   UNL     1       3.514  -5.599   4.896  0.00  0.00    +0.046 A 
ATOM     19  C   UNL     1       3.076  -4.559   4.090  0.00  0.00    +0.131 A 
ATOM     20  C   UNL     1       3.818  -3.388   4.008  0.00  0.00    +0.049 A 
ENDBRANCH  13  19
ENDBRANCH   1  13
BRANCH   2  21
ATOM     21  C   UNL     1      -0.227  -5.426   5.424  0.00  0.00    -0.035 C 
BRANCH  21  22
ATOM     22  N   UNL     1      -1.677  -5.266   5.253  0.00  0.00    +0.386 N 
ATOM     23  H   UNL     1      -2.097  -6.167   5.080  0.00  0.00    -0.081 HD
BRANCH  22  24
ATOM     24  C   UNL     1      -1.940  -4.376   4.114  0.00  0.00    -0.074 C 
ATOM     25  C   UNL     1      -1.056  -3.132   4.224  0.00  0.00    -0.014 C 
ATOM     26  C   UNL     1      -1.627  -5.111   2.810  0.00  0.00    -0.014 C 
ENDBRANCH  22  24
BRANCH  22  27
ATOM     27  C   UNL     1      -2.252  -4.683   6.473  0.00  0.00    -0.044 C 
BRANCH  27  28
ATOM     28  C   UNL     1      -3.772  -4.863   6.456  0.00  0.00    +0.124 C 
BRANCH  28  29
ATOM     29  O   UNL     1      -4.339  -4.029   5.443  0.00  0.00    -0.391 OA
ATOM     30  H   UNL     1      -4.150  -3.088   5.557  0.00  0.00    +0.210 HD
ENDBRANCH  28  29
BRANCH  28  31
ATOM     31  C   UNL     1      -4.347  -4.471   7.819  0.00  0.00    +0.189 C 
BRANCH  31  32
ATOM     32  O   UNL     1      -5.748  -4.749   7.842  0.00  0.00    -0.372 OA
BRANCH  32  33
ATOM     33  C   UNL     1      -6.386  -4.418   9.077  0.00  0.00    +0.061 C 
ATOM     34  C   UNL     1      -6.217  -2.923   9.354  0.00  0.00    +0.041 C 
ATOM     35  C   UNL     1      -7.876  -4.755   8.989  0.00  0.00    +0.041 C 
ATOM     36  C   UNL     1      -5.748  -5.222  10.212  0.00  0.00    +0.041 C 
ENDBRANCH  32  33
ENDBRANCH  31  32
ENDBRANCH  28  31
ENDBRANCH  27  28
ENDBRANCH  22  27
ENDBRANCH  21  22
ENDBRANCH   2  21
TORSDOF 12
