REMARK  Name = ZINC09170513
REMARK  10 active torsions:
REMARK  status: ('A' for Active; 'I' for Inactive)
REMARK    1  A    between atoms: C_1  and  C_2
REMARK    2  A    between atoms: C_2  and  C_3
REMARK    3  A    between atoms: C_3  and  C_4
REMARK    4  A    between atoms: C_7  and  S_10
REMARK    5  A    between atoms: S_10  and  N_13
REMARK    6  A    between atoms: N_13  and  C_14
REMARK    7  A    between atoms: N_20  and  C_28
REMARK    8  A    between atoms: C_23  and  C_26
REMARK    9  A    between atoms: C_23  and  C_27
REMARK   10  A    between atoms: C_28  and  C_29
REMARK                            x       y       z     vdW  Elec       q    Type
REMARK                         _______ _______ _______ _____ _____    ______ ____
ROOT
ATOM      1  C   UNL     1      -0.984   5.356  -1.607  0.00  0.00    +0.050 A 
ATOM      2  C   UNL     1       0.268   4.887  -1.985  0.00  0.00    +0.028 A 
ATOM      3  C   UNL     1       0.598   3.558  -1.796  0.00  0.00    +0.049 A 
ATOM      4  C   UNL     1      -0.319   2.690  -1.229  0.00  0.00    +0.142 A 
ATOM      5  C   UNL     1      -1.577   3.157  -0.853  0.00  0.00    +0.080 A 
ATOM      6  C   UNL     1      -1.908   4.489  -1.040  0.00  0.00    +0.051 A 
ATOM      7  N   UNL     1      -2.501   2.265  -0.292  0.00  0.00    -0.268 N 
ATOM      8  C   UNL     1      -2.111   1.453   0.716  0.00  0.00    +0.229 C 
ATOM      9  O   UNL     1      -2.879   0.631   1.169  0.00  0.00    -0.275 OA
ATOM     10  C   UNL     1      -0.720   1.574   1.271  0.00  0.00    +0.076 C 
ATOM     11  C   UNL     1       0.293   0.973   0.298  0.00  0.00    +0.244 C 
ATOM     12  O   UNL     1      -0.000   1.382  -1.036  0.00  0.00    -0.489 OA
ATOM     13  C   UNL     1      -0.645   0.830   2.605  0.00  0.00    +0.024 C 
ATOM     14  C   UNL     1      -0.391   3.051   1.497  0.00  0.00    +0.024 C 
ENDROOT
BRANCH   1  15
ATOM     15  N   UNL     1      -1.313   6.702  -1.799  0.00  0.00    -0.216 N 
ATOM     16  H   UNL     1      -1.754   7.199  -1.092  0.00  0.00    +0.174 HD
BRANCH  15  17
ATOM     17  S   UNL     1      -0.952   7.447  -3.233  0.00  0.00    +0.072 S 
ATOM     18  O   UNL     1      -1.429   8.782  -3.129  0.00  0.00    -0.150 OA
ATOM     19  O   UNL     1       0.407   7.145  -3.516  0.00  0.00    -0.150 OA
BRANCH  17  23
ATOM     20  C   UNL     1      -3.423   5.436  -6.448  0.00  0.00    -0.047 A 
ATOM     21  C   UNL     1      -3.928   6.530  -5.771  0.00  0.00    +0.005 A 
ATOM     22  C   UNL     1      -3.174   7.144  -4.789  0.00  0.00    +0.029 A 
ATOM     23  C   UNL     1      -1.913   6.665  -4.484  0.00  0.00    +0.109 A 
ATOM     24  C   UNL     1      -1.406   5.574  -5.165  0.00  0.00    +0.029 A 
ATOM     25  C   UNL     1      -2.162   4.957  -6.144  0.00  0.00    +0.005 A 
BRANCH  20  26
ATOM     26  C   UNL     1      -4.246   4.766  -7.518  0.00  0.00    +0.035 C 
BRANCH  26  28
ATOM     27  C   UNL     1      -4.788   4.737  -9.957  0.00  0.00    +0.004 C 
ATOM     28  C   UNL     1      -3.952   5.417  -8.870  0.00  0.00    +0.001 C 
ENDBRANCH  26  28
ENDBRANCH  20  26
ENDBRANCH  17  23
ENDBRANCH  15  17
ENDBRANCH   1  15
BRANCH   7  29
ATOM     29  C   UNL     1      -3.877   2.212  -0.793  0.00  0.00    +0.110 C 
ATOM     30  C   UNL     1      -3.968   1.189  -1.926  0.00  0.00    +0.025 C 
ENDBRANCH   7  29
TORSDOF 6
