REMARK  Name = ZINC35315351
REMARK  10 active torsions:
REMARK  status: ('A' for Active; 'I' for Inactive)
REMARK    1  A    between atoms: C_1  and  C_2
REMARK    2  A    between atoms: C_3  and  C_21
REMARK    3  A    between atoms: C_7  and  S_12
REMARK    4  A    between atoms: S_12  and  C_13
REMARK    5  A    between atoms: C_13  and  C_14
REMARK    6  A    between atoms: N_16  and  C_17
REMARK    7  A    between atoms: C_17  and  C_18
REMARK    8  A    between atoms: C_17  and  C_19
REMARK    9  A    between atoms: C_17  and  C_20
REMARK   10  A    between atoms: C_21  and  C_22
REMARK                            x       y       z     vdW  Elec       q    Type
REMARK                         _______ _______ _______ _____ _____    ______ ____
ROOT
ATOM      1  C   UNL     1      -0.018   1.503   0.010  0.00  0.00    +0.066 C 
ATOM      2  C   UNL     1       0.002  -0.004   0.002  0.00  0.00    +0.049 A 
ATOM      3  C   UNL     1      -1.170  -0.692   0.004  0.00  0.00    +0.023 A 
ATOM      4  C   UNL     1      -1.125  -2.103  -0.004  0.00  0.00    +0.169 A 
ATOM      5  N   UNL     1      -2.031  -3.057  -0.005  0.00  0.00    -0.128 NA
ATOM      6  N   UNL     1      -1.453  -4.207  -0.014  0.00  0.00    -0.122 NA
ATOM      7  C   UNL     1      -0.147  -4.063  -0.019  0.00  0.00    +0.199 A 
ATOM      8  N   UNL     1       0.112  -2.723  -0.013  0.00  0.00    -0.242 N 
ATOM      9  C   UNL     1       1.246  -1.961  -0.014  0.00  0.00    +0.201 A 
ATOM     10  N   UNL     1       1.173  -0.649  -0.013  0.00  0.00    -0.221 NA
ATOM     11  N   UNL     1       2.475  -2.574  -0.023  0.00  0.00    -0.328 N 
ATOM     12  H   UNL     1       2.535  -3.542  -0.029  0.00  0.00    +0.145 HD
ATOM     13  H   UNL     1       3.284  -2.038  -0.024  0.00  0.00    +0.145 HD
ENDROOT
BRANCH   7  14
ATOM     14  S   UNL     1       1.047  -5.358  -0.031  0.00  0.00    -0.076 S 
BRANCH  14  15
ATOM     15  C   UNL     1       0.051  -6.874  -0.034  0.00  0.00    +0.173 C 
BRANCH  15  16
ATOM     16  C   UNL     1       0.962  -8.074  -0.044  0.00  0.00    +0.224 C 
ATOM     17  O   UNL     1       2.166  -7.922  -0.048  0.00  0.00    -0.275 OA
ATOM     18  N   UNL     1       0.440  -9.316  -0.048  0.00  0.00    -0.310 N 
ATOM     19  H   UNL     1      -0.522  -9.438  -0.044  0.00  0.00    +0.149 HD
BRANCH  18  20
ATOM     20  C   UNL     1       1.326 -10.483  -0.057  0.00  0.00    +0.026 C 
ATOM     21  C   UNL     1       2.215 -10.459   1.188  0.00  0.00    +0.031 C 
ATOM     22  C   UNL     1       0.486 -11.762  -0.060  0.00  0.00    +0.031 C 
ATOM     23  C   UNL     1       2.204 -10.447  -1.310  0.00  0.00    +0.031 C 
ENDBRANCH  18  20
ENDBRANCH  15  16
ENDBRANCH  14  15
ENDBRANCH   7  14
BRANCH   3  24
ATOM     24  C   UNL     1      -2.489   0.036   0.015  0.00  0.00    +0.075 C 
BRANCH  24  25
ATOM     25  C   UNL     1      -2.996   0.178  -1.397  0.00  0.00    -0.043 A 
ATOM     26  C   UNL     1      -2.648   1.286  -2.148  0.00  0.00    +0.004 A 
ATOM     27  C   UNL     1      -3.113   1.416  -3.443  0.00  0.00    +0.000 A 
ATOM     28  C   UNL     1      -3.925   0.439  -3.988  0.00  0.00    +0.000 A 
ATOM     29  C   UNL     1      -4.272  -0.668  -3.238  0.00  0.00    +0.000 A 
ATOM     30  C   UNL     1      -3.804  -0.801  -1.944  0.00  0.00    +0.004 A 
ENDBRANCH  24  25
ENDBRANCH   3  24
TORSDOF 6
