REMARK  Name = ZINC33634609
REMARK  14 active torsions:
REMARK  status: ('A' for Active; 'I' for Inactive)
REMARK    1  A    between atoms: C_1  and  C_2
REMARK    2  A    between atoms: C_2  and  C_3
REMARK    3  A    between atoms: C_3  and  C_4
REMARK    4  A    between atoms: C_4  and  C_5
REMARK    5  A    between atoms: C_5  and  C_6
REMARK    6  A    between atoms: C_7  and  C_23
REMARK    7  A    between atoms: C_8  and  C_20
REMARK    8  A    between atoms: C_9  and  C_19
REMARK    9  A    between atoms: N_10  and  C_11
REMARK   10  A    between atoms: C_11  and  C_12
REMARK   11  A    between atoms: C_12  and  N_13
REMARK   12  A    between atoms: C_26  and  C_29
REMARK   13  A    between atoms: C_29  and  O_31
REMARK   14  A    between atoms: O_31  and  C_32
REMARK                            x       y       z     vdW  Elec       q    Type
REMARK                         _______ _______ _______ _____ _____    ______ ____
ROOT
ATOM      1  C   UNL     1      -0.016   1.355   0.009  0.00  0.00    +0.027 A 
ATOM      2  C   UNL     1       0.002  -0.004   0.002  0.00  0.00    +0.015 A 
ATOM      3  C   UNL     1       1.425  -0.391  -0.014  0.00  0.00    +0.065 A 
ATOM      4  C   UNL     1       2.133   0.776  -0.014  0.00  0.00    +0.028 A 
ATOM      5  N   UNL     1       1.266   1.808  -0.000  0.00  0.00    -0.348 N 
ATOM      6  C   UNL     1       3.636   0.892  -0.028  0.00  0.00    +0.064 C 
ENDROOT
BRANCH   2   7
ATOM      7  C   UNL     1      -1.168  -0.911   0.008  0.00  0.00    -0.015 A 
ATOM      8  C   UNL     1      -2.019  -0.944   1.114  0.00  0.00    +0.009 A 
ATOM      9  C   UNL     1      -3.107  -1.780   1.118  0.00  0.00    +0.015 A 
ATOM     10  C   UNL     1      -3.356  -2.607   0.018  0.00  0.00    +0.059 A 
ATOM     11  C   UNL     1      -2.499  -2.577  -1.087  0.00  0.00    +0.015 A 
ATOM     12  C   UNL     1      -1.416  -1.737  -1.091  0.00  0.00    +0.009 A 
BRANCH  10  13
ATOM     13  C   UNL     1      -4.522  -3.510   0.023  0.00  0.00    +0.339 C 
ATOM     14  O   UNL     1      -4.738  -4.228  -0.932  0.00  0.00    -0.245 OA
BRANCH  13  15
ATOM     15  O   UNL     1      -5.347  -3.539   1.088  0.00  0.00    -0.464 OA
ATOM     16  C   UNL     1      -6.474  -4.452   1.024  0.00  0.00    +0.280 C 
ENDBRANCH  13  15
ENDBRANCH  10  13
ENDBRANCH   2   7
BRANCH   3  17
ATOM     17  C   UNL     1       1.970  -1.758  -0.027  0.00  0.00    +0.244 C 
ATOM     18  O   UNL     1       2.186  -2.316  -1.086  0.00  0.00    -0.270 OA
ATOM     19  N   UNL     1       2.231  -2.390   1.134  0.00  0.00    -0.325 N 
ATOM     20  H   UNL     1       2.639  -3.412   1.124  0.00  0.00    +0.145 HD
ATOM     21  H   UNL     1       2.036  -1.885   2.092  0.00  0.00    +0.145 HD
ENDBRANCH   3  17
BRANCH   1  22
ATOM     22  C   UNL     1      -1.252   2.217   0.020  0.00  0.00    +0.054 C 
BRANCH  22  23
ATOM     23  C   UNL     1      -1.678   2.516  -1.419  0.00  0.00    +0.006 C 
BRANCH  23  24
ATOM     24  C   UNL     1      -2.933   3.391  -1.407  0.00  0.00    +0.000 C 
BRANCH  24  26
ATOM     25  C   UNL     1      -4.614   4.565  -2.835  0.00  0.00    +0.004 C 
ATOM     26  C   UNL     1      -3.359   3.690  -2.846  0.00  0.00    -0.003 C 
ENDBRANCH  24  26
ENDBRANCH  23  24
ENDBRANCH  22  23
ENDBRANCH   1  22
BRANCH   5  27
ATOM     27  C   UNL     1       1.652   3.221   0.004  0.00  0.00    +0.103 C 
BRANCH  27  28
ATOM     28  C   UNL     1       1.800   3.706   1.447  0.00  0.00    -0.057 C 
BRANCH  28  29
ATOM     29  N   UNL     1       2.187   5.123   1.451  0.00  0.00    +0.381 N 
ATOM     30  C   UNL     1       3.526   5.305   0.877  0.00  0.00    -0.079 C 
ATOM     31  C   UNL     1       3.835   6.799   0.763  0.00  0.00    -0.019 C 
ATOM     32  C   UNL     1       3.765   7.437   2.154  0.00  0.00    -0.004 C 
ATOM     33  C   UNL     1       2.375   7.192   2.749  0.00  0.00    -0.019 C 
ATOM     34  C   UNL     1       2.108   5.686   2.805  0.00  0.00    -0.079 C 
ATOM     35  H   UNL     1       1.474   5.671   0.818  0.00  0.00    -0.082 HD
ENDBRANCH  28  29
ENDBRANCH  27  28
ENDBRANCH   5  27
TORSDOF 11
