REMARK  Name = ZINC19364198
REMARK  9 active torsions:
REMARK  status: ('A' for Active; 'I' for Inactive)
REMARK    1  A    between atoms: C_1  and  C_2
REMARK    2  A    between atoms: C_2  and  C_3
REMARK    3  A    between atoms: C_3  and  C_4
REMARK    4  A    between atoms: C_3  and  N_6
REMARK    5  A    between atoms: C_4  and  C_5
REMARK    6  A    between atoms: N_9  and  C_12
REMARK    7  A    between atoms: C_12  and  C_13
REMARK    8  A    between atoms: C_16  and  O_19
REMARK    9  A    between atoms: O_19  and  C_20
REMARK                            x       y       z     vdW  Elec       q    Type
REMARK                         _______ _______ _______ _____ _____    ______ ____
ROOT
ATOM      1  N   UNL     1      -0.962   2.711  -2.462  0.00  0.00    +0.383 N 
ATOM      2  C   UNL     1      -1.295   1.305  -2.732  0.00  0.00    -0.063 C 
ATOM      3  C   UNL     1      -0.230   0.402  -2.107  0.00  0.00    +0.066 C 
ATOM      4  N   UNL     1      -0.163   0.655  -0.661  0.00  0.00    -0.302 NA
ATOM      5  C   UNL     1       0.170   2.061  -0.390  0.00  0.00    +0.066 C 
ATOM      6  C   UNL     1      -0.896   2.964  -1.016  0.00  0.00    -0.063 C 
ATOM      7  H   UNL     1       0.032   2.912  -2.888  0.00  0.00    -0.081 HD
ENDROOT
BRANCH   1   8
ATOM      8  C   UNL     1      -1.922   3.614  -3.111  0.00  0.00    -0.069 C 
BRANCH   8  10
ATOM      9  C   UNL     1      -3.892   2.419  -2.145  0.00  0.00    +0.002 C 
ATOM     10  C   UNL     1      -3.162   3.761  -2.227  0.00  0.00    -0.019 C 
ENDBRANCH   8  10
BRANCH   8  11
ATOM     11  C   UNL     1      -1.274   4.985  -3.314  0.00  0.00    -0.019 C 
ATOM     12  C   UNL     1      -0.073   4.848  -4.252  0.00  0.00    +0.002 C 
ENDBRANCH   8  11
ENDBRANCH   1   8
BRANCH   4  13
ATOM     13  C   UNL     1       0.797  -0.248  -0.012  0.00  0.00    +0.119 C 
BRANCH  13  14
ATOM     14  C   UNL     1       1.022   0.197   1.410  0.00  0.00    -0.033 A 
ATOM     15  C   UNL     1       2.032   1.096   1.701  0.00  0.00    +0.008 A 
ATOM     16  C   UNL     1       2.237   1.509   3.003  0.00  0.00    +0.046 A 
ATOM     17  C   UNL     1       1.436   1.013   4.021  0.00  0.00    +0.120 A 
ATOM     18  C   UNL     1       0.427   0.107   3.728  0.00  0.00    +0.046 A 
ATOM     19  C   UNL     1       0.223  -0.299   2.424  0.00  0.00    +0.008 A 
BRANCH  17  20
ATOM     20  O   UNL     1       1.639   1.414   5.303  0.00  0.00    -0.495 OA
ATOM     21  C   UNL     1       2.696   2.349   5.531  0.00  0.00    +0.277 C 
ENDBRANCH  17  20
ENDBRANCH  13  14
ENDBRANCH   4  13
TORSDOF 6
