REMARK  Name = ZINC20097634
REMARK  10 active torsions:
REMARK  status: ('A' for Active; 'I' for Inactive)
REMARK    1  A    between atoms: C_1  and  C_2
REMARK    2  A    between atoms: C_2  and  N_3
REMARK    3  A    between atoms: N_3  and  C_4
REMARK    4  A    between atoms: N_3  and  S_6
REMARK    5  A    between atoms: C_4  and  C_5
REMARK    6  A    between atoms: S_6  and  C_9
REMARK    7  A    between atoms: C_12  and  S_15
REMARK    8  A    between atoms: S_15  and  N_18
REMARK    9  A    between atoms: N_21  and  C_24
REMARK   10  A    between atoms: C_24  and  C_25
REMARK                            x       y       z     vdW  Elec       q    Type
REMARK                         _______ _______ _______ _____ _____    ______ ____
ROOT
ATOM      1  S   UNL     1       9.203  -3.688  -0.320  0.00  0.00    +0.061 S 
ATOM      2  O   UNL     1       8.721  -4.523  -1.364  0.00  0.00    -0.153 OA
ATOM      3  O   UNL     1      10.449  -3.010  -0.400  0.00  0.00    -0.153 OA
ENDROOT
BRANCH   1   7
ATOM      4  C   UNL     1       9.358  -6.242   3.414  0.00  0.00    +0.106 A 
ATOM      5  C   UNL     1       8.503  -6.579   2.381  0.00  0.00    +0.030 A 
ATOM      6  C   UNL     1       8.456  -5.799   1.240  0.00  0.00    +0.030 A 
ATOM      7  C   UNL     1       9.263  -4.682   1.133  0.00  0.00    +0.106 A 
ATOM      8  C   UNL     1      10.121  -4.348   2.164  0.00  0.00    +0.030 A 
ATOM      9  C   UNL     1      10.165  -5.126   3.306  0.00  0.00    +0.030 A 
BRANCH   4  10
ATOM     10  S   UNL     1       9.417  -7.236   4.867  0.00  0.00    +0.061 S 
ATOM     11  O   UNL     1       9.900  -6.401   5.911  0.00  0.00    -0.153 OA
ATOM     12  O   UNL     1       8.170  -7.913   4.948  0.00  0.00    -0.153 OA
BRANCH  10  13
ATOM     13  N   UNL     1      10.571  -8.398   4.620  0.00  0.00    -0.177 NA
BRANCH  13  15
ATOM     14  C   UNL     1      12.220  -8.703   6.400  0.00  0.00    +0.022 C 
ATOM     15  C   UNL     1      11.962  -8.142   5.000  0.00  0.00    +0.106 C 
ENDBRANCH  13  15
BRANCH  13  16
ATOM     16  C   UNL     1      10.201  -9.682   4.020  0.00  0.00    +0.106 C 
ATOM     17  C   UNL     1      10.450  -9.631   2.511  0.00  0.00    +0.022 C 
ENDBRANCH  13  16
ENDBRANCH  10  13
ENDBRANCH   4  10
ENDBRANCH   1   7
BRANCH   1  18
ATOM     18  N   UNL     1       8.048  -2.527  -0.071  0.00  0.00    -0.174 NA
ATOM     19  C   UNL     1       8.397  -1.231   0.530  0.00  0.00    +0.125 C 
ATOM     20  C   UNL     1       7.440  -0.962   1.696  0.00  0.00    +0.102 C 
ATOM     21  N   UNL     1       6.054  -1.074   1.223  0.00  0.00    -0.296 NA
ATOM     22  C   UNL     1       5.757  -2.435   0.758  0.00  0.00    +0.102 C 
ATOM     23  C   UNL     1       6.646  -2.765  -0.446  0.00  0.00    +0.125 C 
BRANCH  21  24
ATOM     24  C   UNL     1       5.107  -0.655   2.265  0.00  0.00    +0.119 C 
BRANCH  24  25
ATOM     25  C   UNL     1       3.725  -0.548   1.674  0.00  0.00    -0.030 A 
ATOM     26  C   UNL     1       2.885  -1.646   1.677  0.00  0.00    +0.009 A 
ATOM     27  C   UNL     1       1.617  -1.553   1.135  0.00  0.00    +0.050 A 
ATOM     28  C   UNL     1       1.183  -0.356   0.589  0.00  0.00    +0.166 A 
ATOM     29  C   UNL     1       2.028   0.751   0.586  0.00  0.00    +0.167 A 
ATOM     30  C   UNL     1       3.298   0.650   1.131  0.00  0.00    +0.054 A 
ATOM     31  O   UNL     1       1.376   1.797  -0.001  0.00  0.00    -0.453 OA
ATOM     32  C   UNL     1      -0.018   1.436   0.010  0.00  0.00    +0.466 C 
ATOM     33  O   UNL     1       0.002  -0.004   0.002  0.00  0.00    -0.453 OA
ENDBRANCH  24  25
ENDBRANCH  21  24
ENDBRANCH   1  18
TORSDOF 8
