REMARK  Name = ZINC28851097
REMARK  12 active torsions:
REMARK  status: ('A' for Active; 'I' for Inactive)
REMARK    1  A    between atoms: C_1  and  C_2
REMARK    2  A    between atoms: C_9  and  N_15
REMARK    3  A    between atoms: C_10  and  C_11
REMARK    4  A    between atoms: C_11  and  O_13
REMARK    5  A    between atoms: O_13  and  C_14
REMARK    6  A    between atoms: C_16  and  C_18
REMARK    7  A    between atoms: C_18  and  S_19
REMARK    8  A    between atoms: S_19  and  C_20
REMARK    9  A    between atoms: C_23  and  C_26
REMARK   10  A    between atoms: N_24  and  N_25
REMARK   11  A    between atoms: C_31  and  O_32
REMARK   12  A    between atoms: O_32  and  C_33
REMARK                            x       y       z     vdW  Elec       q    Type
REMARK                         _______ _______ _______ _____ _____    ______ ____
ROOT
ATOM      1  N   UNL     1      -1.497  -2.308  -2.360  0.00  0.00    -0.279 N 
ATOM      2  C   UNL     1      -2.325  -3.169  -2.985  0.00  0.00    +0.228 C 
ATOM      3  O   UNL     1      -2.033  -4.343  -3.063  0.00  0.00    -0.275 OA
ATOM      4  H   UNL     1      -1.762  -1.243  -2.290  0.00  0.00    +0.155 HD
ENDROOT
BRANCH   1  12
ATOM      5  C   UNL     1       5.122  -5.276   0.567  0.00  0.00    +0.008 C 
ATOM      6  C   UNL     1       4.139  -4.319  -0.110  0.00  0.00    -0.009 C 
ATOM      7  C   UNL     1       3.744  -3.208   0.867  0.00  0.00    +0.008 C 
ATOM      8  C   UNL     1       2.965  -2.118   0.128  0.00  0.00    +0.037 C 
ATOM      9  C   UNL     1       1.819  -2.768  -0.637  0.00  0.00    -0.021 A 
ATOM     10  C   UNL     1       1.822  -4.092  -0.903  0.00  0.00    -0.004 A 
ATOM     11  S   UNL     1       0.318  -4.380  -1.791  0.00  0.00    -0.077 S 
ATOM     12  C   UNL     1      -0.312  -2.765  -1.806  0.00  0.00    +0.086 A 
ATOM     13  C   UNL     1       0.661  -2.041  -1.130  0.00  0.00    +0.091 A 
ATOM     14  C   UNL     1       2.875  -5.087  -0.524  0.00  0.00    +0.046 C 
BRANCH  13  15
ATOM     15  C   UNL     1       0.522  -0.599  -0.915  0.00  0.00    +0.342 C 
ATOM     16  O   UNL     1       0.966   0.183  -1.735  0.00  0.00    -0.245 OA
BRANCH  15  17
ATOM     17  O   UNL     1      -0.098  -0.138   0.190  0.00  0.00    -0.464 OA
ATOM     18  C   UNL     1      -0.199   1.303   0.337  0.00  0.00    +0.280 C 
ENDBRANCH  15  17
ENDBRANCH  13  15
ENDBRANCH   1  12
BRANCH   2  19
ATOM     19  C   UNL     1      -3.614  -2.671  -3.588  0.00  0.00    +0.173 C 
BRANCH  19  20
ATOM     20  S   UNL     1      -4.497  -4.056  -4.349  0.00  0.00    -0.075 S 
BRANCH  20  21
ATOM     21  C   UNL     1      -5.921  -3.213  -4.955  0.00  0.00    +0.209 A 
ATOM     22  N   UNL     1      -6.177  -1.930  -4.837  0.00  0.00    -0.121 NA
ATOM     23  N   UNL     1      -7.301  -1.650  -5.393  0.00  0.00    -0.127 NA
ATOM     24  C   UNL     1      -7.832  -2.738  -5.901  0.00  0.00    +0.185 A 
ATOM     25  N   UNL     1      -6.962  -3.772  -5.642  0.00  0.00    -0.224 N 
BRANCH  24  26
ATOM     26  C   UNL     1      -9.119  -2.833  -6.622  0.00  0.00    +0.062 A 
ATOM     27  C   UNL     1     -10.024  -3.849  -6.310  0.00  0.00    +0.015 A 
ATOM     28  C   UNL     1     -11.224  -3.932  -6.986  0.00  0.00    +0.001 A 
ATOM     29  C   UNL     1     -11.534  -3.012  -7.972  0.00  0.00    +0.004 A 
ATOM     30  C   UNL     1     -10.646  -2.002  -8.290  0.00  0.00    +0.046 A 
ATOM     31  C   UNL     1      -9.439  -1.901  -7.617  0.00  0.00    +0.131 A 
BRANCH  31  32
ATOM     32  O   UNL     1      -8.567  -0.906  -7.924  0.00  0.00    -0.494 OA
ATOM     33  C   UNL     1      -8.962   0.008  -8.950  0.00  0.00    +0.277 C 
ENDBRANCH  31  32
ENDBRANCH  24  26
BRANCH  25  34
ATOM     34  N   UNL     1      -7.109  -5.083  -5.994  0.00  0.00    -0.295 N 
ATOM     35  H   UNL     1      -8.002  -5.406  -6.550  0.00  0.00    +0.163 HD
ATOM     36  H   UNL     1      -6.336  -5.816  -5.721  0.00  0.00    +0.163 HD
ENDBRANCH  25  34
ENDBRANCH  20  21
ENDBRANCH  19  20
ENDBRANCH   2  19
TORSDOF 9
