REMARK  Name = ZINC64084412
REMARK  8 active torsions:
REMARK  status: ('A' for Active; 'I' for Inactive)
REMARK    1  A    between atoms: C_1  and  C_2
REMARK    2  A    between atoms: C_2  and  C_3
REMARK    3  A    between atoms: C_3  and  C_5
REMARK    4  A    between atoms: C_3  and  N_8
REMARK    5  A    between atoms: C_5  and  O_6
REMARK    6  A    between atoms: O_6  and  C_7
REMARK    7  A    between atoms: C_11  and  C_34
REMARK    8  A    between atoms: C_12  and  C_18
REMARK                            x       y       z     vdW  Elec       q    Type
REMARK                         _______ _______ _______ _____ _____    ______ ____
ROOT
ATOM      1  N   UNL     1       4.216  -0.676  -3.625  0.00  0.00    -0.323 N 
ATOM      2  C   UNL     1       3.807   0.617  -3.368  0.00  0.00    +0.131 A 
ATOM      3  C   UNL     1       4.429   1.379  -2.334  0.00  0.00    +0.051 A 
ATOM      4  C   UNL     1       5.466   1.016  -1.466  0.00  0.00    -0.019 A 
ATOM      5  C   UNL     1       5.919   1.905  -0.540  0.00  0.00    +0.080 A 
ATOM      6  S   UNL     1       4.897   3.339  -0.834  0.00  0.00    -0.064 S 
ATOM      7  C   UNL     1       3.922   2.692  -2.167  0.00  0.00    +0.114 A 
ATOM      8  N   UNL     1       2.946   3.154  -2.922  0.00  0.00    -0.228 NA
ATOM      9  C   UNL     1       2.413   2.398  -3.862  0.00  0.00    +0.224 A 
ATOM     10  N   UNL     1       2.836   1.166  -4.079  0.00  0.00    -0.220 NA
ATOM     11  C   UNL     1       6.080  -0.358  -1.556  0.00  0.00    +0.046 C 
ATOM     12  H   UNL     1       4.927  -1.073  -3.098  0.00  0.00    +0.148 HD
ENDROOT
BRANCH   5  13
ATOM     13  C   UNL     1       6.984   1.729   0.455  0.00  0.00    +0.254 C 
ATOM     14  O   UNL     1       7.085   0.677   1.057  0.00  0.00    -0.269 OA
ATOM     15  N   UNL     1       7.848   2.733   0.702  0.00  0.00    -0.295 N 
ATOM     16  C   UNL     1       8.829   2.596   1.784  0.00  0.00    +0.112 C 
ATOM     17  C   UNL     1       8.650   3.751   2.786  0.00  0.00    +0.052 C 
ATOM     18  C   UNL     1       8.513   5.014   1.971  0.00  0.00    -0.036 C 
ATOM     19  C   UNL     1       9.153   6.175   2.037  0.00  0.00    -0.001 A 
ATOM     20  C   UNL     1      10.147   6.693   2.990  0.00  0.00    +0.010 A 
ATOM     21  C   UNL     1      10.620   7.943   2.743  0.00  0.00    +0.001 A 
ATOM     22  C   UNL     1      10.209   8.720   1.656  0.00  0.00    +0.002 A 
ATOM     23  C   UNL     1       9.294   8.326   0.734  0.00  0.00    +0.026 A 
ATOM     24  C   UNL     1       8.718   7.032   0.892  0.00  0.00    +0.043 A 
ATOM     25  N   UNL     1       7.816   6.420   0.183  0.00  0.00    -0.376 N 
ATOM     26  C   UNL     1       7.524   5.135   0.818  0.00  0.00    +0.124 C 
ATOM     27  C   UNL     1       7.803   3.952  -0.122  0.00  0.00    +0.137 C 
ATOM     28  H   UNL     1       7.407   6.759  -0.629  0.00  0.00    +0.160 HD
ENDBRANCH   5  13
BRANCH   1  29
ATOM     29  C   UNL     1       3.578  -1.448  -4.694  0.00  0.00    +0.097 C 
BRANCH  29  31
ATOM     30  C   UNL     1       1.293  -1.036  -3.770  0.00  0.00    +0.006 C 
ATOM     31  C   UNL     1       2.309  -2.113  -4.155  0.00  0.00    +0.021 C 
ENDBRANCH  29  31
BRANCH  29  32
ATOM     32  C   UNL     1       4.544  -2.523  -5.194  0.00  0.00    +0.181 C 
BRANCH  32  33
ATOM     33  O   UNL     1       4.795  -3.463  -4.147  0.00  0.00    -0.381 OA
ATOM     34  C   UNL     1       5.691  -4.514  -4.513  0.00  0.00    +0.194 C 
ENDBRANCH  32  33
ENDBRANCH  29  32
ENDBRANCH   1  29
TORSDOF 5
