REMARK  Name = ZINC20479088
REMARK  4 active torsions:
REMARK  status: ('A' for Active; 'I' for Inactive)
REMARK    1  A    between atoms: C_6  and  C_7
REMARK    2  A    between atoms: C_13  and  C_15
REMARK    3  A    between atoms: C_15  and  N_16
REMARK    4  A    between atoms: N_19  and  C_22
REMARK                            x       y       z     vdW  Elec       q    Type
REMARK                         _______ _______ _______ _____ _____    ______ ____
ROOT
ATOM      1  C   UNL     1      -7.327  -0.608   0.057  0.00  0.00    +0.180 C 
ENDROOT
BRANCH   1   8
ATOM      2  C   UNL     1      -1.271  -0.766   0.011  0.00  0.00    +0.080 A 
ATOM      3  C   UNL     1      -1.257  -2.133   0.008  0.00  0.00    +0.076 A 
ATOM      4  S   UNL     1      -3.010  -2.482   0.021  0.00  0.00    -0.060 S 
ATOM      5  C   UNL     1      -3.575  -0.786   0.028  0.00  0.00    +0.165 A 
ATOM      6  N   UNL     1      -2.431  -0.128   0.026  0.00  0.00    -0.225 NA
ATOM      7  N   UNL     1      -4.874  -0.292   0.038  0.00  0.00    -0.264 N 
ATOM      8  C   UNL     1      -5.919  -1.143   0.045  0.00  0.00    +0.233 C 
ATOM      9  O   UNL     1      -5.726  -2.341   0.042  0.00  0.00    -0.274 OA
ATOM     10  H   UNL     1      -5.029   0.666   0.041  0.00  0.00    +0.157 HD
BRANCH   2  16
ATOM     11  C   UNL     1      -0.017   1.390   0.010  0.00  0.00    +0.011 A 
ATOM     12  C   UNL     1       1.170   2.093   0.002  0.00  0.00    +0.016 A 
ATOM     13  C   UNL     1       2.378   1.418  -0.013  0.00  0.00    +0.018 A 
ATOM     14  C   UNL     1       2.402   0.034  -0.021  0.00  0.00    +0.016 A 
ATOM     15  C   UNL     1       1.221  -0.680  -0.013  0.00  0.00    +0.011 A 
ATOM     16  C   UNL     1       0.002  -0.004   0.002  0.00  0.00    +0.001 A 
ATOM     17 BR   UNL     1       4.001   2.389  -0.025  0.00  0.00    -0.050 Br
ENDBRANCH   2  16
ENDBRANCH   1   8
BRANCH   1  18
ATOM     18  N   UNL     1      -8.277  -1.728   0.062  0.00  0.00    -0.298 NA
ATOM     19  C   UNL     1      -8.207  -2.485  -1.196  0.00  0.00    +0.066 C 
ATOM     20  C   UNL     1      -9.166  -3.675  -1.126  0.00  0.00    -0.062 C 
ATOM     21  N   UNL     1     -10.534  -3.189  -0.903  0.00  0.00    +0.385 N 
ATOM     22  C   UNL     1     -10.594  -2.457   0.368  0.00  0.00    -0.062 C 
ATOM     23  C   UNL     1      -9.647  -1.256   0.311  0.00  0.00    +0.066 C 
ATOM     24  H   UNL     1     -10.800  -2.574  -1.658  0.00  0.00    -0.081 HD
BRANCH  21  25
ATOM     25  C   UNL     1     -11.457  -4.331  -0.855  0.00  0.00    -0.065 C 
ATOM     26  C   UNL     1     -11.396  -5.093  -2.180  0.00  0.00    -0.009 C 
ATOM     27  C   UNL     1     -12.357  -6.282  -2.129  0.00  0.00    -0.012 C 
ATOM     28  C   UNL     1     -13.783  -5.776  -1.897  0.00  0.00    +0.007 C 
ATOM     29  C   UNL     1     -13.844  -5.014  -0.572  0.00  0.00    -0.012 C 
ATOM     30  C   UNL     1     -12.882  -3.825  -0.622  0.00  0.00    -0.009 C 
ATOM     31  C   UNL     1     -13.441  -5.947   0.572  0.00  0.00    +0.007 C 
ATOM     32  C   UNL     1     -12.016  -6.453   0.340  0.00  0.00    -0.012 C 
ATOM     33  C   UNL     1     -11.955  -7.215  -0.985  0.00  0.00    +0.007 C 
ATOM     34  C   UNL     1     -11.055  -5.264   0.289  0.00  0.00    -0.009 C 
ENDBRANCH  21  25
ENDBRANCH   1  18
TORSDOF 4
