REMARK  Name = ZINC38821263
REMARK  5 active torsions:
REMARK  status: ('A' for Active; 'I' for Inactive)
REMARK    1  A    between atoms: C_1  and  C_2
REMARK    2  A    between atoms: C_2  and  C_29
REMARK    3  A    between atoms: C_6  and  C_19
REMARK    4  A    between atoms: C_12  and  S_16
REMARK    5  A    between atoms: S_16  and  C_17
REMARK                            x       y       z     vdW  Elec       q    Type
REMARK                         _______ _______ _______ _____ _____    ______ ____
ROOT
ATOM      1  C   UNL     1      -0.019   1.526   0.010  0.00  0.00    +0.011 C 
ATOM      2  C   UNL     1       0.002  -0.004   0.002  0.00  0.00    -0.023 C 
ATOM      3  C   UNL     1      -1.431  -0.539   0.042  0.00  0.00    +0.058 C 
ATOM      4  C   UNL     1      -1.409  -2.049   0.079  0.00  0.00    +0.017 C 
ATOM      5  C   UNL     1      -0.392  -2.715   0.659  0.00  0.00    +0.021 C 
ATOM      6  C   UNL     1      -0.336  -4.225   0.696  0.00  0.00    +0.073 C 
ATOM      7  C   UNL     1      -1.738  -4.812   0.524  0.00  0.00    +0.152 C 
ATOM      8  C   UNL     1      -2.405  -4.070  -0.610  0.00  0.00    +0.115 C 
ATOM      9  N   UNL     1      -2.873  -4.686  -1.653  0.00  0.00    -0.213 NA
ATOM     10  C   UNL     1      -2.768  -6.012  -1.807  0.00  0.00    +0.182 C 
ATOM     11  N   UNL     1      -2.164  -6.776  -0.907  0.00  0.00    -0.154 NA
ATOM     12  C   UNL     1      -1.652  -6.278   0.214  0.00  0.00    +0.250 C 
ATOM     13  O   UNL     1      -1.100  -7.020   1.003  0.00  0.00    -0.273 OA
ATOM     14  N   UNL     1      -2.475  -2.710  -0.490  0.00  0.00    -0.305 N 
ATOM     15  C   UNL     1       0.677  -2.019   1.260  0.00  0.00    +0.162 C 
ATOM     16  O   UNL     1       1.565  -2.647   1.803  0.00  0.00    -0.292 OA
ATOM     17  C   UNL     1       0.742  -0.517   1.242  0.00  0.00    +0.086 C 
ATOM     18  C   UNL     1       0.705  -0.503  -1.262  0.00  0.00    +0.011 C 
ATOM     19  H   UNL     1      -3.256  -2.224  -0.798  0.00  0.00    +0.153 HD
ENDROOT
BRANCH   6  20
ATOM     20  C   UNL     1       0.548  -4.719  -0.420  0.00  0.00    -0.036 A 
ATOM     21  C   UNL     1       0.234  -4.422  -1.733  0.00  0.00    +0.004 A 
ATOM     22  C   UNL     1       1.044  -4.874  -2.757  0.00  0.00    +0.003 A 
ATOM     23  C   UNL     1       2.169  -5.625  -2.470  0.00  0.00    +0.038 A 
ATOM     24  C   UNL     1       2.484  -5.923  -1.155  0.00  0.00    +0.124 A 
ATOM     25  C   UNL     1       1.675  -5.464  -0.129  0.00  0.00    +0.042 A 
ATOM     26  F   UNL     1       3.582  -6.657  -0.873  0.00  0.00    -0.205 F 
ENDBRANCH   6  20
BRANCH  10  27
ATOM     27  S   UNL     1      -3.452  -6.764  -3.246  0.00  0.00    -0.092 S 
ATOM     28  C   UNL     1      -3.085  -8.528  -3.037  0.00  0.00    +0.093 C 
ENDBRANCH  10  27
TORSDOF 2
