REMARK  Name = ZINC09484250
REMARK  4 active torsions:
REMARK  status: ('A' for Active; 'I' for Inactive)
REMARK    1  A    between atoms: C_1  and  S_2
REMARK    2  A    between atoms: S_2  and  C_3
REMARK    3  A    between atoms: C_6  and  C_9
REMARK    4  A    between atoms: C_14  and  C_19
REMARK                            x       y       z     vdW  Elec       q    Type
REMARK                         _______ _______ _______ _____ _____    ______ ____
ROOT
ATOM      1  C   UNL     1       1.703  -1.805  -0.039  0.00  0.00    +0.175 C 
ATOM      2  C   UNL     1       0.525  -2.691   0.301  0.00  0.00    +0.041 C 
ATOM      3  C   UNL     1      -0.744  -2.230   0.303  0.00  0.00    +0.020 C 
ATOM      4  C   UNL     1      -1.901  -3.144   0.630  0.00  0.00    +0.063 C 
ATOM      5  C   UNL     1      -1.446  -4.216   1.622  0.00  0.00    +0.068 C 
ATOM      6  C   UNL     1      -0.287  -4.996   0.991  0.00  0.00    +0.091 C 
ATOM      7  C   UNL     1       0.806  -4.032   0.621  0.00  0.00    +0.164 C 
ATOM      8  O   UNL     1       1.957  -4.420   0.597  0.00  0.00    -0.292 OA
ATOM      9  N   UNL     1      -1.038  -0.919   0.015  0.00  0.00    -0.287 N 
ATOM     10  C   UNL     1       0.002  -0.004   0.002  0.00  0.00    +0.218 A 
ATOM     11  N   UNL     1       1.297  -0.405  -0.017  0.00  0.00    -0.221 N 
ATOM     12  N   UNL     1       2.071   0.754  -0.015  0.00  0.00    -0.156 NA
ATOM     13  C   UNL     1       1.238   1.765  -0.000  0.00  0.00    +0.247 A 
ATOM     14  N   UNL     1      -0.016   1.300   0.009  0.00  0.00    -0.201 NA
ATOM     15  H   UNL     1      -1.948  -0.642  -0.174  0.00  0.00    +0.155 HD
ENDROOT
BRANCH   1  19
ATOM     16  C   UNL     1       3.150  -2.802  -3.935  0.00  0.00    +0.008 A 
ATOM     17  C   UNL     1       3.983  -2.927  -2.830  0.00  0.00    +0.015 A 
ATOM     18  C   UNL     1       3.512  -2.604  -1.572  0.00  0.00    +0.007 A 
ATOM     19  C   UNL     1       2.213  -2.156  -1.413  0.00  0.00    -0.018 A 
ATOM     20  C   UNL     1       1.380  -2.035  -2.510  0.00  0.00    +0.007 A 
ATOM     21  C   UNL     1       1.846  -2.351  -3.771  0.00  0.00    +0.015 A 
BRANCH  16  23
ATOM     22  C   UNL     1       2.332  -2.894  -6.630  0.00  0.00    +0.090 C 
ATOM     23  S   UNL     1       3.747  -3.213  -5.541  0.00  0.00    -0.129 S 
ENDBRANCH  16  23
ENDBRANCH   1  19
BRANCH   5  24
ATOM     24  C   UNL     1      -2.588  -5.154   1.916  0.00  0.00    +0.109 A 
ATOM     25  C   UNL     1      -3.114  -5.396   3.131  0.00  0.00    +0.045 A 
ATOM     26  C   UNL     1      -4.159  -6.330   2.946  0.00  0.00    +0.041 A 
ATOM     27  C   UNL     1      -4.203  -6.609   1.630  0.00  0.00    +0.195 A 
ATOM     28  O   UNL     1      -3.250  -5.894   1.012  0.00  0.00    -0.468 OA
ENDBRANCH   5  24
TORSDOF 3
