REMARK  Name = ZINC29911345
REMARK  11 active torsions:
REMARK  status: ('A' for Active; 'I' for Inactive)
REMARK    1  A    between atoms: C_1  and  C_2
REMARK    2  A    between atoms: C_2  and  C_3
REMARK    3  A    between atoms: C_3  and  C_5
REMARK    4  A    between atoms: C_3  and  N_22
REMARK    5  A    between atoms: C_5  and  N_6
REMARK    6  A    between atoms: C_7  and  C_9
REMARK    7  A    between atoms: C_12  and  S_15
REMARK    8  A    between atoms: S_15  and  N_18
REMARK    9  A    between atoms: N_18  and  C_19
REMARK   10  A    between atoms: C_19  and  C_20
REMARK   11  A    between atoms: C_19  and  C_21
REMARK                            x       y       z     vdW  Elec       q    Type
REMARK                         _______ _______ _______ _____ _____    ______ ____
ROOT
ATOM      1  N   UNL     1      -1.414   1.166   2.423  0.00  0.00    -0.313 N 
ATOM      2  C   UNL     1      -1.930   1.868   3.452  0.00  0.00    +0.244 C 
ATOM      3  O   UNL     1      -1.365   2.869   3.848  0.00  0.00    -0.270 OA
ATOM      4  H   UNL     1      -1.925   0.260   2.065  0.00  0.00    +0.149 HD
ENDROOT
BRANCH   2   5
ATOM      5  C   UNL     1      -3.182   1.420   4.099  0.00  0.00    +0.037 A 
ATOM      6  C   UNL     1      -3.835   0.274   3.643  0.00  0.00    +0.015 A 
ATOM      7  C   UNL     1      -5.000  -0.141   4.254  0.00  0.00    +0.029 A 
ATOM      8  C   UNL     1      -5.527   0.581   5.310  0.00  0.00    +0.105 A 
ATOM      9  C   UNL     1      -4.886   1.721   5.763  0.00  0.00    +0.029 A 
ATOM     10  C   UNL     1      -3.718   2.144   5.165  0.00  0.00    +0.015 A 
BRANCH   8  11
ATOM     11  S   UNL     1      -7.018   0.047   6.081  0.00  0.00    +0.059 S 
ATOM     12  O   UNL     1      -7.129  -1.347   5.829  0.00  0.00    -0.153 OA
ATOM     13  O   UNL     1      -7.011   0.586   7.396  0.00  0.00    -0.153 OA
BRANCH  11  14
ATOM     14  N   UNL     1      -8.271   0.774   5.279  0.00  0.00    -0.187 NA
ATOM     15  H   UNL     1      -8.797   1.616   5.753  0.00  0.00    +0.148 HD
BRANCH  14  16
ATOM     16  C   UNL     1      -8.531   0.447   3.875  0.00  0.00    +0.070 C 
ATOM     17  C   UNL     1      -9.596  -0.649   3.795  0.00  0.00    +0.025 C 
ATOM     18  C   UNL     1      -9.027   1.695   3.143  0.00  0.00    +0.025 C 
ENDBRANCH  14  16
ENDBRANCH  11  14
ENDBRANCH   8  11
ENDBRANCH   2   5
BRANCH   1  19
ATOM     19  C   UNL     1      -0.174   1.610   1.782  0.00  0.00    +0.089 C 
BRANCH  19  20
ATOM     20  C   UNL     1       0.112   0.732   0.562  0.00  0.00    -0.051 C 
BRANCH  20  21
ATOM     21  N   UNL     1      -1.055   0.739  -0.330  0.00  0.00    +0.385 N 
ATOM     22  C   UNL     1      -1.031  -0.419  -1.238  0.00  0.00    -0.073 C 
ATOM     23  C   UNL     1      -2.415  -0.568  -1.871  0.00  0.00    +0.017 C 
ATOM     24  C   UNL     1      -2.864   0.753  -2.443  0.00  0.00    -0.048 A 
ATOM     25  C   UNL     1      -3.907   0.758  -3.357  0.00  0.00    +0.004 A 
ATOM     26  C   UNL     1      -4.351   1.945  -3.901  0.00  0.00    +0.000 A 
ATOM     27  C   UNL     1      -3.753   3.137  -3.534  0.00  0.00    +0.000 A 
ATOM     28  C   UNL     1      -2.714   3.133  -2.626  0.00  0.00    +0.002 A 
ATOM     29  C   UNL     1      -2.265   1.940  -2.079  0.00  0.00    -0.061 A 
ATOM     30  C   UNL     1      -1.123   1.986  -1.099  0.00  0.00    -0.042 C 
ATOM     31  H   UNL     1      -1.955   0.672   0.299  0.00  0.00    -0.081 HD
ENDBRANCH  20  21
BRANCH  20  33
ATOM     32  C   UNL     1       1.695   0.331  -1.328  0.00  0.00    +0.002 C 
ATOM     33  C   UNL     1       1.329   1.280  -0.186  0.00  0.00    -0.017 C 
ENDBRANCH  20  33
ENDBRANCH  19  20
ENDBRANCH   1  19
TORSDOF 8
