REMARK  Name = ZINC35396658
REMARK  10 active torsions:
REMARK  status: ('A' for Active; 'I' for Inactive)
REMARK    1  A    between atoms: C_1  and  C_2
REMARK    2  A    between atoms: C_2  and  C_3
REMARK    3  A    between atoms: C_10  and  C_38
REMARK    4  A    between atoms: C_11  and  S_15
REMARK    5  A    between atoms: S_15  and  N_18
REMARK    6  A    between atoms: C_22  and  C_25
REMARK    7  A    between atoms: N_27  and  C_28
REMARK    8  A    between atoms: C_28  and  C_29
REMARK    9  A    between atoms: C_29  and  C_31
REMARK   10  A    between atoms: C_29  and  C_32
REMARK                            x       y       z     vdW  Elec       q    Type
REMARK                         _______ _______ _______ _____ _____    ______ ____
ROOT
ATOM      1  N   UNL     1      -4.679  -1.408  -6.143  0.00  0.00    -0.176 NA
ATOM      2  C   UNL     1      -3.832  -0.947  -7.250  0.00  0.00    +0.109 C 
ATOM      3  C   UNL     1      -2.929  -2.103  -7.695  0.00  0.00    +0.018 C 
ATOM      4  C   UNL     1      -3.794  -3.320  -8.030  0.00  0.00    +0.015 C 
ATOM      5  C   UNL     1      -4.564  -3.760  -6.782  0.00  0.00    +0.091 C 
ATOM      6  C   UNL     1      -5.480  -2.627  -6.325  0.00  0.00    +0.122 C 
ENDROOT
BRANCH   5   7
ATOM      7  C   UNL     1      -5.389  -4.979  -7.104  0.00  0.00    +0.217 C 
ATOM      8  O   UNL     1      -6.595  -4.944  -6.981  0.00  0.00    -0.275 OA
ATOM      9  N   UNL     1      -4.788  -6.107  -7.530  0.00  0.00    -0.314 N 
ATOM     10  H   UNL     1      -3.823  -6.135  -7.630  0.00  0.00    +0.149 HD
BRANCH   9  11
ATOM     11  C   UNL     1      -5.590  -7.292  -7.844  0.00  0.00    +0.112 C 
BRANCH  11  12
ATOM     12  C   UNL     1      -4.670  -8.425  -8.301  0.00  0.00    +0.033 C 
ATOM     13  C   UNL     1      -3.764  -8.845  -7.142  0.00  0.00    +0.014 C 
BRANCH  12  14
ATOM     14  C   UNL     1      -5.503  -9.603  -8.740  0.00  0.00    -0.043 A 
ATOM     15  C   UNL     1      -6.368 -10.208  -7.848  0.00  0.00    +0.004 A 
ATOM     16  C   UNL     1      -7.131 -11.288  -8.250  0.00  0.00    +0.000 A 
ATOM     17  C   UNL     1      -7.030 -11.762  -9.545  0.00  0.00    +0.000 A 
ATOM     18  C   UNL     1      -6.166 -11.156 -10.437  0.00  0.00    +0.000 A 
ATOM     19  C   UNL     1      -5.405 -10.073 -10.036  0.00  0.00    +0.004 A 
ENDBRANCH  12  14
ENDBRANCH  11  12
ENDBRANCH   9  11
ENDBRANCH   5   7
BRANCH   1  20
ATOM     20  S   UNL     1      -4.727  -0.574  -4.713  0.00  0.00    +0.061 S 
ATOM     21  O   UNL     1      -6.003  -0.823  -4.140  0.00  0.00    -0.153 OA
ATOM     22  O   UNL     1      -4.261   0.739  -4.993  0.00  0.00    -0.153 OA
BRANCH  20  30
ATOM     23  C   UNL     1      -2.619  -4.338  -0.121  0.00  0.00    +0.259 C 
ATOM     24  C   UNL     1      -1.166  -3.941  -0.166  0.00  0.00    +0.258 C 
ATOM     25  O   UNL     1      -0.386  -4.391   0.647  0.00  0.00    -0.271 OA
ATOM     26  N   UNL     1      -0.735  -3.082  -1.114  0.00  0.00    -0.280 N 
ATOM     27  C   UNL     1      -1.671  -2.476  -1.963  0.00  0.00    +0.076 A 
ATOM     28  C   UNL     1      -1.255  -1.774  -3.083  0.00  0.00    +0.032 A 
ATOM     29  C   UNL     1      -2.192  -1.194  -3.919  0.00  0.00    -0.022 A 
ATOM     30  C   UNL     1      -3.541  -1.312  -3.639  0.00  0.00    +0.112 A 
ATOM     31  C   UNL     1      -3.962  -2.007  -2.521  0.00  0.00    +0.076 A 
ATOM     32  C   UNL     1      -3.030  -2.586  -1.676  0.00  0.00    +0.145 A 
ATOM     33  O   UNL     1      -3.430  -3.245  -0.557  0.00  0.00    -0.478 OA
ATOM     34  C   UNL     1      -1.740  -0.429  -5.137  0.00  0.00    +0.046 C 
ATOM     35  H   UNL     1       0.210  -2.886  -1.206  0.00  0.00    +0.155 HD
BRANCH  23  37
ATOM     36  C   UNL     1      -4.292  -6.022  -0.902  0.00  0.00    +0.008 C 
ATOM     37  C   UNL     1      -2.847  -5.539  -1.042  0.00  0.00    +0.051 C 
ENDBRANCH  23  37
ENDBRANCH  20  30
ENDBRANCH   1  20
TORSDOF 7
