REMARK  Name = ZINC07088166
REMARK  3 active torsions:
REMARK  status: ('A' for Active; 'I' for Inactive)
REMARK    1  A    between atoms: C_4  and  N_7
REMARK    2  A    between atoms: C_9  and  C_12
REMARK    3  A    between atoms: N_23  and  C_24
REMARK                            x       y       z     vdW  Elec       q    Type
REMARK                         _______ _______ _______ _____ _____    ______ ____
ROOT
ATOM      1  C   UNL     1       0.010   0.013  -0.212  0.00  0.00    +0.201 C 
ATOM      2  N   UNL     1       1.121  -0.595   0.529  0.00  0.00    -0.321 N 
ATOM      3  C   UNL     1       2.360   0.038   0.515  0.00  0.00    +0.041 A 
ATOM      4  C   UNL     1       3.542  -0.672   0.646  0.00  0.00    +0.024 A 
ATOM      5  C   UNL     1       4.748   0.002   0.638  0.00  0.00    +0.002 A 
ATOM      6  C   UNL     1       4.784   1.381   0.500  0.00  0.00    +0.001 A 
ATOM      7  C   UNL     1       3.616   2.102   0.365  0.00  0.00    +0.015 A 
ATOM      8  C   UNL     1       2.393   1.435   0.366  0.00  0.00    +0.058 A 
ATOM      9  C   UNL     1       1.119   2.157   0.200  0.00  0.00    +0.254 C 
ATOM     10  O   UNL     1       1.095   3.373   0.233  0.00  0.00    -0.270 OA
ATOM     11  N   UNL     1      -0.018   1.459   0.010  0.00  0.00    -0.244 N 
ATOM     12  H   UNL     1       0.995  -1.423   1.018  0.00  0.00    +0.148 HD
ENDROOT
BRANCH  11  13
ATOM     13  C   UNL     1      -1.247   2.130   0.019  0.00  0.00    +0.042 A 
ATOM     14  C   UNL     1      -2.182   1.852   1.008  0.00  0.00    +0.027 A 
ATOM     15  C   UNL     1      -3.395   2.514   1.018  0.00  0.00    +0.051 A 
ATOM     16  C   UNL     1      -3.682   3.456   0.043  0.00  0.00    +0.166 A 
ATOM     17  C   UNL     1      -2.746   3.737  -0.949  0.00  0.00    +0.168 A 
ATOM     18  C   UNL     1      -1.528   3.077  -0.956  0.00  0.00    +0.073 A 
ATOM     19  O   UNL     1      -3.262   4.689  -1.779  0.00  0.00    -0.453 OA
ATOM     20  C   UNL     1      -4.353   5.283  -1.051  0.00  0.00    +0.466 C 
ATOM     21  O   UNL     1      -4.785   4.233  -0.166  0.00  0.00    -0.453 OA
ENDBRANCH  11  13
BRANCH   1  24
ATOM     22  N   UNL     1       0.738  -1.213  -3.570  0.00  0.00    -0.239 N 
ATOM     23  C   UNL     1       0.800  -1.337  -2.225  0.00  0.00    +0.121 A 
ATOM     24  C   UNL     1       0.180  -0.263  -1.683  0.00  0.00    +0.029 A 
ATOM     25  C   UNL     1      -0.268   0.549  -2.731  0.00  0.00    +0.141 A 
ATOM     26  N   UNL     1       0.065  -0.019  -3.861  0.00  0.00    -0.174 NA
BRANCH  22  30
ATOM     27  C   UNL     1       2.288  -3.898  -6.357  0.00  0.00    +0.000 A 
ATOM     28  C   UNL     1       1.643  -2.753  -6.787  0.00  0.00    +0.002 A 
ATOM     29  C   UNL     1       1.129  -1.861  -5.866  0.00  0.00    +0.028 A 
ATOM     30  C   UNL     1       1.259  -2.116  -4.507  0.00  0.00    +0.065 A 
ATOM     31  C   UNL     1       1.912  -3.264  -4.079  0.00  0.00    +0.028 A 
ATOM     32  C   UNL     1       2.419  -4.155  -5.004  0.00  0.00    +0.002 A 
ENDBRANCH  22  30
ENDBRANCH   1  24
TORSDOF 3
