REMARK  Name = ZINC64873886
REMARK  11 active torsions:
REMARK  status: ('A' for Active; 'I' for Inactive)
REMARK    1  A    between atoms: C_1  and  C_2
REMARK    2  A    between atoms: C_2  and  C_3
REMARK    3  A    between atoms: C_3  and  C_5
REMARK    4  A    between atoms: C_3  and  N_6
REMARK    5  A    between atoms: N_6  and  C_7
REMARK    6  A    between atoms: N_6  and  C_30
REMARK    7  A    between atoms: C_7  and  C_8
REMARK    8  A    between atoms: C_8  and  N_9
REMARK    9  A    between atoms: C_10  and  C_12
REMARK   10  A    between atoms: N_21  and  C_29
REMARK   11  A    between atoms: C_30  and  C_31
REMARK                            x       y       z     vdW  Elec       q    Type
REMARK                         _______ _______ _______ _____ _____    ______ ____
ROOT
ATOM      1  N   UNL     1       2.450   4.079  -0.706  0.00  0.00    -0.317 N 
ATOM      2  C   UNL     1       2.559   5.027   0.246  0.00  0.00    +0.216 C 
ATOM      3  O   UNL     1       2.686   4.707   1.409  0.00  0.00    -0.276 OA
ATOM      4  H   UNL     1       2.349   4.335  -1.636  0.00  0.00    +0.149 HD
ENDROOT
BRANCH   2   5
ATOM      5  C   UNL     1       2.524   6.485  -0.135  0.00  0.00    +0.078 C 
ATOM      6  C   UNL     1       1.194   6.800  -0.822  0.00  0.00    +0.031 C 
ATOM      7  C   UNL     1       1.175   8.274  -1.238  0.00  0.00    +0.107 C 
ATOM      8  N   UNL     1       1.456   9.103  -0.058  0.00  0.00    -0.311 N 
ATOM      9  C   UNL     1       2.665   8.824   0.729  0.00  0.00    +0.107 C 
ATOM     10  C   UNL     1       2.667   7.344   1.124  0.00  0.00    +0.031 C 
ATOM     11  C   UNL     1       0.599  10.126   0.305  0.00  0.00    +0.187 A 
ATOM     12  C   UNL     1       0.985  11.066   1.375  0.00  0.00    +0.292 A 
ATOM     13  O   UNL     1       2.055  10.949   1.942  0.00  0.00    -0.264 OA
ATOM     14  N   UNL     1       0.134  12.059   1.715  0.00  0.00    -0.307 N 
ATOM     15  C   UNL     1      -1.075  12.165   1.051  0.00  0.00    +0.070 A 
ATOM     16  C   UNL     1      -1.968  13.179   1.383  0.00  0.00    +0.028 A 
ATOM     17  C   UNL     1      -3.171  13.278   0.716  0.00  0.00    +0.002 A 
ATOM     18  C   UNL     1      -3.498  12.373  -0.284  0.00  0.00    +0.002 A 
ATOM     19  C   UNL     1      -2.636  11.371  -0.625  0.00  0.00    +0.030 A 
ATOM     20  C   UNL     1      -1.406  11.249   0.038  0.00  0.00    +0.090 A 
ATOM     21  N   UNL     1      -0.551  10.262  -0.303  0.00  0.00    -0.225 NA
ATOM     22  C   UNL     1       0.487  13.009   2.773  0.00  0.00    +0.152 C 
ENDBRANCH   2   5
BRANCH   1  23
ATOM     23  C   UNL     1       2.484   2.662  -0.336  0.00  0.00    +0.085 C 
BRANCH  23  24
ATOM     24  C   UNL     1       2.342   1.803  -1.594  0.00  0.00    -0.059 C 
BRANCH  24  25
ATOM     25  N   UNL     1       2.316   0.383  -1.217  0.00  0.00    +0.385 N 
ATOM     26  H   UNL     1       3.119   0.173  -0.643  0.00  0.00    -0.081 HD
BRANCH  25  27
ATOM     27  C   UNL     1       1.087   0.099  -0.463  0.00  0.00    -0.071 C 
ATOM     28  C   UNL     1      -0.096   0.013  -1.429  0.00  0.00    -0.013 C 
BRANCH  27  30
ATOM     29  C   UNL     1       2.373  -1.119   1.299  0.00  0.00    +0.002 C 
ATOM     30  C   UNL     1       1.240  -1.231   0.278  0.00  0.00    -0.019 C 
ENDBRANCH  27  30
ENDBRANCH  25  27
BRANCH  25  31
ATOM     31  C   UNL     1       2.349  -0.446  -2.429  0.00  0.00    -0.035 C 
BRANCH  31  32
ATOM     32  C   UNL     1       2.533  -1.891  -2.044  0.00  0.00    -0.027 A 
ATOM     33  C   UNL     1       1.703  -2.943  -2.253  0.00  0.00    +0.009 A 
ATOM     34  C   UNL     1       2.083  -4.195  -1.808  0.00  0.00    +0.008 A 
ATOM     35  C   UNL     1       3.274  -4.335  -1.176  0.00  0.00    +0.045 A 
ATOM     36  S   UNL     1       3.903  -2.664  -1.201  0.00  0.00    -0.103 S 
ENDBRANCH  31  32
ENDBRANCH  25  31
ENDBRANCH  24  25
ENDBRANCH  23  24
ENDBRANCH   1  23
TORSDOF 8
