REMARK  Name = ZINC49562003
REMARK  8 active torsions:
REMARK  status: ('A' for Active; 'I' for Inactive)
REMARK    1  A    between atoms: C_1  and  C_2
REMARK    2  A    between atoms: C_2  and  C_3
REMARK    3  A    between atoms: C_2  and  C_4
REMARK    4  A    between atoms: C_4  and  C_6
REMARK    5  A    between atoms: C_4  and  N_11
REMARK    6  A    between atoms: N_11  and  C_12
REMARK    7  A    between atoms: C_15  and  C_19
REMARK    8  A    between atoms: C_17  and  N_18
REMARK                            x       y       z     vdW  Elec       q    Type
REMARK                         _______ _______ _______ _____ _____    ______ ____
ROOT
ATOM      1  C   UNL     1      -3.576   0.062  -0.933  0.00  0.00    +0.049 A 
ATOM      2  C   UNL     1      -4.223  -0.184   0.274  0.00  0.00    +0.025 A 
ATOM      3  C   UNL     1      -5.578   0.025   0.387  0.00  0.00    +0.017 A 
ATOM      4  C   UNL     1      -6.310   0.487  -0.713  0.00  0.00    +0.065 A 
ATOM      5  C   UNL     1      -5.661   0.735  -1.928  0.00  0.00    +0.039 A 
ATOM      6  C   UNL     1      -4.300   0.529  -2.034  0.00  0.00    +0.046 A 
ENDROOT
BRANCH   6   7
ATOM      7  N   UNL     1      -3.645   0.782  -3.246  0.00  0.00    -0.357 N 
ATOM      8  H   UNL     1      -2.690   0.634  -3.322  0.00  0.00    +0.142 HD
ATOM      9  H   UNL     1      -4.147   1.106  -4.010  0.00  0.00    +0.142 HD
ENDBRANCH   6   7
BRANCH   4  10
ATOM     10  C   UNL     1      -7.760   0.710  -0.593  0.00  0.00    +0.387 C 
ATOM     11  O   UNL     1      -8.326   0.492   0.470  0.00  0.00    -0.241 OA
ATOM     12  O   UNL     1      -8.399   1.113  -1.555  0.00  0.00    -0.241 OA
ENDBRANCH   4  10
BRANCH   1  13
ATOM     13  N   UNL     1      -2.205  -0.151  -1.042  0.00  0.00    -0.335 N 
ATOM     14  H   UNL     1      -1.765  -0.049  -1.901  0.00  0.00    +0.147 HD
BRANCH  13  15
ATOM     15  C   UNL     1      -1.426  -0.529   0.140  0.00  0.00    +0.110 C 
BRANCH  15  16
ATOM     16  C   UNL     1      -1.506  -2.021   0.337  0.00  0.00    +0.010 A 
ATOM     17  C   UNL     1      -1.635  -2.724   1.488  0.00  0.00    +0.013 A 
ATOM     18  C   UNL     1      -1.689  -4.104   1.429  0.00  0.00    +0.008 A 
ATOM     19  C   UNL     1      -1.610  -4.714   0.221  0.00  0.00    +0.045 A 
ATOM     20  S   UNL     1      -1.462  -3.321  -0.886  0.00  0.00    -0.100 S 
ENDBRANCH  15  16
BRANCH  15  22
ATOM     21  C   UNL     1       0.118   1.399  -0.237  0.00  0.00    +0.009 C 
ATOM     22  C   UNL     1       0.035  -0.119  -0.059  0.00  0.00    +0.008 C 
ATOM     23  C   UNL     1       0.852  -0.534   1.165  0.00  0.00    +0.009 C 
ENDBRANCH  15  22
ENDBRANCH  13  15
ENDBRANCH   1  13
TORSDOF 6
