REMARK  Name = ZINC19800680
REMARK  8 active torsions:
REMARK  status: ('A' for Active; 'I' for Inactive)
REMARK    1  A    between atoms: C_1  and  C_2
REMARK    2  A    between atoms: C_7  and  C_8
REMARK    3  A    between atoms: C_11  and  C_17
REMARK    4  A    between atoms: N_12  and  N_13
REMARK    5  A    between atoms: N_13  and  C_14
REMARK    6  A    between atoms: C_14  and  N_16
REMARK    7  A    between atoms: C_17  and  C_19
REMARK    8  A    between atoms: C_17  and  C_21
REMARK                            x       y       z     vdW  Elec       q    Type
REMARK                         _______ _______ _______ _____ _____    ______ ____
ROOT
ATOM      1  C   UNL     1      -0.159  -2.033   3.651  0.00  0.00    +0.249 C 
ATOM      2  O   UNL     1      -0.276  -2.651   4.691  0.00  0.00    -0.270 OA
ATOM      3  N   UNL     1      -0.250  -0.689   3.651  0.00  0.00    -0.267 N 
ATOM      4  C   UNL     1      -0.367  -0.002   4.849  0.00  0.00    +0.141 C 
ATOM      5  N   UNL     1      -0.578   1.274   4.846  0.00  0.00    -0.168 NA
ATOM      6  H   UNL     1      -0.233  -0.201   2.812  0.00  0.00    +0.156 HD
ENDROOT
BRANCH   1  13
ATOM      7  C   UNL     1      -0.084  -4.926   3.649  0.00  0.00    +0.044 C 
ATOM      8  C   UNL     1       0.121  -4.152   2.372  0.00  0.00    -0.038 A 
ATOM      9  C   UNL     1       0.342  -4.822   1.186  0.00  0.00    +0.004 A 
ATOM     10  C   UNL     1       0.531  -4.114   0.013  0.00  0.00    +0.000 A 
ATOM     11  C   UNL     1       0.499  -2.730   0.020  0.00  0.00    +0.001 A 
ATOM     12  C   UNL     1       0.280  -2.048   1.198  0.00  0.00    +0.013 A 
ATOM     13  C   UNL     1       0.083  -2.757   2.385  0.00  0.00    +0.040 A 
ENDBRANCH   1  13
BRANCH   5  14
ATOM     14  N   UNL     1      -0.807   1.943   3.636  0.00  0.00    -0.217 N 
ATOM     15  H   UNL     1      -0.884   1.439   2.811  0.00  0.00    +0.176 HD
BRANCH  14  16
ATOM     16  C   UNL     1      -0.921   3.286   3.620  0.00  0.00    +0.147 C 
ATOM     17  S   UNL     1      -1.200   4.103   2.142  0.00  0.00    -0.017 S 
BRANCH  16  18
ATOM     18  N   UNL     1      -0.815   3.985   4.767  0.00  0.00    -0.339 N 
ATOM     19  H   UNL     1      -0.656   3.522   5.604  0.00  0.00    +0.144 HD
ATOM     20  H   UNL     1      -0.896   4.952   4.755  0.00  0.00    +0.144 HD
ENDBRANCH  16  18
ENDBRANCH  14  16
ENDBRANCH   5  14
BRANCH   4  21
ATOM     21  C   UNL     1      -0.248  -0.743   6.157  0.00  0.00    +0.186 C 
BRANCH  21  22
ATOM     22  C   UNL     1       0.192   0.212   7.237  0.00  0.00    -0.023 A 
ATOM     23  C   UNL     1      -0.590   1.309   7.549  0.00  0.00    +0.005 A 
ATOM     24  C   UNL     1      -0.187   2.185   8.540  0.00  0.00    +0.000 A 
ATOM     25  C   UNL     1       0.997   1.964   9.218  0.00  0.00    +0.000 A 
ATOM     26  C   UNL     1       1.778   0.867   8.906  0.00  0.00    +0.000 A 
ATOM     27  C   UNL     1       1.373  -0.011   7.918  0.00  0.00    +0.005 A 
ENDBRANCH  21  22
BRANCH  21  28
ATOM     28  C   UNL     1      -1.553  -1.321   6.514  0.00  0.00    +0.078 C 
ATOM     29  N   UNL     1      -2.561  -1.766   6.790  0.00  0.00    -0.195 NA
ENDBRANCH  21  28
ENDBRANCH   4  21
TORSDOF 7
