REMARK  Name = ZINC40464424
REMARK  7 active torsions:
REMARK  status: ('A' for Active; 'I' for Inactive)
REMARK    1  A    between atoms: C_1  and  C_2
REMARK    2  A    between atoms: C_2  and  C_3
REMARK    3  A    between atoms: C_2  and  C_4
REMARK    4  A    between atoms: C_2  and  C_5
REMARK    5  A    between atoms: C_5  and  C_7
REMARK    6  A    between atoms: C_5  and  N_23
REMARK    7  A    between atoms: C_15  and  C_17
REMARK                            x       y       z     vdW  Elec       q    Type
REMARK                         _______ _______ _______ _____ _____    ______ ____
ROOT
ATOM      1  C   UNL     1       2.019   0.010  -1.370  0.00  0.00    +0.202 C 
ATOM      2  O   UNL     1       2.939  -0.763  -1.210  0.00  0.00    -0.277 OA
ATOM      3  N   UNL     1       2.267   1.301  -1.669  0.00  0.00    -0.300 N 
ATOM      4  C   UNL     1       1.164   2.226  -1.966  0.00  0.00    +0.126 C 
ATOM      5  C   UNL     1       1.265   3.430  -1.022  0.00  0.00    +0.127 C 
ATOM      6  N   UNL     1       2.644   3.938  -1.054  0.00  0.00    -0.296 N 
ATOM      7  C   UNL     1       3.747   3.013  -0.757  0.00  0.00    +0.127 C 
ATOM      8  C   UNL     1       3.645   1.811  -1.696  0.00  0.00    +0.126 C 
ATOM      9  C   UNL     1       2.892   5.228  -1.353  0.00  0.00    +0.245 C 
ATOM     10  O   UNL     1       4.036   5.614  -1.471  0.00  0.00    -0.273 OA
ENDROOT
BRANCH   9  11
ATOM     11  C   UNL     1       1.749   6.192  -1.539  0.00  0.00    +0.204 C 
ATOM     12  C   UNL     1       1.069   6.489  -0.179  0.00  0.00    +0.043 C 
ATOM     13  C   UNL     1       0.440   7.881  -0.461  0.00  0.00    +0.031 C 
ATOM     14  C   UNL     1       1.476   8.522  -1.409  0.00  0.00    +0.161 C 
ATOM     15  O   UNL     1       2.237   7.462  -2.001  0.00  0.00    -0.367 OA
ENDBRANCH   9  11
BRANCH   1  16
ATOM     16  C   UNL     1       0.597  -0.472  -1.236  0.00  0.00    +0.018 C 
BRANCH  16  18
ATOM     17  C   UNL     1       0.262   1.038   0.727  0.00  0.00    +0.009 C 
ATOM     18  C   UNL     1       0.174  -0.408   0.233  0.00  0.00    -0.042 C 
ATOM     19  C   UNL     1       1.102  -1.290   1.070  0.00  0.00    +0.009 C 
ATOM     20  C   UNL     1      -1.266  -0.907   0.371  0.00  0.00    +0.009 C 
ENDBRANCH  16  18
BRANCH  16  21
ATOM     21  N   UNL     1       0.503  -1.858  -1.713  0.00  0.00    +0.386 N 
ATOM     22  H   UNL     1       1.111  -2.445  -1.161  0.00  0.00    -0.089 HD
ATOM     23  H   UNL     1      -0.449  -2.181  -1.622  0.00  0.00    -0.089 HD
ATOM     24  H   UNL     1       0.782  -1.900  -2.681  0.00  0.00    -0.089 HD
ENDBRANCH  16  21
ENDBRANCH   1  16
TORSDOF 4
