REMARK  Name = ZINC00989086
REMARK  16 active torsions:
REMARK  status: ('A' for Active; 'I' for Inactive)
REMARK    1  A    between atoms: C_1  and  C_2
REMARK    2  A    between atoms: C_2  and  O_3
REMARK    3  A    between atoms: O_3  and  C_4
REMARK    4  A    between atoms: C_7  and  C_10
REMARK    5  A    between atoms: C_16  and  C_36
REMARK    6  A    between atoms: C_17  and  C_27
REMARK    7  A    between atoms: C_19  and  C_22
REMARK    8  A    between atoms: C_20  and  N_21
REMARK    9  A    between atoms: C_22  and  O_24
REMARK   10  A    between atoms: O_24  and  C_25
REMARK   11  A    between atoms: C_25  and  C_26
REMARK   12  A    between atoms: C_30  and  O_33
REMARK   13  A    between atoms: O_33  and  C_34
REMARK   14  A    between atoms: C_34  and  C_35
REMARK   15  A    between atoms: C_36  and  O_38
REMARK   16  A    between atoms: O_38  and  C_39
REMARK                            x       y       z     vdW  Elec       q    Type
REMARK                         _______ _______ _______ _____ _____    ______ ____
ROOT
ATOM      1  C   UNL     1      -0.030  -6.064  -2.584  0.00  0.00    +0.028 C 
ATOM      2  C   UNL     1       0.810  -6.555  -3.531  0.00  0.00    +0.079 A 
ATOM      3  C   UNL     1       1.684  -5.836  -4.464  0.00  0.00    +0.271 A 
ATOM      4  O   UNL     1       1.730  -4.620  -4.463  0.00  0.00    -0.266 OA
ATOM      5  N   UNL     1       2.435  -6.554  -5.324  0.00  0.00    -0.257 N 
ATOM      6  C   UNL     1       2.333  -7.929  -5.269  0.00  0.00    +0.100 A 
ATOM      7  C   UNL     1       3.032  -8.786  -6.076  0.00  0.00    +0.079 C 
ATOM      8  C   UNL     1       3.981  -8.193  -7.099  0.00  0.00    +0.099 C 
ATOM      9  C   UNL     1       4.060  -6.681  -7.122  0.00  0.00    +0.087 C 
ATOM     10  C   UNL     1       3.300  -5.972  -6.254  0.00  0.00    +0.115 C 
ATOM     11  S   UNL     1       1.155  -8.251  -3.971  0.00  0.00    -0.065 S 
ENDROOT
BRANCH   1  15
ATOM     12  C   UNL     1      -0.768  -1.894  -2.362  0.00  0.00    +0.121 A 
ATOM     13  C   UNL     1      -0.642  -2.638  -1.194  0.00  0.00    +0.046 A 
ATOM     14  C   UNL     1      -0.403  -3.992  -1.260  0.00  0.00    +0.011 A 
ATOM     15  C   UNL     1      -0.285  -4.620  -2.507  0.00  0.00    -0.024 A 
ATOM     16  C   UNL     1      -0.412  -3.865  -3.680  0.00  0.00    +0.011 A 
ATOM     17  C   UNL     1      -0.657  -2.513  -3.602  0.00  0.00    +0.046 A 
BRANCH  12  18
ATOM     18  O   UNL     1      -1.004  -0.559  -2.291  0.00  0.00    -0.492 OA
BRANCH  18  20
ATOM     19  C   UNL     1      -1.371   1.515  -1.106  0.00  0.00    +0.048 C 
ATOM     20  C   UNL     1      -1.106   0.013  -0.985  0.00  0.00    +0.225 C 
ENDBRANCH  18  20
ENDBRANCH  12  18
ENDBRANCH   1  15
BRANCH   8  21
ATOM     21  C   UNL     1       5.363  -8.730  -6.826  0.00  0.00    -0.035 A 
ATOM     22  C   UNL     1       5.965  -8.498  -5.603  0.00  0.00    +0.008 A 
ATOM     23  C   UNL     1       7.231  -8.988  -5.351  0.00  0.00    +0.046 A 
ATOM     24  C   UNL     1       7.899  -9.714  -6.326  0.00  0.00    +0.121 A 
ATOM     25  C   UNL     1       7.294  -9.946  -7.553  0.00  0.00    +0.046 A 
ATOM     26  C   UNL     1       6.025  -9.458  -7.798  0.00  0.00    +0.008 A 
BRANCH  24  27
ATOM     27  O   UNL     1       9.146 -10.197  -6.081  0.00  0.00    -0.492 OA
BRANCH  27  28
ATOM     28  C   UNL     1       9.774 -10.936  -7.131  0.00  0.00    +0.225 C 
ATOM     29  C   UNL     1      11.160 -11.395  -6.673  0.00  0.00    +0.048 C 
ENDBRANCH  27  28
ENDBRANCH  24  27
ENDBRANCH   8  21
BRANCH  10  30
ATOM     30  N   UNL     1       3.384  -4.605  -6.290  0.00  0.00    -0.344 N 
ATOM     31  H   UNL     1       3.395  -4.098  -5.463  0.00  0.00    +0.144 HD
ATOM     32  H   UNL     1       3.433  -4.144  -7.142  0.00  0.00    +0.144 HD
ENDBRANCH  10  30
BRANCH   9  33
ATOM     33  C   UNL     1       4.907  -6.024  -8.028  0.00  0.00    +0.339 C 
ATOM     34  O   UNL     1       5.041  -4.815  -7.971  0.00  0.00    -0.245 OA
BRANCH  33  35
ATOM     35  O   UNL     1       5.573  -6.734  -8.965  0.00  0.00    -0.462 OA
BRANCH  35  36
ATOM     36  C   UNL     1       6.418  -6.001  -9.855  0.00  0.00    +0.229 C 
ATOM     37  C   UNL     1       7.084  -6.966 -10.837  0.00  0.00    +0.048 C 
ENDBRANCH  35  36
ENDBRANCH  33  35
ENDBRANCH   9  33
BRANCH   7  38
ATOM     38  C   UNL     1       2.874 -10.174  -5.960  0.00  0.00    +0.338 C 
ATOM     39  O   UNL     1       2.107 -10.633  -5.133  0.00  0.00    -0.245 OA
BRANCH  38  40
ATOM     40  O   UNL     1       3.573 -11.003  -6.766  0.00  0.00    -0.465 OA
ATOM     41  C   UNL     1       3.363 -12.406  -6.593  0.00  0.00    +0.280 C 
ENDBRANCH  38  40
ENDBRANCH   7  38
TORSDOF 12
