REMARK  Name = ZINC01751169
REMARK  9 active torsions:
REMARK  status: ('A' for Active; 'I' for Inactive)
REMARK    1  A    between atoms: C_1  and  O_2
REMARK    2  A    between atoms: O_2  and  C_3
REMARK    3  A    between atoms: C_6  and  N_9
REMARK    4  A    between atoms: C_15  and  S_16
REMARK    5  A    between atoms: S_16  and  C_17
REMARK    6  A    between atoms: C_17  and  C_18
REMARK    7  A    between atoms: N_20  and  C_21
REMARK    8  A    between atoms: C_21  and  C_22
REMARK    9  A    between atoms: C_22  and  C_23
REMARK                            x       y       z     vdW  Elec       q    Type
REMARK                         _______ _______ _______ _____ _____    ______ ____
ROOT
ATOM      1  N   UNL     1      -4.890  -2.581   0.035  0.00  0.00    -0.256 N 
ATOM      2  C   UNL     1      -4.943  -3.928  -0.062  0.00  0.00    +0.263 A 
ATOM      3  O   UNL     1      -3.921  -4.584  -0.182  0.00  0.00    -0.267 OA
ATOM      4  C   UNL     1      -6.195  -4.554  -0.023  0.00  0.00    +0.050 A 
ATOM      5  C   UNL     1      -7.331  -3.772   0.118  0.00  0.00    +0.083 A 
ATOM      6  N   UNL     1      -7.221  -2.440   0.179  0.00  0.00    -0.222 NA
ATOM      7  C   UNL     1      -6.040  -1.856   0.148  0.00  0.00    +0.177 A 
ATOM      8  C   UNL     1      -8.651  -4.433   0.227  0.00  0.00    +0.004 A 
ATOM      9  C   UNL     1      -9.826  -3.704   0.061  0.00  0.00    +0.010 A 
ATOM     10  C   UNL     1     -11.047  -4.344   0.147  0.00  0.00    +0.001 A 
ATOM     11  C   UNL     1     -11.101  -5.704   0.396  0.00  0.00    +0.000 A 
ATOM     12  C   UNL     1      -9.936  -6.431   0.568  0.00  0.00    +0.004 A 
ATOM     13  C   UNL     1      -8.711  -5.801   0.493  0.00  0.00    -0.037 A 
ATOM     14  C   UNL     1      -7.444  -6.580   0.728  0.00  0.00    +0.047 C 
ATOM     15  C   UNL     1      -6.315  -6.046  -0.147  0.00  0.00    +0.007 C 
ATOM     16  C   UNL     1      -4.985  -6.709   0.262  0.00  0.00    +0.012 C 
ATOM     17  C   UNL     1      -4.835  -7.896  -0.722  0.00  0.00    +0.001 C 
ATOM     18  C   UNL     1      -5.380  -7.311  -2.049  0.00  0.00    +0.001 C 
ATOM     19  C   UNL     1      -6.568  -6.428  -1.614  0.00  0.00    +0.012 C 
ENDROOT
BRANCH   1  23
ATOM     20  C   UNL     1      -1.200  -0.638   0.009  0.00  0.00    +0.120 A 
ATOM     21  C   UNL     1      -1.759  -1.050   1.211  0.00  0.00    +0.047 A 
ATOM     22  C   UNL     1      -2.981  -1.693   1.220  0.00  0.00    +0.030 A 
ATOM     23  C   UNL     1      -3.650  -1.928   0.027  0.00  0.00    +0.052 A 
ATOM     24  C   UNL     1      -3.091  -1.516  -1.176  0.00  0.00    +0.030 A 
ATOM     25  C   UNL     1      -1.871  -0.868  -1.183  0.00  0.00    +0.047 A 
BRANCH  20  27
ATOM     26  C   UNL     1       0.638   0.198   1.264  0.00  0.00    +0.277 C 
ATOM     27  O   UNL     1       0.003  -0.005   0.001  0.00  0.00    -0.495 OA
ENDBRANCH  20  27
ENDBRANCH   1  23
BRANCH   7  28
ATOM     28  S   UNL     1      -5.945  -0.100   0.247  0.00  0.00    -0.078 S 
BRANCH  28  29
ATOM     29  C   UNL     1      -7.675   0.427   0.383  0.00  0.00    +0.173 C 
BRANCH  29  30
ATOM     30  C   UNL     1      -7.737   1.930   0.476  0.00  0.00    +0.223 C 
ATOM     31  O   UNL     1      -6.715   2.581   0.453  0.00  0.00    -0.275 OA
ATOM     32  N   UNL     1      -8.929   2.550   0.585  0.00  0.00    -0.314 N 
ATOM     33  H   UNL     1      -9.747   2.029   0.604  0.00  0.00    +0.149 HD
BRANCH  32  34
ATOM     34  C   UNL     1      -8.989   4.011   0.676  0.00  0.00    +0.109 C 
BRANCH  34  35
ATOM     35  C   UNL     1     -10.449   4.455   0.791  0.00  0.00    +0.054 C 
BRANCH  35  36
ATOM     36  C   UNL     1     -10.511   5.958   0.884  0.00  0.00    -0.046 A 
ATOM     37  C   UNL     1     -10.461   6.576   2.119  0.00  0.00    +0.004 A 
ATOM     38  C   UNL     1     -10.518   7.955   2.205  0.00  0.00    +0.000 A 
ATOM     39  C   UNL     1     -10.624   8.715   1.055  0.00  0.00    +0.000 A 
ATOM     40  C   UNL     1     -10.672   8.096  -0.180  0.00  0.00    +0.000 A 
ATOM     41  C   UNL     1     -10.611   6.718  -0.266  0.00  0.00    +0.004 A 
ENDBRANCH  35  36
ENDBRANCH  34  35
ENDBRANCH  32  34
ENDBRANCH  29  30
ENDBRANCH  28  29
ENDBRANCH   7  28
TORSDOF 8
