REMARK  Name = ZINC21621443
REMARK  11 active torsions:
REMARK  status: ('A' for Active; 'I' for Inactive)
REMARK    1  A    between atoms: C_1  and  N_2
REMARK    2  A    between atoms: N_2  and  C_3
REMARK    3  A    between atoms: N_2  and  C_4
REMARK    4  A    between atoms: C_7  and  C_10
REMARK    5  A    between atoms: C_10  and  C_12
REMARK    6  A    between atoms: C_10  and  C_30
REMARK    7  A    between atoms: C_12  and  N_13
REMARK    8  A    between atoms: C_14  and  C_16
REMARK    9  A    between atoms: C_16  and  C_17
REMARK   10  A    between atoms: C_17  and  C_18
REMARK   11  A    between atoms: C_18  and  N_19
REMARK                            x       y       z     vdW  Elec       q    Type
REMARK                         _______ _______ _______ _____ _____    ______ ____
ROOT
ATOM      1  C   UNL     1      -2.513   0.976   0.019  0.00  0.00    +0.068 C 
ENDROOT
BRANCH   1   2
ATOM      2  C   UNL     1      -3.303   1.321   1.255  0.00  0.00    -0.013 A 
ATOM      3  C   UNL     1      -3.744   2.539   1.607  0.00  0.00    +0.088 A 
ATOM      4  N   UNL     1      -4.427   2.464   2.791  0.00  0.00    -0.360 N 
ATOM      5  H   UNL     1      -4.867   3.371   3.230  0.00  0.00    +0.165 HD
ATOM      6  C   UNL     1      -4.434   1.164   3.245  0.00  0.00    +0.047 A 
ATOM      7  C   UNL     1      -3.731   0.391   2.303  0.00  0.00    +0.003 A 
ATOM      8  C   UNL     1      -3.577  -0.981   2.505  0.00  0.00    +0.010 A 
ATOM      9  C   UNL     1      -4.110  -1.568   3.618  0.00  0.00    +0.001 A 
ATOM     10  C   UNL     1      -4.804  -0.810   4.550  0.00  0.00    +0.002 A 
ATOM     11  C   UNL     1      -4.969   0.547   4.371  0.00  0.00    +0.026 A 
ENDBRANCH   1   2
BRANCH   1  15
ATOM     12  C   UNL     1       1.155   3.171   0.008  0.00  0.00    +0.029 A 
ATOM     13  C   UNL     1       1.174   1.782   0.000  0.00  0.00    +0.023 A 
ATOM     14  C   UNL     1      -0.013   1.076   0.008  0.00  0.00    +0.006 A 
ATOM     15  C   UNL     1      -1.220   1.750   0.017  0.00  0.00    -0.038 A 
ATOM     16  C   UNL     1      -1.243   3.133   0.031  0.00  0.00    +0.006 A 
ATOM     17  C   UNL     1      -0.060   3.845   0.023  0.00  0.00    +0.023 A 
BRANCH  12  19
ATOM     18  C   UNL     1       3.633   3.175  -0.017  0.00  0.00    +0.129 C 
ATOM     19  N   UNL     1       2.353   3.888   0.000  0.00  0.00    -0.336 N 
ATOM     20  C   UNL     1       2.330   5.353   0.008  0.00  0.00    +0.129 C 
ENDBRANCH  12  19
ENDBRANCH   1  15
BRANCH   1  21
ATOM     21  C   UNL     1      -3.327   1.341  -1.225  0.00  0.00    +0.117 C 
BRANCH  21  22
ATOM     22  N   UNL     1      -4.527   0.503  -1.286  0.00  0.00    -0.314 N 
ATOM     23  C   UNL     1      -5.399   0.648  -2.303  0.00  0.00    +0.213 C 
ATOM     24  O   UNL     1      -5.191   1.473  -3.167  0.00  0.00    -0.276 OA
ATOM     25  H   UNL     1      -4.716  -0.245  -0.502  0.00  0.00    +0.149 HD
BRANCH  23  26
ATOM     26  C   UNL     1      -6.634  -0.214  -2.366  0.00  0.00    +0.097 C 
BRANCH  26  27
ATOM     27  C   UNL     1      -7.447   0.150  -3.609  0.00  0.00    +0.031 C 
BRANCH  27  28
ATOM     28  C   UNL     1      -8.701  -0.725  -3.673  0.00  0.00    +0.127 C 
BRANCH  28  29
ATOM     29  N   UNL     1      -9.480  -0.376  -4.864  0.00  0.00    -0.299 N 
ATOM     30  C   UNL     1     -10.436   0.586  -4.784  0.00  0.00    +0.202 A 
ATOM     31  N   UNL     1     -11.164   0.955  -5.795  0.00  0.00    -0.237 NA
ATOM     32  C   UNL     1     -11.023   0.385  -7.018  0.00  0.00    +0.078 A 
ATOM     33  C   UNL     1     -11.809   0.777  -8.103  0.00  0.00    +0.028 A 
ATOM     34  C   UNL     1     -11.633   0.171  -9.327  0.00  0.00    +0.002 A 
ATOM     35  C   UNL     1     -10.680  -0.826  -9.496  0.00  0.00    +0.001 A 
ATOM     36  C   UNL     1      -9.893  -1.229  -8.441  0.00  0.00    +0.015 A 
ATOM     37  C   UNL     1     -10.056  -0.629  -7.194  0.00  0.00    +0.065 A 
ATOM     38  C   UNL     1      -9.244  -1.019  -6.031  0.00  0.00    +0.262 A 
ATOM     39  O   UNL     1      -8.394  -1.886  -6.115  0.00  0.00    -0.267 OA
ENDBRANCH  28  29
ENDBRANCH  27  28
ENDBRANCH  26  27
ENDBRANCH  23  26
ENDBRANCH  21  22
ENDBRANCH   1  21
TORSDOF 9
