REMARK  Name = ZINC00203556
REMARK  6 active torsions:
REMARK  status: ('A' for Active; 'I' for Inactive)
REMARK    1  A    between atoms: C_1  and  C_2
REMARK    2  A    between atoms: C_2  and  C_3
REMARK    3  A    between atoms: C_2  and  C_4
REMARK    4  A    between atoms: C_7  and  C_10
REMARK    5  A    between atoms: C_19  and  N_23
REMARK    6  A    between atoms: C_20  and  C_21
REMARK                            x       y       z     vdW  Elec       q    Type
REMARK                         _______ _______ _______ _____ _____    ______ ____
ROOT
ATOM      1  C   UNL     1       3.685   2.178  -0.020  0.00  0.00    +0.098 C 
ATOM      2  C   UNL     1       2.385   1.419  -0.013  0.00  0.00    +0.011 A 
ATOM      3  C   UNL     1       2.405   0.035  -0.021  0.00  0.00    +0.057 A 
ATOM      4  C   UNL     1       1.220  -0.680  -0.014  0.00  0.00    +0.167 A 
ATOM      5  C   UNL     1       0.002  -0.004   0.002  0.00  0.00    +0.170 A 
ATOM      6  C   UNL     1      -0.017   1.380   0.010  0.00  0.00    +0.096 A 
ATOM      7  C   UNL     1       1.175   2.094   0.002  0.00  0.00    +0.138 A 
ATOM      8  O   UNL     1       1.135   3.450   0.010  0.00  0.00    -0.441 OA
ATOM      9  C   UNL     1       2.211   4.155  -0.379  0.00  0.00    +0.199 C 
ATOM     10  C   UNL     1       3.450   3.608  -0.416  0.00  0.00    +0.098 C 
ATOM     11  O   UNL     1      -1.007  -0.923   0.007  0.00  0.00    -0.452 OA
ATOM     12  C   UNL     1      -0.404  -2.159  -0.418  0.00  0.00    +0.466 C 
ATOM     13  O   UNL     1       0.973  -2.024  -0.018  0.00  0.00    -0.453 OA
ENDROOT
BRANCH   1  17
ATOM     14  C   UNL     1       5.411   2.065   3.886  0.00  0.00    -0.045 A 
ATOM     15  C   UNL     1       6.101   1.539   2.810  0.00  0.00    +0.004 A 
ATOM     16  C   UNL     1       5.542   1.575   1.546  0.00  0.00    +0.005 A 
ATOM     17  C   UNL     1       4.294   2.138   1.358  0.00  0.00    -0.035 A 
ATOM     18  C   UNL     1       3.606   2.670   2.433  0.00  0.00    +0.005 A 
ATOM     19  C   UNL     1       4.163   2.629   3.698  0.00  0.00    +0.004 A 
BRANCH  14  21
ATOM     20  C   UNL     1       6.174   3.452   5.795  0.00  0.00    +0.012 C 
ATOM     21  C   UNL     1       6.020   2.025   5.264  0.00  0.00    +0.013 C 
ATOM     22  C   UNL     1       5.110   1.228   6.200  0.00  0.00    +0.012 C 
ENDBRANCH  14  21
ENDBRANCH   1  17
BRANCH   9  23
ATOM     23  N   UNL     1       2.050   5.466  -0.750  0.00  0.00    -0.328 N 
ATOM     24  H   UNL     1       2.818   5.988  -1.032  0.00  0.00    +0.145 HD
ATOM     25  H   UNL     1       1.169   5.872  -0.729  0.00  0.00    +0.145 HD
ENDBRANCH   9  23
BRANCH  10  26
ATOM     26  C   UNL     1       4.558   4.410  -0.840  0.00  0.00    +0.101 C 
ATOM     27  N   UNL     1       5.437   5.047  -1.176  0.00  0.00    -0.191 NA
ENDBRANCH  10  26
TORSDOF 4
