REMARK  Name = ZINC13499399
REMARK  10 active torsions:
REMARK  status: ('A' for Active; 'I' for Inactive)
REMARK    1  A    between atoms: C_1  and  C_2
REMARK    2  A    between atoms: C_2  and  C_3
REMARK    3  A    between atoms: C_3  and  C_4
REMARK    4  A    between atoms: C_4  and  C_6
REMARK    5  A    between atoms: C_4  and  N_72
REMARK    6  A    between atoms: N_10  and  C_11
REMARK    7  A    between atoms: C_11  and  C_12
REMARK    8  A    between atoms: C_18  and  C_19
REMARK    9  A    between atoms: C_18  and  N_72
REMARK   10  A    between atoms: C_35  and  N_72
REMARK                            x       y       z     vdW  Elec       q    Type
REMARK                         _______ _______ _______ _____ _____    ______ ____
ROOT
ATOM      1  N   UNL     1      -0.592   1.675   1.584  0.00  0.00    +0.391 N 
ATOM      2  H   UNL     1      -0.123   1.469   2.474  0.00  0.00    -0.080 HD
ENDROOT
BRANCH   1   3
ATOM      3  C   UNL     1       0.141   1.006   0.489  0.00  0.00    -0.067 C 
ATOM      4  C   UNL     1      -0.128   1.687  -0.876  0.00  0.00    -0.015 C 
ATOM      5  C   UNL     1       1.120   1.295  -1.705  0.00  0.00    -0.002 C 
ATOM      6  C   UNL     1       2.283   1.356  -0.693  0.00  0.00    -0.002 C 
ATOM      7  C   UNL     1       1.660   1.173   0.703  0.00  0.00    -0.015 C 
ENDBRANCH   1   3
BRANCH   1   8
ATOM      8  C   UNL     1      -1.980   1.170   1.645  0.00  0.00    +0.003 C 
BRANCH   8   9
ATOM      9  C   UNL     1      -2.837   1.859   0.615  0.00  0.00    +0.138 A 
ATOM     10  N   UNL     1      -2.564   2.006  -0.659  0.00  0.00    -0.115 NA
ATOM     11  N   UNL     1      -3.540   2.647  -1.204  0.00  0.00    -0.023 NA
ATOM     12  N   UNL     1      -4.428   2.912  -0.311  0.00  0.00    -0.044 NA
ATOM     13  N   UNL     1      -4.034   2.438   0.822  0.00  0.00    -0.226 N 
BRANCH  13  14
ATOM     14  C   UNL     1      -4.753   2.518   2.097  0.00  0.00    +0.182 C 
BRANCH  14  15
ATOM     15  C   UNL     1      -4.459   3.841   2.756  0.00  0.00    -0.026 A 
ATOM     16  C   UNL     1      -3.337   3.983   3.551  0.00  0.00    +0.005 A 
ATOM     17  C   UNL     1      -3.065   5.198   4.152  0.00  0.00    +0.000 A 
ATOM     18  C   UNL     1      -3.921   6.268   3.968  0.00  0.00    +0.000 A 
ATOM     19  C   UNL     1      -5.046   6.124   3.177  0.00  0.00    +0.000 A 
ATOM     20  C   UNL     1      -5.315   4.911   2.572  0.00  0.00    +0.005 A 
ENDBRANCH  14  15
ENDBRANCH  13  14
ENDBRANCH   8   9
BRANCH   8  21
ATOM     21  C   UNL     1      -1.981  -0.338   1.383  0.00  0.00    -0.008 C 
BRANCH  21  23
ATOM     22  C   UNL     1      -1.010  -2.527   2.095  0.00  0.00    +0.004 C 
ATOM     23  C   UNL     1      -1.110  -1.037   2.429  0.00  0.00    -0.005 C 
ENDBRANCH  21  23
ENDBRANCH   8  21
ENDBRANCH   1   8
BRANCH   1  24
ATOM     24  C   UNL     1      -0.596   3.137   1.371  0.00  0.00    -0.036 C 
BRANCH  24  25
ATOM     25  C   UNL     1       0.782   3.673   1.665  0.00  0.00    +0.001 A 
ATOM     26  C   UNL     1       1.616   3.991   0.643  0.00  0.00    +0.017 A 
ATOM     27  C   UNL     1       2.945   4.513   0.961  0.00  0.00    +0.002 A 
ATOM     28  C   UNL     1       3.846   4.862  -0.052  0.00  0.00    +0.059 A 
ATOM     29  C   UNL     1       5.093   5.349   0.278  0.00  0.00    +0.163 A 
ATOM     30  C   UNL     1       5.459   5.494   1.619  0.00  0.00    +0.164 A 
ATOM     31  C   UNL     1       4.575   5.151   2.628  0.00  0.00    +0.075 A 
ATOM     32  C   UNL     1       3.315   4.659   2.312  0.00  0.00    +0.053 A 
ATOM     33  N   UNL     1       2.421   4.311   3.304  0.00  0.00    -0.322 N 
ATOM     34  H   UNL     1       2.678   4.410   4.235  0.00  0.00    +0.169 HD
ATOM     35  C   UNL     1       1.201   3.837   3.001  0.00  0.00    +0.251 A 
ATOM     36  O   UNL     1       0.437   3.540   3.904  0.00  0.00    -0.268 OA
ATOM     37  O   UNL     1       6.686   5.978   1.954  0.00  0.00    -0.485 OA
ATOM     38  C   UNL     1       7.686   5.961   0.930  0.00  0.00    +0.270 C 
ATOM     39  C   UNL     1       7.064   6.517  -0.358  0.00  0.00    +0.270 C 
ATOM     40  O   UNL     1       5.959   5.682  -0.719  0.00  0.00    -0.485 OA
ENDBRANCH  24  25
ENDBRANCH   1  24
TORSDOF 9
