REMARK  Name = ZINC29145138
REMARK  11 active torsions:
REMARK  status: ('A' for Active; 'I' for Inactive)
REMARK    1  A    between atoms: C_1  and  C_2
REMARK    2  A    between atoms: C_2  and  C_4
REMARK    3  A    between atoms: C_2  and  N_32
REMARK    4  A    between atoms: C_7  and  S_16
REMARK    5  A    between atoms: N_8  and  C_9
REMARK    6  A    between atoms: S_16  and  C_17
REMARK    7  A    between atoms: C_17  and  C_19
REMARK    8  A    between atoms: C_17  and  C_20
REMARK    9  A    between atoms: N_25  and  C_26
REMARK   10  A    between atoms: N_32  and  C_33
REMARK   11  A    between atoms: N_32  and  C_34
REMARK                            x       y       z     vdW  Elec       q    Type
REMARK                         _______ _______ _______ _____ _____    ______ ____
ROOT
ATOM      1  C   UNL     1      -9.294  -1.076   0.726  0.00  0.00    +0.125 A 
ATOM      2  N   UNL     1      -8.321  -1.914   0.507  0.00  0.00    -0.135 NA
ATOM      3  N   UNL     1      -7.225  -1.275   0.298  0.00  0.00    -0.122 NA
ATOM      4  C   UNL     1      -7.439   0.018   0.382  0.00  0.00    +0.197 A 
ATOM      5  N   UNL     1      -8.768   0.187   0.655  0.00  0.00    -0.275 N 
ENDROOT
BRANCH   5   6
ATOM      6  C   UNL     1      -9.451   1.401   0.825  0.00  0.00    +0.050 A 
ATOM      7  C   UNL     1     -10.011   1.716   2.056  0.00  0.00    +0.029 A 
ATOM      8  C   UNL     1     -10.678   2.914   2.223  0.00  0.00    +0.040 A 
ATOM      9  C   UNL     1     -10.798   3.795   1.162  0.00  0.00    +0.124 A 
ATOM     10  C   UNL     1     -10.244   3.480  -0.068  0.00  0.00    +0.040 A 
ATOM     11  C   UNL     1      -9.572   2.285  -0.237  0.00  0.00    +0.029 A 
ATOM     12  F   UNL     1     -11.456   4.964   1.326  0.00  0.00    -0.205 F 
ENDBRANCH   5   6
BRANCH   1  14
ATOM     13  C   UNL     1     -11.410  -1.875  -0.291  0.00  0.00    -0.005 C 
ATOM     14  C   UNL     1     -10.732  -1.430   1.007  0.00  0.00    -0.003 C 
BRANCH  14  15
ATOM     15  N   UNL     1     -10.785  -2.523   1.987  0.00  0.00    +0.382 N 
ATOM     16  C   UNL     1     -10.061  -2.165   3.214  0.00  0.00    -0.096 C 
ATOM     17  C   UNL     1     -12.174  -2.896   2.285  0.00  0.00    -0.096 C 
ATOM     18  H   UNL     1     -10.288  -3.398   1.544  0.00  0.00    -0.082 HD
ENDBRANCH  14  15
ENDBRANCH   1  14
BRANCH   4  19
ATOM     19  S   UNL     1      -6.241   1.293   0.174  0.00  0.00    -0.073 S 
BRANCH  19  20
ATOM     20  C   UNL     1      -4.768   0.292  -0.150  0.00  0.00    +0.137 C 
ATOM     21  C   UNL     1      -4.945  -0.464  -1.468  0.00  0.00    +0.029 C 
BRANCH  20  22
ATOM     22  C   UNL     1      -3.561   1.189  -0.243  0.00  0.00    +0.234 C 
ATOM     23  O   UNL     1      -3.701   2.372  -0.468  0.00  0.00    -0.274 OA
ATOM     24  N   UNL     1      -2.326   0.676  -0.076  0.00  0.00    -0.239 N 
ATOM     25  C   UNL     1      -1.246   1.478  -0.160  0.00  0.00    +0.310 C 
ATOM     26  O   UNL     1      -1.387   2.664  -0.385  0.00  0.00    -0.252 OA
ATOM     27  N   UNL     1      -0.011   0.966   0.007  0.00  0.00    -0.269 N 
ATOM     28  H   UNL     1      -2.199  -0.397   0.128  0.00  0.00    +0.159 HD
ATOM     29  H   UNL     1       0.122  -0.119   0.128  0.00  0.00    +0.156 HD
BRANCH  27  30
ATOM     30  C   UNL     1       1.102   1.814   0.027  0.00  0.00    +0.035 A 
ATOM     31  C   UNL     1       2.319   1.376  -0.477  0.00  0.00    +0.023 A 
ATOM     32  C   UNL     1       3.415   2.217  -0.459  0.00  0.00    +0.002 A 
ATOM     33  C   UNL     1       3.302   3.491   0.068  0.00  0.00    +0.000 A 
ATOM     34  C   UNL     1       2.092   3.928   0.576  0.00  0.00    +0.002 A 
ATOM     35  C   UNL     1       0.992   3.093   0.557  0.00  0.00    +0.023 A 
ENDBRANCH  27  30
ENDBRANCH  20  22
ENDBRANCH  19  20
ENDBRANCH   4  19
TORSDOF 7
