REMARK  Name = ZINC36589835
REMARK  8 active torsions:
REMARK  status: ('A' for Active; 'I' for Inactive)
REMARK    1  A    between atoms: C_7  and  C_11
REMARK    2  A    between atoms: C_11  and  C_12
REMARK    3  A    between atoms: C_12  and  N_13
REMARK    4  A    between atoms: C_16  and  C_21
REMARK    5  A    between atoms: C_19  and  O_20
REMARK    6  A    between atoms: C_21  and  C_22
REMARK    7  A    between atoms: C_22  and  C_23
REMARK    8  A    between atoms: N_25  and  C_26
REMARK                            x       y       z     vdW  Elec       q    Type
REMARK                         _______ _______ _______ _____ _____    ______ ____
ROOT
ATOM      1  N   UNL     1      -0.675  -4.736  -1.452  0.00  0.00    -0.224 N 
ATOM      2  C   UNL     1      -0.287  -6.025  -1.554  0.00  0.00    +0.248 C 
ATOM      3  O   UNL     1       0.844  -6.449  -1.663  0.00  0.00    -0.273 OA
ATOM      4  C   UNL     1      -1.572  -6.828  -1.503  0.00  0.00    +0.197 C 
ATOM      5  N   UNL     1      -2.622  -5.805  -1.367  0.00  0.00    -0.224 NA
ATOM      6  C   UNL     1      -2.039  -4.649  -1.339  0.00  0.00    +0.285 C 
ENDROOT
BRANCH   6   7
ATOM      7  O   UNL     1      -2.705  -3.480  -1.216  0.00  0.00    -0.481 OA
ATOM      8  H   UNL     1      -3.664  -3.579  -1.146  0.00  0.00    +0.295 HD
ENDBRANCH   6   7
BRANCH   1   9
ATOM      9  C   UNL     1       0.236  -3.589  -1.455  0.00  0.00    +0.123 C 
BRANCH   9  10
ATOM     10  C   UNL     1       0.666  -3.275  -0.021  0.00  0.00    +0.057 C 
BRANCH  10  17
ATOM     11  C   UNL     1      -0.017   1.362   0.009  0.00  0.00    +0.001 A 
ATOM     12  C   UNL     1       1.170   2.083   0.002  0.00  0.00    +0.002 A 
ATOM     13  C   UNL     1       2.386   1.436  -0.013  0.00  0.00    +0.026 A 
ATOM     14  C   UNL     1       2.428   0.046  -0.021  0.00  0.00    +0.047 A 
ATOM     15  C   UNL     1       1.223  -0.681  -0.013  0.00  0.00    +0.003 A 
ATOM     16  C   UNL     1       0.002  -0.004   0.002  0.00  0.00    +0.010 A 
ATOM     17  C   UNL     1       1.604  -2.095  -0.025  0.00  0.00    -0.021 A 
ATOM     18  C   UNL     1       2.945  -2.141  -0.038  0.00  0.00    +0.087 A 
ATOM     19  N   UNL     1       3.455  -0.871  -0.036  0.00  0.00    -0.360 N 
ATOM     20  H   UNL     1       4.399  -0.650  -0.044  0.00  0.00    +0.165 HD
ENDBRANCH  10  17
ENDBRANCH   9  10
ENDBRANCH   1   9
BRANCH   4  21
ATOM     21  C   UNL     1      -1.572  -7.766  -0.295  0.00  0.00    +0.045 C 
BRANCH  21  22
ATOM     22  C   UNL     1      -2.820  -8.651  -0.336  0.00  0.00    +0.098 C 
BRANCH  22  23
ATOM     23  C   UNL     1      -2.819  -9.575   0.855  0.00  0.00    +0.213 C 
ATOM     24  O   UNL     1      -1.911  -9.530   1.657  0.00  0.00    -0.276 OA
ATOM     25  N   UNL     1      -3.829 -10.451   1.028  0.00  0.00    -0.312 N 
ATOM     26  H   UNL     1      -4.555 -10.487   0.386  0.00  0.00    +0.149 HD
BRANCH  25  27
ATOM     27  C   UNL     1      -3.828 -11.350   2.185  0.00  0.00    +0.073 C 
ATOM     28  C   UNL     1      -2.998 -12.594   1.864  0.00  0.00    +0.022 C 
ATOM     29  C   UNL     1      -2.663 -13.332   3.162  0.00  0.00    +0.002 C 
ATOM     30  C   UNL     1      -2.227 -12.323   4.225  0.00  0.00    +0.000 C 
ATOM     31  C   UNL     1      -3.269 -12.278   5.345  0.00  0.00    +0.000 C 
ATOM     32  C   UNL     1      -4.493 -11.493   4.870  0.00  0.00    +0.000 C 
ATOM     33  C   UNL     1      -5.318 -12.360   3.917  0.00  0.00    +0.002 C 
ATOM     34  C   UNL     1      -5.265 -11.764   2.509  0.00  0.00    +0.022 C 
ENDBRANCH  25  27
ENDBRANCH  22  23
ENDBRANCH  21  22
ENDBRANCH   4  21
TORSDOF 8
