REMARK  Name = ZINC35474905
REMARK  7 active torsions:
REMARK  status: ('A' for Active; 'I' for Inactive)
REMARK    1  A    between atoms: C_1  and  C_2
REMARK    2  A    between atoms: C_4  and  C_25
REMARK    3  A    between atoms: C_5  and  C_9
REMARK    4  A    between atoms: C_7  and  C_8
REMARK    5  A    between atoms: N_14  and  C_17
REMARK    6  A    between atoms: N_18  and  C_22
REMARK    7  A    between atoms: C_22  and  C_23
REMARK                            x       y       z     vdW  Elec       q    Type
REMARK                         _______ _______ _______ _____ _____    ______ ____
ROOT
ATOM      1  C   UNL     1       0.207  -4.235  -0.451  0.00  0.00    +0.142 C 
ATOM      2  C   UNL     1       1.656  -4.569  -0.744  0.00  0.00    +0.058 C 
ATOM      3  C   UNL     1       2.269  -5.460   0.061  0.00  0.00    +0.043 C 
ATOM      4  C   UNL     1       3.683  -5.599  -0.458  0.00  0.00    +0.159 C 
ATOM      5  N   UNL     1       3.752  -4.694  -1.615  0.00  0.00    -0.295 N 
ATOM      6  C   UNL     1       2.544  -4.116  -1.742  0.00  0.00    +0.246 C 
ATOM      7  O   UNL     1       2.255  -3.308  -2.605  0.00  0.00    -0.270 OA
ATOM      8  C   UNL     1       4.919  -4.465  -2.471  0.00  0.00    +0.132 C 
ATOM      9  N   UNL     1       1.610  -6.041   1.106  0.00  0.00    -0.253 N 
ATOM     10  C   UNL     1       0.331  -5.783   1.411  0.00  0.00    +0.307 C 
ATOM     11  O   UNL     1      -0.173  -6.349   2.361  0.00  0.00    -0.252 OA
ATOM     12  N   UNL     1      -0.414  -4.915   0.698  0.00  0.00    -0.288 N 
ATOM     13  H   UNL     1      -1.338  -4.743   0.937  0.00  0.00    +0.151 HD
ENDROOT
BRANCH   1  18
ATOM     14  C   UNL     1      -0.164   1.462   0.443  0.00  0.00    +0.044 C 
ATOM     15  C   UNL     1      -0.067  -0.024   0.209  0.00  0.00    -0.047 A 
ATOM     16  C   UNL     1      -1.173  -0.728  -0.230  0.00  0.00    +0.007 A 
ATOM     17  C   UNL     1      -1.084  -2.090  -0.444  0.00  0.00    -0.045 A 
ATOM     18  C   UNL     1       0.111  -2.749  -0.219  0.00  0.00    -0.019 A 
ATOM     19  C   UNL     1       1.216  -2.045   0.220  0.00  0.00    +0.009 A 
ATOM     20  C   UNL     1       1.129  -0.681   0.429  0.00  0.00    -0.047 A 
ATOM     21  C   UNL     1       2.336   0.087   0.902  0.00  0.00    +0.044 C 
ATOM     22  C   UNL     1      -2.289  -2.858  -0.921  0.00  0.00    +0.044 C 
ENDBRANCH   1  18
BRANCH   9  23
ATOM     23  C   UNL     1       2.340  -6.999   1.939  0.00  0.00    +0.141 C 
BRANCH  23  24
ATOM     24  C   UNL     1       3.008  -6.270   3.077  0.00  0.00    -0.015 C 
ATOM     25  C   UNL     1       2.782  -6.639   4.313  0.00  0.00    +0.005 C 
ENDBRANCH  23  24
ENDBRANCH   9  23
TORSDOF 3
