REMARK  Name = ZINC20479523
REMARK  11 active torsions:
REMARK  status: ('A' for Active; 'I' for Inactive)
REMARK    1  A    between atoms: C_1  and  C_2
REMARK    2  A    between atoms: C_2  and  C_3
REMARK    3  A    between atoms: C_2  and  C_4
REMARK    4  A    between atoms: C_2  and  O_5
REMARK    5  A    between atoms: O_5  and  C_6
REMARK    6  A    between atoms: N_8  and  C_9
REMARK    7  A    between atoms: C_9  and  C_11
REMARK    8  A    between atoms: C_9  and  C_23
REMARK    9  A    between atoms: C_11  and  C_12
REMARK   10  A    between atoms: N_25  and  N_26
REMARK   11  A    between atoms: C_27  and  C_28
REMARK                            x       y       z     vdW  Elec       q    Type
REMARK                         _______ _______ _______ _____ _____    ______ ____
ROOT
ATOM      1  C   UNL     1       1.562   3.897   1.450  0.00  0.00    +0.164 C 
ENDROOT
BRANCH   1   4
ATOM      2  C   UNL     1       3.992   3.762   1.577  0.00  0.00    +0.401 C 
ATOM      3  O   UNL     1       4.055   4.470   0.591  0.00  0.00    -0.226 OA
ATOM      4  N   UNL     1       2.791   3.377   2.054  0.00  0.00    -0.270 N 
ATOM      5  H   UNL     1       2.735   2.672   2.896  0.00  0.00    +0.153 HD
BRANCH   2   6
ATOM      6  O   UNL     1       5.120   3.363   2.193  0.00  0.00    -0.445 OA
BRANCH   6   8
ATOM      7  C   UNL     1       6.421   5.346   1.637  0.00  0.00    +0.055 C 
ATOM      8  C   UNL     1       6.377   3.816   1.624  0.00  0.00    +0.107 C 
ATOM      9  C   UNL     1       7.540   3.266   2.453  0.00  0.00    +0.055 C 
ATOM     10  C   UNL     1       6.496   3.314   0.184  0.00  0.00    +0.055 C 
ENDBRANCH   6   8
ENDBRANCH   2   6
ENDBRANCH   1   4
BRANCH   1  11
ATOM     11  C   UNL     1       1.510   5.392   1.625  0.00  0.00    +0.253 C 
ATOM     12  O   UNL     1       2.527   6.012   1.855  0.00  0.00    -0.272 OA
ATOM     13  N   UNL     1       0.333   6.042   1.526  0.00  0.00    -0.205 N 
ATOM     14  H   UNL     1      -0.589   5.480   1.318  0.00  0.00    +0.177 HD
BRANCH  13  15
ATOM     15  N   UNL     1       0.284   7.433   1.690  0.00  0.00    -0.187 NA
ATOM     16  C   UNL     1      -0.849   8.058   1.594  0.00  0.00    +0.145 C 
BRANCH  16  17
ATOM     17  C   UNL     1      -0.900   9.520   1.766  0.00  0.00    +0.077 A 
ATOM     18  C   UNL     1      -2.083  10.192   1.669  0.00  0.00    +0.209 A 
ATOM     19  O   UNL     1      -2.170  11.515   1.817  0.00  0.00    -0.462 OA
ATOM     20  C   UNL     1      -1.109  12.304   2.075  0.00  0.00    +0.138 A 
ATOM     21  C   UNL     1      -1.269  13.678   2.219  0.00  0.00    +0.047 A 
ATOM     22  C   UNL     1      -0.177  14.476   2.482  0.00  0.00    +0.004 A 
ATOM     23  C   UNL     1       1.090  13.925   2.607  0.00  0.00    +0.001 A 
ATOM     24  C   UNL     1       1.272  12.566   2.469  0.00  0.00    +0.015 A 
ATOM     25  C   UNL     1       0.175  11.748   2.201  0.00  0.00    +0.065 A 
ATOM     26  C   UNL     1       0.326  10.288   2.052  0.00  0.00    +0.201 A 
ATOM     27  O   UNL     1       1.411   9.744   2.155  0.00  0.00    -0.286 OA
ENDBRANCH  16  17
ENDBRANCH  13  15
ENDBRANCH   1  11
BRANCH   1  28
ATOM     28  C   UNL     1       1.543   3.557  -0.042  0.00  0.00    +0.041 C 
BRANCH  28  29
ATOM     29  C   UNL     1       1.487   2.061  -0.216  0.00  0.00    +0.041 C 
ATOM     30  C   UNL     1       2.522   1.279  -0.406  0.00  0.00    +0.082 C 
ATOM     31  N   UNL     1       2.199  -0.056  -0.537  0.00  0.00    -0.288 NA
ATOM     32  C   UNL     1       0.743  -0.219  -0.420  0.00  0.00    +0.135 C 
ATOM     33  C   UNL     1       0.228   1.225  -0.199  0.00  0.00    +0.048 C 
ATOM     34  C   UNL     1      -0.699   1.787  -1.253  0.00  0.00    -0.020 C 
ATOM     35  C   UNL     1      -1.032   1.051  -2.301  0.00  0.00    -0.004 C 
ATOM     36  C   UNL     1      -0.547  -0.312  -2.509  0.00  0.00    -0.002 C 
ATOM     37  C   UNL     1       0.281  -0.923  -1.676  0.00  0.00    -0.000 C 
ENDBRANCH  28  29
ENDBRANCH   1  28
TORSDOF 8
