REMARK  Name = ZINC01397478
REMARK  6 active torsions:
REMARK  status: ('A' for Active; 'I' for Inactive)
REMARK    1  A    between atoms: C_4  and  C_7
REMARK    2  A    between atoms: C_11  and  C_13
REMARK    3  A    between atoms: C_16  and  C_19
REMARK    4  A    between atoms: C_19  and  N_20
REMARK    5  A    between atoms: N_20  and  C_21
REMARK    6  A    between atoms: C_24  and  C_26
REMARK                            x       y       z     vdW  Elec       q    Type
REMARK                         _______ _______ _______ _____ _____    ______ ____
ROOT
ATOM      1  C   UNL     1      -1.299   2.061   0.019  0.00  0.00    +0.109 C 
ATOM      2  N   UNL     1      -1.437   3.343   0.027  0.00  0.00    -0.087 NA
ATOM      3  O   UNL     1      -2.790   3.751   0.028  0.00  0.00    -0.388 OA
ATOM      4  C   UNL     1      -3.586   2.619   0.434  0.00  0.00    +0.227 C 
ATOM      5  C   UNL     1      -2.681   1.434   0.017  0.00  0.00    +0.109 C 
ENDROOT
BRANCH   1  10
ATOM      6  C   UNL     1       1.151  -0.662  -0.013  0.00  0.00    +0.160 A 
ATOM      7  N   UNL     1       2.317  -0.030  -0.020  0.00  0.00    -0.236 NA
ATOM      8  C   UNL     1       2.376   1.290  -0.013  0.00  0.00    +0.115 A 
ATOM      9  C   UNL     1       1.199   2.021   0.002  0.00  0.00    +0.049 A 
ATOM     10  C   UNL     1      -0.016   1.327   0.009  0.00  0.00    +0.092 A 
ATOM     11  N   UNL     1       0.002  -0.004   0.002  0.00  0.00    -0.226 NA
BRANCH   6  15
ATOM     12  C   UNL     1       1.100  -4.914  -0.033  0.00  0.00    +0.000 A 
ATOM     13  C   UNL     1       2.308  -4.239  -0.042  0.00  0.00    +0.001 A 
ATOM     14  C   UNL     1       2.330  -2.859  -0.035  0.00  0.00    +0.011 A 
ATOM     15  C   UNL     1       1.133  -2.146  -0.020  0.00  0.00    +0.019 A 
ATOM     16  C   UNL     1      -0.081  -2.831  -0.006  0.00  0.00    +0.011 A 
ATOM     17  C   UNL     1      -0.091  -4.211  -0.018  0.00  0.00    +0.001 A 
ENDBRANCH   6  15
ENDBRANCH   1  10
BRANCH   4  18
ATOM     18  C   UNL     1      -4.914   2.583  -0.326  0.00  0.00    +0.150 C 
BRANCH  18  19
ATOM     19  N   UNL     1      -5.682   3.794  -0.025  0.00  0.00    -0.326 N 
ATOM     20  H   UNL     1      -5.319   4.461   0.578  0.00  0.00    +0.148 HD
BRANCH  19  21
ATOM     21  C   UNL     1      -6.932   3.986  -0.603  0.00  0.00    +0.115 A 
ATOM     22  C   UNL     1      -7.659   5.137  -0.309  0.00  0.00    +0.079 A 
ATOM     23  C   UNL     1      -8.899   5.317  -0.896  0.00  0.00    +0.037 A 
ATOM     24  C   UNL     1      -9.376   4.333  -1.753  0.00  0.00    +0.072 A 
ATOM     25  C   UNL     1      -8.604   3.216  -1.995  0.00  0.00    +0.096 A 
ATOM     26 CL   UNL     1      -7.017   6.330   0.776  0.00  0.00    -0.080 Cl
ATOM     27  N   UNL     1      -7.380   3.007  -1.441  0.00  0.00    -0.348 N 
ATOM     28  H   UNL     1      -6.827   2.165  -1.640  0.00  0.00    +0.167 HD
BRANCH  24  29
ATOM     29  C   UNL     1     -10.723   4.485  -2.410  0.00  0.00    +0.419 C 
ATOM     30  F   UNL     1     -10.975   3.372  -3.220  0.00  0.00    -0.166 F 
ATOM     31  F   UNL     1     -11.714   4.581  -1.427  0.00  0.00    -0.166 F 
ATOM     32  F   UNL     1     -10.732   5.644  -3.195  0.00  0.00    -0.166 F 
ENDBRANCH  24  29
ENDBRANCH  19  21
ENDBRANCH  18  19
ENDBRANCH   4  18
TORSDOF 6
