REMARK  Name = ZINC65480478
REMARK  7 active torsions:
REMARK  status: ('A' for Active; 'I' for Inactive)
REMARK    1  A    between atoms: C_1  and  C_2
REMARK    2  A    between atoms: N_5  and  C_8
REMARK    3  A    between atoms: C_8  and  C_9
REMARK    4  A    between atoms: C_8  and  C_10
REMARK    5  A    between atoms: C_10  and  N_11
REMARK    6  A    between atoms: N_17  and  C_20
REMARK    7  A    between atoms: C_20  and  C_21
REMARK                            x       y       z     vdW  Elec       q    Type
REMARK                         _______ _______ _______ _____ _____    ______ ____
ROOT
ATOM      1  N   UNL     1       1.651  -3.736  -2.468  0.00  0.00    -0.301 N 
ATOM      2  C   UNL     1       1.989  -4.060  -3.732  0.00  0.00    +0.302 C 
ATOM      3  O   UNL     1       2.939  -4.789  -3.940  0.00  0.00    -0.253 OA
ATOM      4  N   UNL     1       1.273  -3.575  -4.766  0.00  0.00    -0.283 N 
ATOM      5  C   UNL     1       1.552  -4.005  -6.145  0.00  0.00    +0.124 C 
ATOM      6  C   UNL     1       0.236  -4.454  -6.790  0.00  0.00    +0.104 C 
ATOM      7  N   UNL     1      -0.759  -3.381  -6.663  0.00  0.00    -0.295 NA
ATOM      8  C   UNL     1      -1.069  -3.105  -5.254  0.00  0.00    +0.104 C 
ATOM      9  C   UNL     1       0.190  -2.605  -4.546  0.00  0.00    +0.124 C 
ATOM     10  H   UNL     1       0.939  -3.098  -2.305  0.00  0.00    +0.150 HD
ENDROOT
BRANCH   1  11
ATOM     11  C   UNL     1       2.358  -4.349  -1.341  0.00  0.00    +0.090 C 
BRANCH  11  12
ATOM     12  C   UNL     1       1.709  -3.904  -0.029  0.00  0.00    -0.054 C 
ATOM     13  C   UNL     1       2.499  -4.475   1.150  0.00  0.00    -0.012 C 
BRANCH  12  18
ATOM     14  C   UNL     1       2.257   1.619   1.282  0.00  0.00    +0.007 C 
ATOM     15  C   UNL     1       2.319   0.091   1.323  0.00  0.00    -0.018 C 
ATOM     16  C   UNL     1       0.898  -0.480   1.277  0.00  0.00    -0.016 C 
ATOM     17  C   UNL     1       0.970  -2.008   1.238  0.00  0.00    -0.078 C 
ATOM     18  N   UNL     1       1.710  -2.437   0.045  0.00  0.00    +0.382 N 
ATOM     19  C   UNL     1       3.094  -1.953   0.118  0.00  0.00    -0.078 C 
ATOM     20  C   UNL     1       3.104  -0.423   0.114  0.00  0.00    -0.016 C 
ATOM     21  H   UNL     1       1.266  -2.060  -0.779  0.00  0.00    -0.081 HD
ENDBRANCH  12  18
ENDBRANCH  11  12
ENDBRANCH   1  11
BRANCH   7  22
ATOM     22  C   UNL     1      -1.978  -3.701  -7.418  0.00  0.00    +0.127 C 
BRANCH  22  23
ATOM     23  C   UNL     1      -2.870  -2.488  -7.470  0.00  0.00    +0.004 A 
ATOM     24  C   UNL     1      -2.909  -1.496  -8.393  0.00  0.00    +0.012 A 
ATOM     25  C   UNL     1      -3.821  -0.470  -8.237  0.00  0.00    +0.008 A 
ATOM     26  C   UNL     1      -4.651  -0.486  -7.165  0.00  0.00    +0.045 A 
ATOM     27  S   UNL     1      -4.155  -1.987  -6.336  0.00  0.00    -0.100 S 
ENDBRANCH  22  23
ENDBRANCH   7  22
TORSDOF 5
