REMARK  Name = ZINC22185794
REMARK  5 active torsions:
REMARK  status: ('A' for Active; 'I' for Inactive)
REMARK    1  A    between atoms: C_4  and  N_7
REMARK    2  A    between atoms: C_8  and  C_17
REMARK    3  A    between atoms: C_10  and  C_12
REMARK    4  A    between atoms: N_19  and  N_20
REMARK    5  A    between atoms: C_21  and  C_23
REMARK                            x       y       z     vdW  Elec       q    Type
REMARK                         _______ _______ _______ _____ _____    ______ ____
ROOT
ATOM      1  N   UNL     1      -1.127   2.243   0.003  0.00  0.00    -0.227 N 
ATOM      2  C   UNL     1      -0.009   1.496   0.269  0.00  0.00    +0.131 A 
ATOM      3  C   UNL     1       1.079   2.332   0.156  0.00  0.00    +0.066 A 
ATOM      4  C   UNL     1       0.601   3.609  -0.181  0.00  0.00    +0.129 A 
ATOM      5  N   UNL     1      -0.715   3.554  -0.269  0.00  0.00    -0.163 NA
ENDROOT
BRANCH   1   9
ATOM      6  C   UNL     1      -5.058   0.863   0.006  0.00  0.00    +0.000 A 
ATOM      7  C   UNL     1      -4.747   2.063   0.619  0.00  0.00    +0.002 A 
ATOM      8  C   UNL     1      -3.446   2.523   0.620  0.00  0.00    +0.028 A 
ATOM      9  C   UNL     1      -2.447   1.779   0.004  0.00  0.00    +0.066 A 
ATOM     10  C   UNL     1      -2.763   0.576  -0.614  0.00  0.00    +0.028 A 
ATOM     11  C   UNL     1      -4.066   0.119  -0.607  0.00  0.00    +0.002 A 
ENDBRANCH   1   9
BRANCH   4  12
ATOM     12  C   UNL     1       1.431   4.813  -0.401  0.00  0.00    +0.155 A 
ATOM     13  C   UNL     1       0.973   6.049  -0.732  0.00  0.00    +0.051 A 
ATOM     14  C   UNL     1       2.102   6.886  -0.837  0.00  0.00    +0.042 A 
ATOM     15  C   UNL     1       3.183   6.126  -0.576  0.00  0.00    +0.196 A 
ATOM     16  O   UNL     1       2.774   4.873  -0.313  0.00  0.00    -0.461 OA
ENDBRANCH   4  12
BRANCH   2  17
ATOM     17  C   UNL     1       0.022   0.064   0.608  0.00  0.00    +0.279 C 
ATOM     18  O   UNL     1      -1.018  -0.543   0.780  0.00  0.00    -0.267 OA
ATOM     19  N   UNL     1       1.203  -0.574   0.727  0.00  0.00    -0.229 N 
ATOM     20  H   UNL     1       2.144  -0.008   0.658  0.00  0.00    +0.173 HD
BRANCH  19  21
ATOM     21  N   UNL     1       1.232  -1.959   0.937  0.00  0.00    -0.230 N 
ATOM     22  C   UNL     1       2.413  -2.598   1.056  0.00  0.00    +0.262 C 
ATOM     23  O   UNL     1       3.453  -1.972   0.981  0.00  0.00    -0.269 OA
ATOM     24  H   UNL     1       0.292  -2.525   1.005  0.00  0.00    +0.173 HD
BRANCH  22  25
ATOM     25  C   UNL     1       2.444  -4.058   1.278  0.00  0.00    +0.056 A 
ATOM     26  C   UNL     1       1.252  -4.779   1.371  0.00  0.00    +0.014 A 
ATOM     27  C   UNL     1       1.288  -6.143   1.572  0.00  0.00    +0.001 A 
ATOM     28  C   UNL     1       2.502  -6.796   1.694  0.00  0.00    +0.001 A 
ATOM     29  C   UNL     1       3.687  -6.089   1.609  0.00  0.00    +0.021 A 
ATOM     30  C   UNL     1       3.667  -4.723   1.402  0.00  0.00    +0.053 A 
ATOM     31 CL   UNL     1       5.155  -3.836   1.296  0.00  0.00    -0.083 Cl
ENDBRANCH  22  25
ENDBRANCH  19  21
ENDBRANCH   2  17
TORSDOF 5
