REMARK  Name = ZINC06802772
REMARK  7 active torsions:
REMARK  status: ('A' for Active; 'I' for Inactive)
REMARK    1  A    between atoms: C_1  and  C_2
REMARK    2  A    between atoms: C_2  and  C_3
REMARK    3  A    between atoms: C_3  and  N_4
REMARK    4  A    between atoms: C_5  and  C_7
REMARK    5  A    between atoms: C_7  and  N_8
REMARK    6  A    between atoms: C_10  and  C_20
REMARK    7  A    between atoms: C_12  and  C_19
REMARK                            x       y       z     vdW  Elec       q    Type
REMARK                         _______ _______ _______ _____ _____    ______ ____
ROOT
ATOM      1  N   UNL     1      -1.155   2.115   0.582  0.00  0.00    -0.259 N 
ATOM      2  C   UNL     1      -0.057   1.354   0.209  0.00  0.00    +0.072 A 
ATOM      3  C   UNL     1      -0.085   0.002  -0.069  0.00  0.00    -0.025 A 
ATOM      4  C   UNL     1       1.120  -0.667  -0.284  0.00  0.00    +0.028 A 
ATOM      5  C   UNL     1       2.308   0.029  -0.277  0.00  0.00    +0.040 A 
ATOM      6  N   UNL     1       2.312   1.333  -0.071  0.00  0.00    -0.244 NA
ATOM      7  C   UNL     1       1.198   1.999   0.153  0.00  0.00    +0.119 A 
ATOM      8  S   UNL     1       1.244   3.755   0.356  0.00  0.00    -0.095 S 
ATOM      9  C   UNL     1      -0.344   4.265  -0.375  0.00  0.00    +0.172 C 
ATOM     10  C   UNL     1      -1.413   3.362   0.180  0.00  0.00    +0.231 C 
ATOM     11  O   UNL     1      -2.544   3.780   0.264  0.00  0.00    -0.274 OA
ATOM     12  C   UNL     1       3.607  -0.696  -0.507  0.00  0.00    +0.065 C 
ATOM     13  C   UNL     1      -1.354  -0.811  -0.161  0.00  0.00    +0.046 C 
ENDROOT
BRANCH   1  14
ATOM     14  C   UNL     1      -2.084   1.598   1.591  0.00  0.00    +0.209 C 
BRANCH  14  16
ATOM     15  N   UNL     1      -2.462   1.844   4.023  0.00  0.00    -0.314 N 
ATOM     16  C   UNL     1      -1.738   2.180   2.937  0.00  0.00    +0.231 C 
ATOM     17  O   UNL     1      -0.808   2.951   3.044  0.00  0.00    -0.274 OA
ATOM     18  H   UNL     1      -3.207   1.228   3.938  0.00  0.00    +0.149 HD
BRANCH  15  19
ATOM     19  C   UNL     1      -2.126   2.410   5.332  0.00  0.00    +0.104 C 
BRANCH  19  21
ATOM     20  C   UNL     1      -2.744   2.462   7.752  0.00  0.00    +0.005 C 
ATOM     21  C   UNL     1      -3.096   1.871   6.385  0.00  0.00    +0.015 C 
ENDBRANCH  19  21
ENDBRANCH  15  19
ENDBRANCH  14  16
ENDBRANCH   1  14
TORSDOF 4
