REMARK  Name = ZINC54706147
REMARK  5 active torsions:
REMARK  status: ('A' for Active; 'I' for Inactive)
REMARK    1  A    between atoms: C_1  and  C_2
REMARK    2  A    between atoms: C_12  and  C_14
REMARK    3  A    between atoms: C_14  and  C_15
REMARK    4  A    between atoms: C_15  and  C_17
REMARK    5  A    between atoms: C_15  and  N_22
REMARK                            x       y       z     vdW  Elec       q    Type
REMARK                         _______ _______ _______ _____ _____    ______ ____
ROOT
ATOM      1  C   UNL     1      -0.019   1.526   0.010  0.00  0.00    +0.008 C 
ATOM      2  C   UNL     1       0.002  -0.004   0.002  0.00  0.00    -0.009 C 
ATOM      3  C   UNL     1      -1.433  -0.537   0.019  0.00  0.00    +0.010 C 
ATOM      4  C   UNL     1      -1.438  -2.046  -0.235  0.00  0.00    +0.056 C 
ATOM      5  C   UNL     1      -0.479  -2.708   0.744  0.00  0.00    +0.054 A 
ATOM      6  C   UNL     1       0.472  -1.978   1.381  0.00  0.00    +0.015 A 
ATOM      7  S   UNL     1       1.290  -3.193   2.376  0.00  0.00    -0.057 S 
ATOM      8  C   UNL     1       0.366  -4.521   1.905  0.00  0.00    +0.165 A 
ATOM      9  N   UNL     1      -0.487  -4.003   1.049  0.00  0.00    -0.229 NA
ATOM     10  N   UNL     1       0.478  -5.843   2.320  0.00  0.00    -0.265 N 
ATOM     11  C   UNL     1      -0.360  -6.777   1.829  0.00  0.00    +0.221 C 
ATOM     12  O   UNL     1      -1.212  -6.464   1.024  0.00  0.00    -0.275 OA
ATOM     13  C   UNL     1       0.739  -0.516   1.250  0.00  0.00    +0.047 C 
ATOM     14  H   UNL     1       1.160  -6.093   2.964  0.00  0.00    +0.157 HD
ENDROOT
BRANCH  11  15
ATOM     15  C   UNL     1      -0.238  -8.210   2.279  0.00  0.00    +0.123 C 
BRANCH  15  16
ATOM     16  C   UNL     1      -1.299  -9.058   1.575  0.00  0.00    +0.120 C 
BRANCH  16  17
ATOM     17  N   UNL     1      -1.031  -9.080   0.135  0.00  0.00    -0.292 N 
ATOM     18  C   UNL     1      -2.036  -9.305  -0.735  0.00  0.00    +0.298 C 
ATOM     19  O   UNL     1      -3.165  -9.490  -0.324  0.00  0.00    -0.253 OA
ATOM     20  N   UNL     1      -1.788  -9.325  -2.059  0.00  0.00    -0.313 N 
ATOM     21  H   UNL     1      -0.130  -8.932  -0.193  0.00  0.00    +0.151 HD
ATOM     22  H   UNL     1      -0.887  -9.178  -2.387  0.00  0.00    +0.146 HD
ATOM     23  H   UNL     1      -2.512  -9.487  -2.685  0.00  0.00    +0.146 HD
ENDBRANCH  16  17
BRANCH  16  24
ATOM     24  C   UNL     1      -1.259 -10.464   2.115  0.00  0.00    +0.010 A 
ATOM     25  C   UNL     1      -2.066 -11.050   3.033  0.00  0.00    +0.013 A 
ATOM     26  C   UNL     1      -1.840 -12.368   3.381  0.00  0.00    +0.008 A 
ATOM     27  C   UNL     1      -0.817 -13.037   2.793  0.00  0.00    +0.045 A 
ATOM     28  S   UNL     1      -0.139 -11.793   1.706  0.00  0.00    -0.100 S 
ENDBRANCH  16  24
ENDBRANCH  15  16
ENDBRANCH  11  15
TORSDOF 4
