REMARK  Name = ZINC08949341
REMARK  14 active torsions:
REMARK  status: ('A' for Active; 'I' for Inactive)
REMARK    1  A    between atoms: C_1  and  C_2
REMARK    2  A    between atoms: C_2  and  S_3
REMARK    3  A    between atoms: S_3  and  C_4
REMARK    4  A    between atoms: N_10  and  C_13
REMARK    5  A    between atoms: C_13  and  C_14
REMARK    6  A    between atoms: C_14  and  N_15
REMARK    7  A    between atoms: C_16  and  C_18
REMARK    8  A    between atoms: N_23  and  C_25
REMARK    9  A    between atoms: C_28  and  C_32
REMARK   10  A    between atoms: C_29  and  C_31
REMARK   11  A    between atoms: N_33  and  C_34
REMARK   12  A    between atoms: C_34  and  C_35
REMARK   13  A    between atoms: C_35  and  O_36
REMARK   14  A    between atoms: O_36  and  C_37
REMARK                            x       y       z     vdW  Elec       q    Type
REMARK                         _______ _______ _______ _____ _____    ______ ____
ROOT
ATOM      1  C   UNL     1      -1.053   5.341  -4.397  0.00  0.00    +0.164 C 
ENDROOT
BRANCH   1   8
ATOM      2  C   UNL     1       2.125   6.439  -7.348  0.00  0.00    +0.192 A 
ATOM      3  N   UNL     1       2.345   7.741  -7.499  0.00  0.00    -0.206 NA
ATOM      4  C   UNL     1       1.654   8.638  -6.807  0.00  0.00    +0.134 A 
ATOM      5  C   UNL     1       0.675   8.181  -5.902  0.00  0.00    +0.078 A 
ATOM      6  C   UNL     1      -0.230   8.810  -5.020  0.00  0.00    +0.148 A 
ATOM      7  N   UNL     1      -0.924   7.890  -4.414  0.00  0.00    -0.177 NA
ATOM      8  N   UNL     1      -0.512   6.624  -4.851  0.00  0.00    -0.245 N 
ATOM      9  C   UNL     1       0.476   6.793  -5.776  0.00  0.00    +0.164 A 
ATOM     10  N   UNL     1       1.217   5.966  -6.512  0.00  0.00    -0.202 NA
ATOM     11  N   UNL     1       1.889   9.989  -6.970  0.00  0.00    -0.326 N 
ATOM     12  H   UNL     1       1.378  10.636  -6.459  0.00  0.00    +0.148 HD
BRANCH   2  13
ATOM     13  S   UNL     1       3.078   5.302  -8.299  0.00  0.00    -0.086 S 
BRANCH  13  15
ATOM     14  C   UNL     1       5.054   5.677 -10.147  0.00  0.00    +0.016 C 
ATOM     15  C   UNL     1       4.115   6.459  -9.226  0.00  0.00    +0.074 C 
ENDBRANCH  13  15
ENDBRANCH   2  13
BRANCH  11  16
ATOM     16  C   UNL     1       2.911  10.446  -7.915  0.00  0.00    +0.131 C 
BRANCH  16  17
ATOM     17  C   UNL     1       2.969  11.975  -7.903  0.00  0.00    +0.178 C 
BRANCH  17  18
ATOM     18  O   UNL     1       3.412  12.425  -6.621  0.00  0.00    -0.381 OA
ATOM     19  C   UNL     1       3.502  13.846  -6.503  0.00  0.00    +0.194 C 
ENDBRANCH  17  18
ENDBRANCH  16  17
ENDBRANCH  11  16
ENDBRANCH   1   8
BRANCH   1  20
ATOM     20  C   UNL     1      -0.252   4.848  -3.190  0.00  0.00    +0.127 C 
BRANCH  20  21
ATOM     21  N   UNL     1      -0.793   3.564  -2.736  0.00  0.00    -0.313 N 
ATOM     22  C   UNL     1      -0.241   2.937  -1.679  0.00  0.00    +0.218 C 
ATOM     23  O   UNL     1       0.703   3.434  -1.104  0.00  0.00    -0.275 OA
ATOM     24  H   UNL     1      -1.549   3.167  -3.196  0.00  0.00    +0.149 HD
BRANCH  22  25
ATOM     25  C   UNL     1      -0.798   1.617  -1.212  0.00  0.00    +0.101 C 
ATOM     26  C   UNL     1      -2.216   1.792  -0.622  0.00  0.00    +0.110 C 
ATOM     27  C   UNL     1      -1.981   1.975   0.862  0.00  0.00    +0.221 C 
ATOM     28  O   UNL     1      -2.795   2.417   1.645  0.00  0.00    -0.275 OA
ATOM     29  N   UNL     1      -0.737   1.577   1.186  0.00  0.00    -0.271 N 
ATOM     30  C   UNL     1      -0.013   1.086   0.008  0.00  0.00    +0.127 C 
BRANCH  29  31
ATOM     31  C   UNL     1      -0.201   1.626   2.478  0.00  0.00    +0.037 A 
ATOM     32  C   UNL     1       1.095   1.186   2.711  0.00  0.00    +0.024 A 
ATOM     33  C   UNL     1       1.622   1.240   3.987  0.00  0.00    +0.005 A 
ATOM     34  C   UNL     1       0.857   1.722   5.033  0.00  0.00    -0.047 A 
ATOM     35  C   UNL     1      -0.436   2.156   4.805  0.00  0.00    -0.046 A 
ATOM     36  C   UNL     1      -0.967   2.109   3.531  0.00  0.00    +0.027 A 
ATOM     37  C   UNL     1      -1.266   2.680   5.948  0.00  0.00    +0.044 C 
ATOM     38  C   UNL     1       1.433   1.774   6.424  0.00  0.00    +0.044 C 
ENDBRANCH  29  31
ENDBRANCH  22  25
ENDBRANCH  20  21
ENDBRANCH   1  20
TORSDOF 10
