REMARK  Name = ZINC59160308
REMARK  5 active torsions:
REMARK  status: ('A' for Active; 'I' for Inactive)
REMARK    1  A    between atoms: C_1  and  C_2
REMARK    2  A    between atoms: C_7  and  C_8
REMARK    3  A    between atoms: N_13  and  N_14
REMARK    4  A    between atoms: C_15  and  C_17
REMARK    5  A    between atoms: C_20  and  C_24
REMARK                            x       y       z     vdW  Elec       q    Type
REMARK                         _______ _______ _______ _____ _____    ______ ____
ROOT
ATOM      1  C   UNL     1      -0.018   1.503   0.010  0.00  0.00    +0.044 C 
ATOM      2  C   UNL     1       0.002  -0.004   0.002  0.00  0.00    -0.046 A 
ATOM      3  C   UNL     1       0.006  -0.683  -1.205  0.00  0.00    +0.004 A 
ATOM      4  C   UNL     1       0.025  -2.064  -1.222  0.00  0.00    +0.012 A 
ATOM      5  C   UNL     1       0.040  -2.768  -0.023  0.00  0.00    +0.028 A 
ATOM      6  C   UNL     1       0.037  -2.085   1.200  0.00  0.00    +0.046 A 
ATOM      7  C   UNL     1       0.023  -0.694   1.197  0.00  0.00    -0.026 A 
ATOM      8  C   UNL     1       0.025   0.061   2.501  0.00  0.00    +0.046 C 
ATOM      9  N   UNL     1       0.055  -3.006   2.242  0.00  0.00    -0.279 N 
ATOM     10  C   UNL     1       0.071  -4.268   1.781  0.00  0.00    +0.269 C 
ATOM     11  O   UNL     1       0.089  -5.278   2.459  0.00  0.00    -0.268 OA
ATOM     12  C   UNL     1       0.063  -4.212   0.305  0.00  0.00    +0.153 C 
ATOM     13  N   UNL     1       0.073  -5.221  -0.532  0.00  0.00    -0.174 NA
ATOM     14  H   UNL     1       0.057  -2.768   3.182  0.00  0.00    +0.155 HD
ENDROOT
BRANCH  13  15
ATOM     15  N   UNL     1       0.094  -6.535  -0.046  0.00  0.00    -0.202 N 
ATOM     16  C   UNL     1       0.104  -7.572  -0.907  0.00  0.00    +0.263 C 
ATOM     17  O   UNL     1       0.095  -7.367  -2.105  0.00  0.00    -0.268 OA
ATOM     18  H   UNL     1       0.101  -6.698   0.910  0.00  0.00    +0.178 HD
BRANCH  16  19
ATOM     19  C   UNL     1       0.127  -8.957  -0.394  0.00  0.00    +0.040 A 
ATOM     20  C   UNL     1       0.131  -9.196   0.982  0.00  0.00    +0.013 A 
ATOM     21  C   UNL     1       0.152 -10.492   1.454  0.00  0.00    +0.005 A 
ATOM     22  C   UNL     1       0.169 -11.555   0.569  0.00  0.00    -0.032 A 
ATOM     23  C   UNL     1       0.165 -11.326  -0.797  0.00  0.00    +0.045 A 
ATOM     24  C   UNL     1       0.137 -10.034  -1.283  0.00  0.00    +0.033 A 
ATOM     25 CL   UNL     1       0.187 -12.666  -1.900  0.00  0.00    -0.083 Cl
ATOM     26  C   UNL     1       0.192 -12.967   1.093  0.00  0.00    +0.045 C 
ENDBRANCH  16  19
ENDBRANCH  13  15
TORSDOF 2
