REMARK  Name = ZINC35452781
REMARK  7 active torsions:
REMARK  status: ('A' for Active; 'I' for Inactive)
REMARK    1  A    between atoms: C_1  and  C_2
REMARK    2  A    between atoms: C_2  and  C_3
REMARK    3  A    between atoms: C_3  and  C_4
REMARK    4  A    between atoms: C_3  and  N_6
REMARK    5  A    between atoms: C_4  and  C_5
REMARK    6  A    between atoms: N_6  and  C_7
REMARK    7  A    between atoms: C_12  and  N_13
REMARK                            x       y       z     vdW  Elec       q    Type
REMARK                         _______ _______ _______ _____ _____    ______ ____
ROOT
ATOM      1  C   UNL     1      -2.688   1.096   1.405  0.00  0.00    +0.050 A 
ATOM      2  C   UNL     1      -2.678   1.986   0.341  0.00  0.00    +0.051 A 
ATOM      3  C   UNL     1      -3.278   3.228   0.475  0.00  0.00    +0.078 A 
ATOM      4  C   UNL     1      -3.889   3.584   1.676  0.00  0.00    +0.144 A 
ATOM      5  C   UNL     1      -3.899   2.697   2.738  0.00  0.00    +0.072 A 
ATOM      6  C   UNL     1      -3.304   1.450   2.604  0.00  0.00    +0.049 A 
ATOM      7  O   UNL     1      -4.472   4.809   1.792  0.00  0.00    -0.481 OA
ATOM      8  C   UNL     1      -3.867   5.880   1.065  0.00  0.00    +0.325 C 
ATOM      9  C   UNL     1      -3.578   5.435  -0.346  0.00  0.00    +0.255 C 
ATOM     10  O   UNL     1      -3.614   6.235  -1.257  0.00  0.00    -0.272 OA
ATOM     11  N   UNL     1      -3.279   4.141  -0.592  0.00  0.00    -0.280 N 
ATOM     12  H   UNL     1      -3.067   3.846  -1.492  0.00  0.00    +0.155 HD
ENDROOT
BRANCH   6  13
ATOM     13  N   UNL     1      -3.318   0.548   3.678  0.00  0.00    -0.356 N 
ATOM     14  H   UNL     1      -2.899  -0.322   3.586  0.00  0.00    +0.142 HD
ATOM     15  H   UNL     1      -3.748   0.794   4.512  0.00  0.00    +0.142 HD
ENDBRANCH   6  13
BRANCH   1  16
ATOM     16  N   UNL     1      -2.082  -0.162   1.273  0.00  0.00    -0.340 N 
ATOM     17  H   UNL     1      -2.092  -0.785   2.016  0.00  0.00    +0.146 HD
BRANCH  16  18
ATOM     18  C   UNL     1      -1.433  -0.534   0.013  0.00  0.00    +0.070 C 
BRANCH  18  20
ATOM     19  C   UNL     1      -0.019   1.526   0.010  0.00  0.00    +0.006 C 
ATOM     20  C   UNL     1       0.002  -0.004   0.002  0.00  0.00    +0.019 C 
ENDBRANCH  18  20
BRANCH  18  21
ATOM     21  C   UNL     1      -1.416  -2.058  -0.121  0.00  0.00    +0.019 C 
ATOM     22  C   UNL     1      -2.850  -2.576  -0.236  0.00  0.00    +0.006 C 
ENDBRANCH  18  21
ENDBRANCH  16  18
ENDBRANCH   1  16
TORSDOF 5
