REMARK  Name = ZINC63557829
REMARK  11 active torsions:
REMARK  status: ('A' for Active; 'I' for Inactive)
REMARK    1  A    between atoms: C_1  and  C_2
REMARK    2  A    between atoms: C_2  and  C_3
REMARK    3  A    between atoms: C_3  and  C_4
REMARK    4  A    between atoms: C_3  and  C_6
REMARK    5  A    between atoms: C_4  and  C_5
REMARK    6  A    between atoms: C_13  and  C_15
REMARK    7  A    between atoms: N_20  and  C_22
REMARK    8  A    between atoms: C_22  and  C_23
REMARK    9  A    between atoms: C_23  and  C_24
REMARK   10  A    between atoms: C_27  and  O_33
REMARK   11  A    between atoms: O_33  and  C_34
REMARK                            x       y       z     vdW  Elec       q    Type
REMARK                         _______ _______ _______ _____ _____    ______ ____
ROOT
ATOM      1  C   UNL     1      -2.229  -6.515  -3.855  0.00  0.00    +0.101 C 
ATOM      2  C   UNL     1      -1.751  -5.895  -5.188  0.00  0.00    +0.110 C 
ATOM      3  C   UNL     1      -2.430  -6.732  -6.250  0.00  0.00    +0.216 C 
ATOM      4  O   UNL     1      -2.111  -6.762  -7.420  0.00  0.00    -0.276 OA
ATOM      5  N   UNL     1      -3.438  -7.438  -5.709  0.00  0.00    -0.300 N 
ATOM      6  C   UNL     1      -3.565  -7.168  -4.271  0.00  0.00    +0.121 C 
ENDROOT
BRANCH   1  13
ATOM      7  C   UNL     1      -1.550  -1.721   0.445  0.00  0.00    +0.157 C 
ATOM      8  N   UNL     1      -2.826  -2.391   0.108  0.00  0.00    -0.253 N 
ATOM      9  N   UNL     1      -2.734  -3.388  -0.838  0.00  0.00    -0.163 NA
ATOM     10  C   UNL     1      -1.619  -3.730  -1.405  0.00  0.00    +0.179 C 
ATOM     11  S   UNL     1      -0.408  -2.643  -0.666  0.00  0.00    -0.065 S 
ATOM     12  N   UNL     1      -1.413  -4.715  -2.366  0.00  0.00    -0.263 N 
ATOM     13  C   UNL     1      -2.452  -5.448  -2.814  0.00  0.00    +0.224 C 
ATOM     14  O   UNL     1      -3.567  -5.248  -2.380  0.00  0.00    -0.275 OA
ATOM     15  H   UNL     1      -3.668  -2.147   0.524  0.00  0.00    +0.169 HD
ATOM     16  H   UNL     1      -0.522  -4.875  -2.713  0.00  0.00    +0.157 HD
BRANCH   7  17
ATOM     17  C   UNL     1      -1.592  -0.233   0.090  0.00  0.00    +0.021 C 
BRANCH  17  19
ATOM     18  C   UNL     1      -0.362   1.935   0.260  0.00  0.00    +0.004 C 
ATOM     19  C   UNL     1      -0.274   0.426   0.500  0.00  0.00    +0.003 C 
ENDBRANCH  17  19
BRANCH  17  20
ATOM     20  C   UNL     1      -1.794  -0.075  -1.419  0.00  0.00    +0.003 C 
ATOM     21  C   UNL     1      -3.194  -0.558  -1.800  0.00  0.00    +0.004 C 
ENDBRANCH  17  20
ENDBRANCH   7  17
ENDBRANCH   1  13
BRANCH   5  22
ATOM     22  C   UNL     1      -4.298  -8.358  -6.457  0.00  0.00    +0.112 C 
BRANCH  22  23
ATOM     23  C   UNL     1      -3.687  -9.761  -6.432  0.00  0.00    +0.052 C 
BRANCH  23  24
ATOM     24  C   UNL     1      -4.572 -10.708  -7.201  0.00  0.00    -0.040 C 
ATOM     25  C   UNL     1      -4.440 -11.071  -8.497  0.00  0.00    +0.002 A 
ATOM     26  C   UNL     1      -3.474 -10.709  -9.540  0.00  0.00    +0.055 A 
ATOM     27  C   UNL     1      -3.596 -11.244 -10.778  0.00  0.00    +0.121 A 
ATOM     28  C   UNL     1      -4.625 -12.143 -11.108  0.00  0.00    +0.047 A 
ATOM     29  C   UNL     1      -5.561 -12.536 -10.218  0.00  0.00    +0.029 A 
ATOM     30  C   UNL     1      -5.524 -12.019  -8.847  0.00  0.00    +0.043 A 
ATOM     31  N   UNL     1      -6.293 -12.232  -7.809  0.00  0.00    -0.380 N 
ATOM     32  C   UNL     1      -5.782 -11.448  -6.679  0.00  0.00    +0.144 C 
ATOM     33  H   UNL     1      -7.069 -12.814  -7.790  0.00  0.00    +0.160 HD
BRANCH  27  34
ATOM     34  O   UNL     1      -2.693 -10.899 -11.734  0.00  0.00    -0.495 OA
ATOM     35  C   UNL     1      -2.860 -11.487 -13.026  0.00  0.00    +0.277 C 
ENDBRANCH  27  34
ENDBRANCH  23  24
ENDBRANCH  22  23
ENDBRANCH   5  22
TORSDOF 8
