REMARK  Name = ZINC22910900
REMARK  10 active torsions:
REMARK  status: ('A' for Active; 'I' for Inactive)
REMARK    1  A    between atoms: C_1  and  C_2
REMARK    2  A    between atoms: C_2  and  C_3
REMARK    3  A    between atoms: C_2  and  C_4
REMARK    4  A    between atoms: C_2  and  N_31
REMARK    5  A    between atoms: C_4  and  N_5
REMARK    6  A    between atoms: N_5  and  C_6
REMARK    7  A    between atoms: N_9  and  C_12
REMARK    8  A    between atoms: C_15  and  C_18
REMARK    9  A    between atoms: N_20  and  C_21
REMARK   10  A    between atoms: C_21  and  C_22
REMARK                            x       y       z     vdW  Elec       q    Type
REMARK                         _______ _______ _______ _____ _____    ______ ____
ROOT
ATOM      1  C   UNL     1       1.754   7.521   5.655  0.00  0.00    +0.030 A 
ATOM      2  C   UNL     1       1.657   8.484   4.654  0.00  0.00    +0.024 A 
ATOM      3  C   UNL     1       1.770   8.118   3.332  0.00  0.00    +0.015 A 
ATOM      4  C   UNL     1       1.981   6.777   2.995  0.00  0.00    +0.037 A 
ATOM      5  C   UNL     1       2.071   5.812   4.002  0.00  0.00    +0.015 A 
ATOM      6  C   UNL     1       1.964   6.186   5.322  0.00  0.00    +0.024 A 
ENDROOT
BRANCH   1  10
ATOM      7  C   UNL     1       0.489   7.947   9.637  0.00  0.00    -0.069 C 
ATOM      8  C   UNL     1       1.787   7.195   9.332  0.00  0.00    +0.003 C 
ATOM      9  C   UNL     1       1.771   6.730   7.874  0.00  0.00    +0.103 C 
ATOM     10  N   UNL     1       1.640   7.894   6.989  0.00  0.00    -0.330 N 
ATOM     11  C   UNL     1       0.378   8.606   7.231  0.00  0.00    +0.103 C 
ATOM     12  C   UNL     1       0.353   9.127   8.670  0.00  0.00    +0.003 C 
BRANCH   7  13
ATOM     13  N   UNL     1       0.524   8.447  11.018  0.00  0.00    +0.382 N 
ATOM     14  H   UNL     1       1.056   9.409  11.032  0.00  0.00    -0.085 HD
ATOM     15  H   UNL     1       1.064   7.720  11.643  0.00  0.00    -0.085 HD
BRANCH  13  16
ATOM     16  C   UNL     1      -0.835   8.631  11.546  0.00  0.00    -0.060 C 
BRANCH  16  18
ATOM     17  C   UNL     1      -0.096  10.393  13.156  0.00  0.00    +0.025 C 
ATOM     18  C   UNL     1      -0.760   9.021  13.023  0.00  0.00    +0.001 C 
ATOM     19  C   UNL     1      -2.173   9.079  13.608  0.00  0.00    +0.025 C 
BRANCH  18  20
ATOM     20  N   UNL     1       0.031   8.021  13.754  0.00  0.00    -0.295 NA
ATOM     21  C   UNL     1      -0.544   6.677  13.598  0.00  0.00    +0.113 C 
ATOM     22  C   UNL     1       0.342   5.661  14.323  0.00  0.00    +0.175 C 
ATOM     23  O   UNL     1       0.468   6.041  15.696  0.00  0.00    -0.377 OA
ATOM     24  C   UNL     1       1.026   7.344  15.885  0.00  0.00    +0.175 C 
ATOM     25  C   UNL     1       0.147   8.377  15.175  0.00  0.00    +0.113 C 
ENDBRANCH  18  20
ENDBRANCH  16  18
ENDBRANCH  13  16
ENDBRANCH   7  13
ENDBRANCH   1  10
BRANCH   4  26
ATOM     26  C   UNL     1       2.101   6.382   1.579  0.00  0.00    +0.244 C 
ATOM     27  O   UNL     1       2.017   7.221   0.703  0.00  0.00    -0.270 OA
ATOM     28  N   UNL     1       2.304   5.089   1.255  0.00  0.00    -0.307 N 
ATOM     29  H   UNL     1       2.380   4.329   2.047  0.00  0.00    +0.149 HD
BRANCH  28  30
ATOM     30  C   UNL     1       2.424   4.696  -0.151  0.00  0.00    +0.140 C 
BRANCH  30  31
ATOM     31  C   UNL     1       2.646   3.208  -0.239  0.00  0.00    -0.027 A 
ATOM     32  C   UNL     1       3.931   2.700  -0.226  0.00  0.00    +0.009 A 
ATOM     33  C   UNL     1       4.140   1.336  -0.308  0.00  0.00    +0.050 A 
ATOM     34  C   UNL     1       3.059   0.474  -0.402  0.00  0.00    +0.166 A 
ATOM     35  C   UNL     1       1.764   0.986  -0.414  0.00  0.00    +0.167 A 
ATOM     36  C   UNL     1       1.563   2.354  -0.332  0.00  0.00    +0.054 A 
ATOM     37  O   UNL     1       0.885  -0.054  -0.512  0.00  0.00    -0.453 OA
ATOM     38  C   UNL     1       1.665  -1.175  -0.972  0.00  0.00    +0.466 C 
ATOM     39  O   UNL     1       2.992  -0.886  -0.493  0.00  0.00    -0.453 OA
ENDBRANCH  30  31
ENDBRANCH  28  30
ENDBRANCH   4  26
TORSDOF 8
