REMARK  Name = ZINC25394170
REMARK  8 active torsions:
REMARK  status: ('A' for Active; 'I' for Inactive)
REMARK    1  A    between atoms: C_1  and  C_2
REMARK    2  A    between atoms: C_2  and  C_3
REMARK    3  A    between atoms: C_3  and  C_26
REMARK    4  A    between atoms: N_6  and  N_10
REMARK    5  A    between atoms: C_11  and  C_13
REMARK    6  A    between atoms: C_13  and  C_14
REMARK    7  A    between atoms: C_14  and  C_15
REMARK    8  A    between atoms: C_18  and  C_20
REMARK                            x       y       z     vdW  Elec       q    Type
REMARK                         _______ _______ _______ _____ _____    ______ ____
ROOT
ATOM      1  N   UNL     1      -1.146  -0.807   0.008  0.00  0.00    -0.224 N 
ATOM      2  C   UNL     1      -1.535  -1.434  -1.119  0.00  0.00    +0.230 C 
ATOM      3  O   UNL     1      -0.892  -1.304  -2.139  0.00  0.00    -0.274 OA
ATOM      4  H   UNL     1      -1.730  -0.925   0.933  0.00  0.00    +0.174 HD
ENDROOT
BRANCH   1   8
ATOM      5  C   UNL     1       1.437   1.773  -0.002  0.00  0.00    +0.139 C 
ATOM      6  C   UNL     1      -0.016   1.343   0.009  0.00  0.00    +0.268 C 
ATOM      7  O   UNL     1      -0.992   2.062   0.018  0.00  0.00    -0.271 OA
ATOM      8  N   UNL     1       0.002  -0.004   0.002  0.00  0.00    -0.137 N 
ATOM      9  C   UNL     1       1.252  -0.481  -0.013  0.00  0.00    +0.327 C 
ATOM     10  O   UNL     1       1.524  -1.665  -0.021  0.00  0.00    -0.251 OA
ATOM     11  N   UNL     1       2.175   0.498  -0.016  0.00  0.00    -0.280 N 
ATOM     12  H   UNL     1       3.275   0.499  -0.026  0.00  0.00    +0.152 HD
BRANCH   5  13
ATOM     13  C   UNL     1       1.767   2.563   1.238  0.00  0.00    -0.015 A 
ATOM     14  C   UNL     1       1.634   3.939   1.238  0.00  0.00    +0.006 A 
ATOM     15  C   UNL     1       1.931   4.663   2.377  0.00  0.00    +0.000 A 
ATOM     16  C   UNL     1       2.371   4.011   3.514  0.00  0.00    +0.000 A 
ATOM     17  C   UNL     1       2.510   2.636   3.513  0.00  0.00    +0.000 A 
ATOM     18  C   UNL     1       2.208   1.912   2.375  0.00  0.00    +0.006 A 
ENDBRANCH   5  13
BRANCH   5  20
ATOM     19  C   UNL     1       1.456   1.743  -2.500  0.00  0.00    +0.007 C 
ATOM     20  C   UNL     1       1.748   2.588  -1.259  0.00  0.00    +0.037 C 
ENDBRANCH   5  20
ENDBRANCH   1   8
BRANCH   2  21
ATOM     21  C   UNL     1      -2.771  -2.298  -1.113  0.00  0.00    +0.106 C 
BRANCH  21  22
ATOM     22  C   UNL     1      -2.987  -2.889  -2.508  0.00  0.00    +0.105 C 
BRANCH  22  23
ATOM     23  C   UNL     1      -4.222  -3.752  -2.501  0.00  0.00    +0.197 A 
ATOM     24  N   UNL     1      -5.432  -3.344  -2.764  0.00  0.00    -0.221 NA
ATOM     25  C   UNL     1      -6.273  -4.384  -2.662  0.00  0.00    +0.161 A 
ATOM     26  C   UNL     1      -5.537  -5.473  -2.323  0.00  0.00    +0.155 A 
ATOM     27  O   UNL     1      -4.253  -5.064  -2.231  0.00  0.00    -0.440 OA
BRANCH  26  28
ATOM     28  C   UNL     1      -6.043  -6.845  -2.102  0.00  0.00    +0.019 A 
ATOM     29  C   UNL     1      -5.160  -7.871  -1.762  0.00  0.00    +0.011 A 
ATOM     30  C   UNL     1      -5.640  -9.147  -1.552  0.00  0.00    +0.001 A 
ATOM     31  C   UNL     1      -6.990  -9.414  -1.690  0.00  0.00    +0.000 A 
ATOM     32  C   UNL     1      -7.870  -8.402  -2.032  0.00  0.00    +0.001 A 
ATOM     33  C   UNL     1      -7.404  -7.120  -2.240  0.00  0.00    +0.011 A 
ENDBRANCH  26  28
ENDBRANCH  22  23
ENDBRANCH  21  22
ENDBRANCH   2  21
TORSDOF 7
