REMARK  Name = ZINC64791356
REMARK  8 active torsions:
REMARK  status: ('A' for Active; 'I' for Inactive)
REMARK    1  A    between atoms: C_1  and  C_2
REMARK    2  A    between atoms: C_5  and  C_8
REMARK    3  A    between atoms: C_8  and  N_9
REMARK    4  A    between atoms: N_13  and  C_21
REMARK    5  A    between atoms: C_21  and  C_22
REMARK    6  A    between atoms: N_24  and  C_25
REMARK    7  A    between atoms: C_30  and  C_31
REMARK    8  A    between atoms: C_32  and  C_34
REMARK                            x       y       z     vdW  Elec       q    Type
REMARK                         _______ _______ _______ _____ _____    ______ ____
ROOT
ATOM      1  N   UNL     1       1.514  -4.733  -0.091  0.00  0.00    -0.248 N 
ATOM      2  C   UNL     1       2.114  -4.729   1.161  0.00  0.00    +0.194 A 
ATOM      3  C   UNL     1       3.539  -5.078   1.296  0.00  0.00    +0.293 A 
ATOM      4  O   UNL     1       4.198  -5.372   0.315  0.00  0.00    -0.264 OA
ATOM      5  N   UNL     1       4.106  -5.069   2.522  0.00  0.00    -0.295 N 
ATOM      6  C   UNL     1       3.331  -4.731   3.616  0.00  0.00    +0.071 A 
ATOM      7  C   UNL     1       3.889  -4.713   4.891  0.00  0.00    +0.028 A 
ATOM      8  C   UNL     1       3.110  -4.375   5.976  0.00  0.00    +0.002 A 
ATOM      9  C   UNL     1       1.770  -4.052   5.808  0.00  0.00    +0.002 A 
ATOM     10  C   UNL     1       1.202  -4.063   4.567  0.00  0.00    +0.030 A 
ATOM     11  C   UNL     1       1.974  -4.404   3.446  0.00  0.00    +0.090 A 
ATOM     12  N   UNL     1       1.414  -4.410   2.219  0.00  0.00    -0.225 NA
ATOM     13  C   UNL     1       1.881  -5.647  -1.011  0.00  0.00    +0.218 C 
ATOM     14  O   UNL     1       2.679  -6.513  -0.721  0.00  0.00    -0.276 OA
ATOM     15  C   UNL     1       1.302  -5.592  -2.401  0.00  0.00    +0.110 C 
ENDROOT
BRANCH   1  16
ATOM     16  C   UNL     1       0.482  -3.744  -0.413  0.00  0.00    +0.150 C 
BRANCH  16  21
ATOM     17  C   UNL     1       2.988   1.182  -2.099  0.00  0.00    +0.044 C 
ATOM     18  C   UNL     1       2.335  -0.103  -1.659  0.00  0.00    -0.050 A 
ATOM     19  C   UNL     1       2.023  -1.075  -2.592  0.00  0.00    +0.003 A 
ATOM     20  C   UNL     1       1.424  -2.253  -2.189  0.00  0.00    +0.005 A 
ATOM     21  C   UNL     1       1.136  -2.460  -0.852  0.00  0.00    -0.030 A 
ATOM     22  C   UNL     1       1.449  -1.489   0.080  0.00  0.00    +0.005 A 
ATOM     23  C   UNL     1       2.052  -0.312  -0.323  0.00  0.00    +0.003 A 
ENDBRANCH  16  21
ENDBRANCH   1  16
BRANCH   5  24
ATOM     24  C   UNL     1       5.520  -5.412   2.691  0.00  0.00    +0.221 C 
BRANCH  24  25
ATOM     25  C   UNL     1       6.356  -4.163   2.575  0.00  0.00    +0.237 C 
ATOM     26  O   UNL     1       5.824  -3.093   2.372  0.00  0.00    -0.274 OA
ATOM     27  N   UNL     1       7.697  -4.237   2.697  0.00  0.00    -0.284 N 
ATOM     28  H   UNL     1       8.116  -5.077   2.939  0.00  0.00    +0.155 HD
BRANCH  27  29
ATOM     29  C   UNL     1       8.483  -3.101   2.475  0.00  0.00    +0.036 A 
ATOM     30  C   UNL     1       8.007  -2.072   1.673  0.00  0.00    +0.023 A 
ATOM     31  C   UNL     1       8.786  -0.952   1.455  0.00  0.00    +0.002 A 
ATOM     32  C   UNL     1      10.037  -0.855   2.035  0.00  0.00    +0.000 A 
ATOM     33  C   UNL     1      10.514  -1.877   2.835  0.00  0.00    +0.005 A 
ATOM     34  C   UNL     1       9.737  -2.997   3.061  0.00  0.00    -0.029 A 
ATOM     35  C   UNL     1      10.254  -4.109   3.938  0.00  0.00    +0.045 C 
ENDBRANCH  27  29
ENDBRANCH  24  25
ENDBRANCH   5  24
TORSDOF 5
