REMARK  Name = ZINC12704411
REMARK  11 active torsions:
REMARK  status: ('A' for Active; 'I' for Inactive)
REMARK    1  A    between atoms: C_1  and  C_2
REMARK    2  A    between atoms: C_5  and  C_8
REMARK    3  A    between atoms: N_11  and  C_13
REMARK    4  A    between atoms: C_13  and  C_14
REMARK    5  A    between atoms: N_16  and  C_17
REMARK    6  A    between atoms: N_16  and  C_25
REMARK    7  A    between atoms: C_19  and  C_24
REMARK    8  A    between atoms: C_22  and  C_23
REMARK    9  A    between atoms: C_25  and  C_27
REMARK   10  A    between atoms: C_25  and  C_32
REMARK   11  A    between atoms: N_34  and  C_35
REMARK                            x       y       z     vdW  Elec       q    Type
REMARK                         _______ _______ _______ _____ _____    ______ ____
ROOT
ATOM      1  C   UNL     1      -5.760   1.751   2.929  0.00  0.00    +0.244 C 
ATOM      2  O   UNL     1      -6.812   2.118   2.450  0.00  0.00    -0.273 OA
ATOM      3  N   UNL     1      -4.639   2.470   2.721  0.00  0.00    -0.253 N 
ENDROOT
BRANCH   3   4
ATOM      4  C   UNL     1      -3.425   2.047   3.273  0.00  0.00    +0.041 A 
ATOM      5  C   UNL     1      -2.581   1.217   2.546  0.00  0.00    +0.027 A 
ATOM      6  C   UNL     1      -1.386   0.797   3.096  0.00  0.00    -0.049 A 
ATOM      7  C   UNL     1      -1.023   1.211   4.365  0.00  0.00    +0.004 A 
ATOM      8  C   UNL     1      -1.859   2.041   5.090  0.00  0.00    +0.005 A 
ATOM      9  C   UNL     1      -3.058   2.460   4.547  0.00  0.00    -0.029 A 
ATOM     10  C   UNL     1      -3.968   3.365   5.337  0.00  0.00    +0.045 C 
ATOM     11  C   UNL     1      -0.472  -0.107   2.310  0.00  0.00    +0.044 C 
ENDBRANCH   3   4
BRANCH   1  12
ATOM     12  C   UNL     1      -5.706   0.492   3.755  0.00  0.00    +0.264 C 
BRANCH  12  16
ATOM     13  C   UNL     1      -8.996  -0.561   4.475  0.00  0.00    +0.205 A 
ATOM     14  N   UNL     1      -8.724  -1.267   3.369  0.00  0.00    -0.108 NA
ATOM     15  N   UNL     1      -7.525  -0.961   3.004  0.00  0.00    -0.045 NA
ATOM     16  N   UNL     1      -7.044  -0.100   3.831  0.00  0.00    -0.154 N 
ATOM     17  N   UNL     1      -7.921   0.156   4.740  0.00  0.00    -0.130 NA
BRANCH  13  22
ATOM     18  C   UNL     1     -13.898  -0.655   7.498  0.00  0.00    +0.044 C 
ATOM     19  C   UNL     1     -12.615  -0.630   6.707  0.00  0.00    -0.050 A 
ATOM     20  C   UNL     1     -12.486  -1.421   5.580  0.00  0.00    +0.004 A 
ATOM     21  C   UNL     1     -11.313  -1.402   4.852  0.00  0.00    +0.012 A 
ATOM     22  C   UNL     1     -10.260  -0.585   5.254  0.00  0.00    +0.023 A 
ATOM     23  C   UNL     1     -10.394   0.206   6.393  0.00  0.00    +0.012 A 
ATOM     24  C   UNL     1     -11.572   0.183   7.111  0.00  0.00    +0.004 A 
ENDBRANCH  13  22
ENDBRANCH  12  16
ENDBRANCH   1  12
BRANCH   3  25
ATOM     25  C   UNL     1      -4.691   3.693   1.918  0.00  0.00    +0.204 C 
BRANCH  25  26
ATOM     26  C   UNL     1      -4.076   4.830   2.693  0.00  0.00    +0.019 A 
ATOM     27  C   UNL     1      -4.644   5.993   3.097  0.00  0.00    +0.013 A 
ATOM     28  C   UNL     1      -3.880   6.901   3.806  0.00  0.00    +0.008 A 
ATOM     29  C   UNL     1      -2.585   6.602   4.076  0.00  0.00    +0.045 A 
ATOM     30  S   UNL     1      -2.414   4.992   3.323  0.00  0.00    -0.099 S 
ENDBRANCH  25  26
BRANCH  25  31
ATOM     31  C   UNL     1      -3.925   3.486   0.637  0.00  0.00    +0.239 C 
ATOM     32  O   UNL     1      -3.387   2.422   0.417  0.00  0.00    -0.273 OA
ATOM     33  N   UNL     1      -3.836   4.485  -0.265  0.00  0.00    -0.311 N 
ATOM     34  H   UNL     1      -4.266   5.336  -0.089  0.00  0.00    +0.149 HD
BRANCH  33  35
ATOM     35  C   UNL     1      -3.091   4.284  -1.510  0.00  0.00    +0.073 C 
ATOM     36  C   UNL     1      -1.604   4.635  -1.298  0.00  0.00    +0.022 C 
ATOM     37  C   UNL     1      -1.179   5.304  -2.629  0.00  0.00    +0.002 C 
ATOM     38  C   UNL     1      -2.431   6.132  -3.011  0.00  0.00    +0.002 C 
ATOM     39  C   UNL     1      -3.617   5.235  -2.598  0.00  0.00    +0.022 C 
ENDBRANCH  33  35
ENDBRANCH  25  31
ENDBRANCH   3  25
TORSDOF 8
