REMARK  Name = ZINC02070661
REMARK  7 active torsions:
REMARK  status: ('A' for Active; 'I' for Inactive)
REMARK    1  A    between atoms: C_2  and  C_3
REMARK    2  A    between atoms: C_3  and  N_4
REMARK    3  A    between atoms: C_7  and  N_22
REMARK    4  A    between atoms: C_8  and  C_10
REMARK    5  A    between atoms: C_10  and  C_16
REMARK    6  A    between atoms: C_11  and  C_12
REMARK    7  A    between atoms: C_11  and  C_14
REMARK                            x       y       z     vdW  Elec       q    Type
REMARK                         _______ _______ _______ _____ _____    ______ ____
ROOT
ATOM      1  N   UNL     1      -1.288  -1.698  -1.197  0.00  0.00    -0.320 N 
ATOM      2  C   UNL     1      -2.385  -2.509  -1.378  0.00  0.00    +0.161 A 
ATOM      3  N   UNL     1      -3.484  -2.566  -0.646  0.00  0.00    -0.210 NA
ATOM      4  C   UNL     1      -4.460  -3.394  -0.937  0.00  0.00    +0.133 A 
ATOM      5  C   UNL     1      -4.258  -4.207  -2.066  0.00  0.00    +0.064 A 
ATOM      6  S   UNL     1      -2.642  -3.652  -2.585  0.00  0.00    -0.050 S 
ATOM      7  H   UNL     1      -0.540  -1.751  -1.813  0.00  0.00    +0.148 HD
ENDROOT
BRANCH   4   8
ATOM      8  N   UNL     1      -5.617  -3.463  -0.178  0.00  0.00    -0.342 N 
ATOM      9  H   UNL     1      -5.696  -2.941   0.636  0.00  0.00    +0.144 HD
ATOM     10  H   UNL     1      -6.349  -4.034  -0.460  0.00  0.00    +0.144 HD
ENDBRANCH   4   8
BRANCH   5  11
ATOM     11  C   UNL     1      -5.098  -5.182  -2.632  0.00  0.00    +0.027 C 
ATOM     12  C   UNL     1      -4.691  -6.528  -2.663  0.00  0.00    +0.137 C 
BRANCH  11  13
ATOM     13  C   UNL     1      -6.408  -4.792  -3.196  0.00  0.00    -0.015 A 
ATOM     14  C   UNL     1      -6.470  -3.962  -4.317  0.00  0.00    +0.008 A 
ATOM     15  C   UNL     1      -7.696  -3.602  -4.838  0.00  0.00    +0.001 A 
ATOM     16  C   UNL     1      -8.862  -4.062  -4.252  0.00  0.00    +0.000 A 
ATOM     17  C   UNL     1      -8.807  -4.885  -3.141  0.00  0.00    +0.001 A 
ATOM     18  C   UNL     1      -7.588  -5.257  -2.613  0.00  0.00    +0.008 A 
ENDBRANCH  11  13
BRANCH  12  19
ATOM     19  C   UNL     1      -5.486  -7.500  -3.351  0.00  0.00    +0.111 C 
ATOM     20  N   UNL     1      -6.117  -8.272  -3.897  0.00  0.00    -0.190 NA
ENDBRANCH  12  19
BRANCH  12  21
ATOM     21  C   UNL     1      -3.483  -6.926  -2.007  0.00  0.00    +0.111 C 
ATOM     22  N   UNL     1      -2.524  -7.242  -1.486  0.00  0.00    -0.190 NA
ENDBRANCH  12  21
ENDBRANCH   5  11
BRANCH   1  23
ATOM     23  C   UNL     1      -1.249  -0.757  -0.076  0.00  0.00    +0.130 C 
BRANCH  23  25
ATOM     24  C   UNL     1       0.042   1.315  -0.117  0.00  0.00    +0.005 C 
ATOM     25  C   UNL     1       0.051   0.005  -0.104  0.00  0.00    -0.016 C 
ENDBRANCH  23  25
ENDBRANCH   1  23
TORSDOF 7
