REMARK  Name = ZINC07689077
REMARK  6 active torsions:
REMARK  status: ('A' for Active; 'I' for Inactive)
REMARK    1  A    between atoms: N_9  and  C_12
REMARK    2  A    between atoms: C_12  and  C_13
REMARK    3  A    between atoms: C_13  and  C_14
REMARK    4  A    between atoms: N_16  and  N_17
REMARK    5  A    between atoms: C_18  and  C_20
REMARK    6  A    between atoms: C_20  and  C_21
REMARK                            x       y       z     vdW  Elec       q    Type
REMARK                         _______ _______ _______ _____ _____    ______ ____
ROOT
ATOM      1  C   UNL     1      -8.268   1.276   2.889  0.00  0.00    +0.231 C 
ATOM      2  O   UNL     1      -8.856   0.575   2.092  0.00  0.00    -0.274 OA
ATOM      3  N   UNL     1      -6.984   1.621   2.665  0.00  0.00    -0.234 N 
ATOM      4  H   UNL     1      -6.515   2.181   3.302  0.00  0.00    +0.173 HD
ENDROOT
BRANCH   3   5
ATOM      5  N   UNL     1      -6.329   1.169   1.513  0.00  0.00    -0.234 N 
ATOM      6  C   UNL     1      -5.045   1.513   1.289  0.00  0.00    +0.230 C 
ATOM      7  O   UNL     1      -4.457   2.214   2.085  0.00  0.00    -0.274 OA
ATOM      8  H   UNL     1      -6.799   0.608   0.875  0.00  0.00    +0.173 HD
BRANCH   6   9
ATOM      9  C   UNL     1      -4.340   1.027   0.049  0.00  0.00    +0.104 C 
BRANCH   9  10
ATOM     10  C   UNL     1      -2.904   1.556   0.038  0.00  0.00    -0.020 C 
ATOM     11  C   UNL     1      -2.188   1.063  -1.221  0.00  0.00    +0.011 C 
ATOM     12  C   UNL     1      -0.753   1.593  -1.232  0.00  0.00    -0.010 C 
ATOM     13  C   UNL     1      -0.013   1.086   0.008  0.00  0.00    +0.007 C 
ATOM     14  C   UNL     1      -0.729   1.579   1.267  0.00  0.00    -0.010 C 
ATOM     15  C   UNL     1      -2.164   1.050   1.278  0.00  0.00    +0.011 C 
ATOM     16  C   UNL     1      -0.750   3.109   1.275  0.00  0.00    +0.007 C 
ATOM     17  C   UNL     1      -1.490   3.616   0.036  0.00  0.00    -0.010 C 
ATOM     18  C   UNL     1      -0.773   3.123  -1.223  0.00  0.00    +0.007 C 
ATOM     19  C   UNL     1      -2.925   3.086   0.047  0.00  0.00    +0.011 C 
ENDBRANCH   9  10
ENDBRANCH   6   9
ENDBRANCH   3   5
BRANCH   1  20
ATOM     20  C   UNL     1      -8.973   1.762   4.129  0.00  0.00    +0.117 C 
BRANCH  20  21
ATOM     21  C   UNL     1     -10.409   1.233   4.140  0.00  0.00    +0.126 C 
BRANCH  21  30
ATOM     22  C   UNL     1     -13.451   3.744   8.772  0.00  0.00    +0.001 A 
ATOM     23  C   UNL     1     -13.030   2.617   9.453  0.00  0.00    +0.001 A 
ATOM     24  C   UNL     1     -12.257   1.659   8.816  0.00  0.00    +0.014 A 
ATOM     25  C   UNL     1     -11.903   1.834   7.488  0.00  0.00    +0.049 A 
ATOM     26  C   UNL     1     -12.332   2.983   6.793  0.00  0.00    +0.049 A 
ATOM     27  C   UNL     1     -13.104   3.932   7.443  0.00  0.00    +0.014 A 
ATOM     28  C   UNL     1     -11.789   2.855   5.425  0.00  0.00    +0.254 C 
ATOM     29  O   UNL     1     -11.943   3.653   4.523  0.00  0.00    -0.270 OA
ATOM     30  N   UNL     1     -11.095   1.705   5.345  0.00  0.00    -0.234 N 
ATOM     31  C   UNL     1     -11.118   1.044   6.516  0.00  0.00    +0.254 C 
ATOM     32  O   UNL     1     -10.582  -0.023   6.739  0.00  0.00    -0.270 OA
ENDBRANCH  21  30
ENDBRANCH  20  21
ENDBRANCH   1  20
TORSDOF 6
