REMARK  Name = ZINC04313295
REMARK  6 active torsions:
REMARK  status: ('A' for Active; 'I' for Inactive)
REMARK    1  A    between atoms: C_1  and  C_2
REMARK    2  A    between atoms: C_4  and  C_26
REMARK    3  A    between atoms: C_6  and  N_8
REMARK    4  A    between atoms: C_15  and  C_25
REMARK    5  A    between atoms: C_22  and  O_23
REMARK    6  A    between atoms: O_23  and  C_24
REMARK                            x       y       z     vdW  Elec       q    Type
REMARK                         _______ _______ _______ _____ _____    ______ ____
ROOT
ATOM      1  N   UNL     1      -1.276   2.825   0.005  0.00  0.00    -0.216 N 
ATOM      2  C   UNL     1      -1.026   1.574  -0.393  0.00  0.00    +0.310 C 
ATOM      3  O   UNL     1      -1.934   0.908  -0.851  0.00  0.00    -0.252 OA
ATOM      4  N   UNL     1       0.197   1.024  -0.299  0.00  0.00    -0.292 N 
ATOM      5  C   UNL     1       1.329   1.837   0.175  0.00  0.00    +0.114 C 
ATOM      6  C   UNL     1       0.807   2.750   1.296  0.00  0.00    +0.096 C 
ATOM      7  C   UNL     1      -0.264   3.664   0.640  0.00  0.00    +0.185 C 
ATOM      8  O   UNL     1       0.369   4.509  -0.317  0.00  0.00    -0.464 OA
ATOM      9  C   UNL     1       1.277   3.966  -1.169  0.00  0.00    +0.170 A 
ATOM     10  C   UNL     1       1.785   2.694  -0.984  0.00  0.00    +0.018 A 
ATOM     11  C   UNL     1       2.724   2.185  -1.865  0.00  0.00    +0.009 A 
ATOM     12  C   UNL     1       3.155   2.942  -2.938  0.00  0.00    +0.004 A 
ATOM     13  C   UNL     1       2.648   4.213  -3.134  0.00  0.00    +0.049 A 
ATOM     14  C   UNL     1       1.711   4.728  -2.255  0.00  0.00    +0.162 A 
ATOM     15  C   UNL     1      -0.921   4.524   1.721  0.00  0.00    +0.079 C 
ATOM     16  H   UNL     1       0.333   0.096  -0.547  0.00  0.00    +0.151 HD
ENDROOT
BRANCH   1  22
ATOM     17  C   UNL     1      -5.927   3.359   1.509  0.00  0.00    +0.044 C 
ATOM     18  C   UNL     1      -4.830   3.623   0.509  0.00  0.00    -0.048 A 
ATOM     19  C   UNL     1      -5.090   4.384  -0.616  0.00  0.00    +0.006 A 
ATOM     20  C   UNL     1      -4.087   4.628  -1.535  0.00  0.00    -0.048 A 
ATOM     21  C   UNL     1      -2.821   4.113  -1.332  0.00  0.00    +0.027 A 
ATOM     22  C   UNL     1      -2.557   3.349  -0.203  0.00  0.00    +0.042 A 
ATOM     23  C   UNL     1      -3.568   3.101   0.716  0.00  0.00    +0.027 A 
ATOM     24  C   UNL     1      -4.374   5.458  -2.760  0.00  0.00    +0.044 C 
ENDBRANCH   1  22
BRANCH  14  25
ATOM     25  O   UNL     1       1.213   5.979  -2.450  0.00  0.00    -0.491 OA
ATOM     26  C   UNL     1       1.702   6.703  -3.580  0.00  0.00    +0.277 C 
ENDBRANCH  14  25
TORSDOF 2
