REMARK  Name = ZINC21364790
REMARK  13 active torsions:
REMARK  status: ('A' for Active; 'I' for Inactive)
REMARK    1  A    between atoms: C_1  and  C_2
REMARK    2  A    between atoms: C_2  and  C_3
REMARK    3  A    between atoms: C_3  and  C_4
REMARK    4  A    between atoms: C_4  and  N_5
REMARK    5  A    between atoms: N_5  and  C_6
REMARK    6  A    between atoms: N_5  and  C_8
REMARK    7  A    between atoms: C_6  and  C_7
REMARK    8  A    between atoms: C_8  and  C_9
REMARK    9  A    between atoms: C_9  and  N_10
REMARK   10  A    between atoms: C_16  and  C_29
REMARK   11  A    between atoms: C_19  and  C_20
REMARK   12  A    between atoms: C_19  and  C_21
REMARK   13  A    between atoms: N_23  and  C_24
REMARK                            x       y       z     vdW  Elec       q    Type
REMARK                         _______ _______ _______ _____ _____    ______ ____
ROOT
ATOM      1  N   UNL     1       0.541  -1.653  -3.273  0.00  0.00    -0.282 N 
ATOM      2  C   UNL     1       1.776  -2.119  -2.973  0.00  0.00    +0.264 C 
ATOM      3  O   UNL     1       2.196  -2.131  -1.830  0.00  0.00    -0.268 OA
ATOM      4  C   UNL     1       2.581  -2.608  -4.097  0.00  0.00    +0.105 A 
ATOM      5  C   UNL     1       3.766  -3.289  -4.120  0.00  0.00    +0.033 A 
ATOM      6  C   UNL     1       4.092  -3.511  -5.459  0.00  0.00    +0.032 A 
ATOM      7  C   UNL     1       3.094  -2.946  -6.237  0.00  0.00    +0.085 A 
ATOM      8  N   UNL     1       2.179  -2.383  -5.410  0.00  0.00    -0.331 N 
ATOM      9  C   UNL     1       0.957  -1.637  -5.723  0.00  0.00    +0.157 C 
ATOM     10  C   UNL     1      -0.055  -1.841  -4.591  0.00  0.00    +0.128 C 
ATOM     11  C   UNL     1      -0.624  -3.259  -4.678  0.00  0.00    +0.043 C 
ENDROOT
BRANCH   7  12
ATOM     12  C   UNL     1       3.037  -2.956  -7.706  0.00  0.00    +0.151 A 
ATOM     13  C   UNL     1       3.906  -3.599  -8.537  0.00  0.00    +0.051 A 
ATOM     14  C   UNL     1       3.474  -3.342  -9.851  0.00  0.00    +0.042 A 
ATOM     15  C   UNL     1       2.380  -2.558  -9.763  0.00  0.00    +0.196 A 
ATOM     16  O   UNL     1       2.119  -2.327  -8.466  0.00  0.00    -0.461 OA
ENDBRANCH   7  12
BRANCH  10  17
ATOM     17  C   UNL     1      -1.182  -0.855  -4.761  0.00  0.00    +0.238 C 
ATOM     18  O   UNL     1      -1.016   0.147  -5.423  0.00  0.00    -0.273 OA
ATOM     19  N   UNL     1      -2.375  -1.087  -4.178  0.00  0.00    -0.311 N 
ATOM     20  H   UNL     1      -2.504  -1.958  -3.518  0.00  0.00    +0.149 HD
BRANCH  19  21
ATOM     21  C   UNL     1      -3.499  -0.180  -4.423  0.00  0.00    +0.073 C 
ATOM     22  C   UNL     1      -3.481   0.973  -3.399  0.00  0.00    +0.022 C 
ATOM     23  C   UNL     1      -4.977   1.230  -3.090  0.00  0.00    +0.002 C 
ATOM     24  C   UNL     1      -5.575  -0.199  -3.084  0.00  0.00    +0.002 C 
ATOM     25  C   UNL     1      -4.830  -0.925  -4.223  0.00  0.00    +0.022 C 
ENDBRANCH  19  21
ENDBRANCH  10  17
BRANCH   1  26
ATOM     26  C   UNL     1      -0.221  -0.944  -2.243  0.00  0.00    +0.091 C 
BRANCH  26  27
ATOM     27  C   UNL     1       0.187   0.531  -2.230  0.00  0.00    -0.060 C 
BRANCH  27  28
ATOM     28  N   UNL     1      -0.489   1.217  -1.121  0.00  0.00    +0.381 N 
ATOM     29  H   UNL     1      -1.562   0.981  -1.181  0.00  0.00    -0.082 HD
BRANCH  28  30
ATOM     30  C   UNL     1       0.006   0.737   0.176  0.00  0.00    -0.082 C 
ATOM     31  C   UNL     1      -1.013   1.070   1.267  0.00  0.00    -0.017 C 
ENDBRANCH  28  30
BRANCH  28  32
ATOM     32  C   UNL     1      -0.341   2.674  -1.234  0.00  0.00    -0.079 C 
BRANCH  32  33
ATOM     33  C   UNL     1      -1.209   3.187  -2.385  0.00  0.00    -0.019 C 
BRANCH  33  35
ATOM     34  C   UNL     1      -1.846   5.201  -3.719  0.00  0.00    +0.004 C 
ATOM     35  C   UNL     1      -0.978   4.689  -2.568  0.00  0.00    -0.005 C 
ENDBRANCH  33  35
ENDBRANCH  32  33
ENDBRANCH  28  32
ENDBRANCH  27  28
ENDBRANCH  26  27
ENDBRANCH   1  26
TORSDOF 10
