REMARK  Name = ZINC45400842
REMARK  7 active torsions:
REMARK  status: ('A' for Active; 'I' for Inactive)
REMARK    1  A    between atoms: C_1  and  C_2
REMARK    2  A    between atoms: C_3  and  C_10
REMARK    3  A    between atoms: C_4  and  C_7
REMARK    4  A    between atoms: C_7  and  C_8
REMARK    5  A    between atoms: C_7  and  C_9
REMARK    6  A    between atoms: C_15  and  C_19
REMARK    7  A    between atoms: C_16  and  C_18
REMARK                            x       y       z     vdW  Elec       q    Type
REMARK                         _______ _______ _______ _____ _____    ______ ____
ROOT
ATOM      1  C   UNL     1      -0.004  -0.429  -2.587  0.00  0.00    +0.255 C 
ATOM      2  O   UNL     1       1.044  -0.235  -3.173  0.00  0.00    -0.270 OA
ATOM      3  N   UNL     1      -1.176  -0.244  -3.226  0.00  0.00    -0.261 N 
ATOM      4  C   UNL     1      -1.188   0.168  -4.551  0.00  0.00    +0.165 A 
ATOM      5  N   UNL     1      -2.217   0.408  -5.343  0.00  0.00    -0.224 NA
ATOM      6  C   UNL     1      -2.044   0.799  -6.596  0.00  0.00    +0.083 A 
ATOM      7  C   UNL     1      -0.776   0.957  -7.081  0.00  0.00    +0.016 A 
ATOM      8  S   UNL     1       0.187   0.523  -5.638  0.00  0.00    -0.057 S 
ATOM      9  C   UNL     1      -0.315   1.386  -8.450  0.00  0.00    +0.054 C 
ATOM     10  H   UNL     1      -2.012  -0.400  -2.759  0.00  0.00    +0.157 HD
ENDROOT
BRANCH   6  11
ATOM     11  C   UNL     1      -3.216   1.062  -7.467  0.00  0.00    +0.001 A 
ATOM     12  C   UNL     1      -3.165   2.078  -8.420  0.00  0.00    +0.011 A 
ATOM     13  C   UNL     1      -4.258   2.318  -9.228  0.00  0.00    +0.016 A 
ATOM     14  C   UNL     1      -5.403   1.552  -9.093  0.00  0.00    +0.018 A 
ATOM     15  C   UNL     1      -5.459   0.543  -8.147  0.00  0.00    +0.016 A 
ATOM     16  C   UNL     1      -4.370   0.290  -7.339  0.00  0.00    +0.011 A 
ATOM     17 BR   UNL     1      -6.897   1.887 -10.203  0.00  0.00    -0.050 Br
ENDBRANCH   6  11
BRANCH   1  20
ATOM     18  C   UNL     1      -0.018   1.503   0.010  0.00  0.00    +0.070 C 
ATOM     19  C   UNL     1       0.002  -0.004   0.002  0.00  0.00    +0.093 A 
ATOM     20  C   UNL     1       0.009  -0.867  -1.181  0.00  0.00    +0.102 A 
ATOM     21  C   UNL     1       0.028  -2.156  -0.729  0.00  0.00    +0.152 A 
ATOM     22  O   UNL     1       0.034  -2.126   0.606  0.00  0.00    -0.358 OA
ATOM     23  N   UNL     1       0.023  -0.782   1.044  0.00  0.00    -0.083 NA
BRANCH  21  24
ATOM     24  C   UNL     1       0.041  -3.394  -1.587  0.00  0.00    +0.052 C 
ATOM     25  C   UNL     1       1.303  -4.207  -1.290  0.00  0.00    +0.015 C 
ATOM     26  C   UNL     1      -1.196  -4.241  -1.279  0.00  0.00    +0.015 C 
ENDBRANCH  21  24
ENDBRANCH   1  20
TORSDOF 3
