REMARK  Name = ZINC11455645
REMARK  8 active torsions:
REMARK  status: ('A' for Active; 'I' for Inactive)
REMARK    1  A    between atoms: C_9  and  C_10
REMARK    2  A    between atoms: C_9  and  C_12
REMARK    3  A    between atoms: C_12  and  C_14
REMARK    4  A    between atoms: C_14  and  O_15
REMARK    5  A    between atoms: O_15  and  C_16
REMARK    6  A    between atoms: C_16  and  C_18
REMARK    7  A    between atoms: C_22  and  S_24
REMARK    8  A    between atoms: S_24  and  N_27
REMARK                            x       y       z     vdW  Elec       q    Type
REMARK                         _______ _______ _______ _____ _____    ______ ____
ROOT
ATOM      1  O   UNL     1      -2.014   5.273  -4.730  0.00  0.00    -0.453 OA
ENDROOT
BRANCH   1   2
ATOM      2  C   UNL     1      -1.296   4.896  -3.655  0.00  0.00    +0.340 C 
ATOM      3  O   UNL     1      -0.480   5.657  -3.173  0.00  0.00    -0.245 OA
BRANCH   2   4
ATOM      4  C   UNL     1      -1.501   3.559  -3.061  0.00  0.00    +0.061 A 
ATOM      5  C   UNL     1      -2.438   2.683  -3.612  0.00  0.00    +0.015 A 
ATOM      6  C   UNL     1      -2.623   1.435  -3.054  0.00  0.00    +0.003 A 
ATOM      7  C   UNL     1      -1.880   1.050  -1.952  0.00  0.00    +0.028 A 
ATOM      8  C   UNL     1      -0.954   1.915  -1.397  0.00  0.00    +0.106 A 
ATOM      9  C   UNL     1      -0.758   3.166  -1.946  0.00  0.00    +0.043 A 
BRANCH   8  10
ATOM     10  S   UNL     1      -0.017   1.417   0.010  0.00  0.00    +0.061 S 
ATOM     11  O   UNL     1       0.002  -0.004   0.002  0.00  0.00    -0.153 OA
ATOM     12  O   UNL     1       1.172   2.195   0.003  0.00  0.00    -0.153 OA
BRANCH  10  13
ATOM     13  N   UNL     1      -0.872   1.871   1.353  0.00  0.00    -0.177 NA
ATOM     14  C   UNL     1      -0.660   3.190   1.965  0.00  0.00    +0.109 C 
ATOM     15  C   UNL     1      -2.019   3.897   2.084  0.00  0.00    +0.017 C 
ATOM     16  C   UNL     1      -2.990   2.998   2.852  0.00  0.00    +0.003 C 
ATOM     17  C   UNL     1      -3.193   1.690   2.083  0.00  0.00    +0.017 C 
ATOM     18  C   UNL     1      -1.852   0.960   1.960  0.00  0.00    +0.109 C 
ENDBRANCH  10  13
ENDBRANCH   8  10
ENDBRANCH   2   4
ENDBRANCH   1   2
BRANCH   1  19
ATOM     19  C   UNL     1      -1.761   6.600  -5.261  0.00  0.00    +0.312 C 
BRANCH  19  20
ATOM     20  C   UNL     1      -2.650   6.843  -6.453  0.00  0.00    +0.214 C 
ATOM     21  O   UNL     1      -3.423   5.980  -6.821  0.00  0.00    -0.288 OA
BRANCH  20  30
ATOM     22  C   UNL     1      -5.801   9.652 -11.898  0.00  0.00    +0.002 A 
ATOM     23  C   UNL     1      -6.346   8.388 -11.749  0.00  0.00    +0.002 A 
ATOM     24  C   UNL     1      -5.918   7.561 -10.731  0.00  0.00    +0.025 A 
ATOM     25  C   UNL     1      -4.937   7.997  -9.851  0.00  0.00    +0.054 A 
ATOM     26  C   UNL     1      -4.387   9.272 -10.002  0.00  0.00    +0.054 A 
ATOM     27  C   UNL     1      -4.825  10.096 -11.029  0.00  0.00    +0.025 A 
ATOM     28  N   UNL     1      -3.443   9.432  -8.994  0.00  0.00    -0.300 N 
ATOM     29  C   UNL     1      -3.415   8.294  -8.253  0.00  0.00    +0.114 C 
ATOM     30  C   UNL     1      -2.585   8.067  -7.140  0.00  0.00    +0.133 C 
ATOM     31  N   UNL     1      -4.311   7.408  -8.759  0.00  0.00    -0.300 N 
ATOM     32  H   UNL     1      -2.897  10.220  -8.846  0.00  0.00    +0.153 HD
ATOM     33  H   UNL     1      -4.485   6.517  -8.417  0.00  0.00    +0.153 HD
BRANCH  30  34
ATOM     34  C   UNL     1      -1.674   9.084  -6.707  0.00  0.00    +0.106 C 
ATOM     35  N   UNL     1      -0.952   9.891  -6.363  0.00  0.00    -0.191 NA
ENDBRANCH  30  34
ENDBRANCH  20  30
ENDBRANCH  19  20
ENDBRANCH   1  19
TORSDOF 8
