REMARK  Name = ZINC22313859
REMARK  6 active torsions:
REMARK  status: ('A' for Active; 'I' for Inactive)
REMARK    1  A    between atoms: C_2  and  C_3
REMARK    2  A    between atoms: C_3  and  C_4
REMARK    3  A    between atoms: C_4  and  C_5
REMARK    4  A    between atoms: C_10  and  C_13
REMARK    5  A    between atoms: C_13  and  C_14
REMARK    6  A    between atoms: C_14  and  C_15
REMARK                            x       y       z     vdW  Elec       q    Type
REMARK                         _______ _______ _______ _____ _____    ______ ____
ROOT
ATOM      1  C   UNL     1       7.409   6.586  -2.769  0.00  0.00    +0.216 C 
ATOM      2  O   UNL     1       7.861   6.600  -3.894  0.00  0.00    -0.276 OA
ATOM      3  N   UNL     1       7.068   5.415  -2.194  0.00  0.00    -0.301 N 
ATOM      4  C   UNL     1       7.239   4.148  -2.918  0.00  0.00    +0.108 C 
ATOM      5  C   UNL     1       5.904   3.396  -2.916  0.00  0.00    +0.022 C 
ATOM      6  C   UNL     1       5.416   3.236  -1.475  0.00  0.00    -0.008 C 
ATOM      7  C   UNL     1       5.193   4.616  -0.853  0.00  0.00    +0.022 C 
ATOM      8  C   UNL     1       6.519   5.382  -0.832  0.00  0.00    +0.108 C 
ENDROOT
BRANCH   1   9
ATOM      9  C   UNL     1       7.228   7.877  -2.013  0.00  0.00    +0.100 C 
BRANCH   9  10
ATOM     10  C   UNL     1       7.687   9.047  -2.886  0.00  0.00    +0.036 C 
BRANCH  10  12
ATOM     11  C   UNL     1       8.522  11.149  -1.966  0.00  0.00    +0.004 C 
ATOM     12  C   UNL     1       7.506  10.338  -2.130  0.00  0.00    -0.034 C 
ENDBRANCH  10  12
ENDBRANCH   9  10
ENDBRANCH   1   9
BRANCH   6  13
ATOM     13  C   UNL     1       4.100   2.454  -1.466  0.00  0.00    +0.008 C 
BRANCH  13  14
ATOM     14  C   UNL     1       3.676   2.186  -0.021  0.00  0.00    +0.035 C 
BRANCH  14  15
ATOM     15  C   UNL     1       2.380   1.416  -0.013  0.00  0.00    -0.044 A 
ATOM     16  C   UNL     1       2.399   0.034  -0.021  0.00  0.00    +0.007 A 
ATOM     17  C   UNL     1       1.213  -0.677  -0.013  0.00  0.00    +0.050 A 
ATOM     18  C   UNL     1       0.002  -0.004   0.002  0.00  0.00    +0.166 A 
ATOM     19  C   UNL     1      -0.017   1.389   0.010  0.00  0.00    +0.166 A 
ATOM     20  C   UNL     1       1.176   2.094   0.002  0.00  0.00    +0.053 A 
ATOM     21  O   UNL     1      -1.316   1.807   0.019  0.00  0.00    -0.453 OA
ATOM     22  C   UNL     1      -2.092   0.666  -0.387  0.00  0.00    +0.466 C 
ATOM     23  O   UNL     1      -1.285  -0.458   0.012  0.00  0.00    -0.453 OA
ENDBRANCH  14  15
ENDBRANCH  13  14
ENDBRANCH   6  13
TORSDOF 6
