REMARK  Name = ZINC35991115
REMARK  15 active torsions:
REMARK  status: ('A' for Active; 'I' for Inactive)
REMARK    1  A    between atoms: C_1  and  C_2
REMARK    2  A    between atoms: C_2  and  N_3
REMARK    3  A    between atoms: C_4  and  C_26
REMARK    4  A    between atoms: C_5  and  C_21
REMARK    5  A    between atoms: C_6  and  C_11
REMARK    6  A    between atoms: C_14  and  C_17
REMARK    7  A    between atoms: C_17  and  C_18
REMARK    8  A    between atoms: C_17  and  C_19
REMARK    9  A    between atoms: C_17  and  C_20
REMARK   10  A    between atoms: C_21  and  O_23
REMARK   11  A    between atoms: O_23  and  C_24
REMARK   12  A    between atoms: C_24  and  C_25
REMARK   13  A    between atoms: C_26  and  N_27
REMARK   14  A    between atoms: N_27  and  C_28
REMARK   15  A    between atoms: N_27  and  C_29
REMARK                            x       y       z     vdW  Elec       q    Type
REMARK                         _______ _______ _______ _____ _____    ______ ____
ROOT
ATOM      1  N   UNL     1       0.591  -0.483  -1.196  0.00  0.00    -0.261 N 
ATOM      2  C   UNL     1      -0.254  -0.934  -2.169  0.00  0.00    +0.010 C 
ATOM      3  C   UNL     1       0.213  -1.619  -3.235  0.00  0.00    +0.076 C 
ATOM      4  C   UNL     1       1.706  -1.868  -3.314  0.00  0.00    +0.143 C 
ATOM      5  N   UNL     1       2.530  -1.339  -2.215  0.00  0.00    -0.288 N 
ATOM      6  C   UNL     1       1.917  -0.669  -1.218  0.00  0.00    +0.307 C 
ATOM      7  O   UNL     1       2.588  -0.226  -0.307  0.00  0.00    -0.252 OA
ATOM      8  H   UNL     1       3.491  -1.466  -2.209  0.00  0.00    +0.151 HD
ENDROOT
BRANCH   4   9
ATOM      9  C   UNL     1       2.209  -1.267  -4.601  0.00  0.00    -0.022 A 
ATOM     10  C   UNL     1       2.452   0.092  -4.681  0.00  0.00    +0.006 A 
ATOM     11  C   UNL     1       2.913   0.643  -5.862  0.00  0.00    +0.004 A 
ATOM     12  C   UNL     1       3.133  -0.164  -6.963  0.00  0.00    -0.042 A 
ATOM     13  C   UNL     1       2.890  -1.523  -6.882  0.00  0.00    +0.004 A 
ATOM     14  C   UNL     1       2.433  -2.075  -5.700  0.00  0.00    +0.006 A 
BRANCH  12  15
ATOM     15  C   UNL     1       3.635   0.437  -8.250  0.00  0.00    -0.013 C 
ATOM     16  C   UNL     1       4.989   1.105  -8.006  0.00  0.00    +0.015 C 
ATOM     17  C   UNL     1       3.791  -0.664  -9.300  0.00  0.00    +0.015 C 
ATOM     18  C   UNL     1       2.634   1.480  -8.750  0.00  0.00    +0.015 C 
ENDBRANCH  12  15
ENDBRANCH   4   9
BRANCH   1  20
ATOM     19  C   UNL     1       0.009   1.750  -0.384  0.00  0.00    +0.025 C 
ATOM     20  C   UNL     1       0.015   0.253  -0.067  0.00  0.00    +0.111 C 
ENDBRANCH   1  20
BRANCH   3  21
ATOM     21  C   UNL     1      -0.661  -2.088  -4.243  0.00  0.00    +0.339 C 
ATOM     22  O   UNL     1      -1.842  -1.797  -4.208  0.00  0.00    -0.245 OA
BRANCH  21  23
ATOM     23  O   UNL     1      -0.185  -2.859  -5.243  0.00  0.00    -0.462 OA
BRANCH  23  24
ATOM     24  C   UNL     1      -1.125  -3.298  -6.227  0.00  0.00    +0.229 C 
ATOM     25  C   UNL     1      -0.406  -4.153  -7.272  0.00  0.00    +0.048 C 
ENDBRANCH  23  24
ENDBRANCH  21  23
ENDBRANCH   3  21
BRANCH   2  26
ATOM     26  C   UNL     1      -1.732  -0.665  -2.050  0.00  0.00    -0.026 C 
BRANCH  26  27
ATOM     27  N   UNL     1      -2.409  -1.864  -1.538  0.00  0.00    +0.383 N 
ATOM     28  C   UNL     1      -1.919  -2.162  -0.185  0.00  0.00    -0.095 C 
ATOM     29  H   UNL     1      -2.214  -2.646  -2.145  0.00  0.00    -0.081 HD
BRANCH  27  30
ATOM     30  C   UNL     1      -3.858  -1.627  -1.493  0.00  0.00    -0.068 C 
ATOM     31  C   UNL     1      -4.562  -2.876  -0.959  0.00  0.00    -0.015 C 
ATOM     32  C   UNL     1      -6.072  -2.629  -0.912  0.00  0.00    -0.002 C 
ATOM     33  C   UNL     1      -6.582  -2.320  -2.321  0.00  0.00    -0.000 C 
ATOM     34  C   UNL     1      -5.877  -1.071  -2.856  0.00  0.00    -0.002 C 
ATOM     35  C   UNL     1      -4.368  -1.318  -2.902  0.00  0.00    -0.015 C 
ENDBRANCH  27  30
ENDBRANCH  26  27
ENDBRANCH   2  26
TORSDOF 9
