REMARK  Name = ZINC64502580
REMARK  11 active torsions:
REMARK  status: ('A' for Active; 'I' for Inactive)
REMARK    1  A    between atoms: C_1  and  C_2
REMARK    2  A    between atoms: C_4  and  C_35
REMARK    3  A    between atoms: C_6  and  C_34
REMARK    4  A    between atoms: C_9  and  C_10
REMARK    5  A    between atoms: C_15  and  C_18
REMARK    6  A    between atoms: C_18  and  C_19
REMARK    7  A    between atoms: N_21  and  C_22
REMARK    8  A    between atoms: C_22  and  C_23
REMARK    9  A    between atoms: C_23  and  C_24
REMARK   10  A    between atoms: C_35  and  O_37
REMARK   11  A    between atoms: O_37  and  C_38
REMARK                            x       y       z     vdW  Elec       q    Type
REMARK                         _______ _______ _______ _____ _____    ______ ____
ROOT
ATOM      1  C   UNL     1       0.302  -0.589   2.569  0.00  0.00    +0.261 C 
ATOM      2  O   UNL     1       0.662  -0.667   1.412  0.00  0.00    -0.269 OA
ATOM      3  N   UNL     1       1.127  -0.983   3.560  0.00  0.00    -0.297 N 
ATOM      4  C   UNL     1       2.520  -1.349   3.272  0.00  0.00    +0.108 C 
ATOM      5  C   UNL     1       2.790  -2.745   3.843  0.00  0.00    +0.023 C 
ATOM      6  C   UNL     1       2.430  -2.763   5.330  0.00  0.00    +0.001 C 
ATOM      7  C   UNL     1       0.941  -2.451   5.499  0.00  0.00    +0.023 C 
ATOM      8  C   UNL     1       0.652  -1.047   4.948  0.00  0.00    +0.108 C 
ENDROOT
BRANCH   1  14
ATOM      9  C   UNL     1      -2.779  -1.022   1.367  0.00  0.00    +0.015 C 
ATOM     10  C   UNL     1      -2.107   0.260   1.863  0.00  0.00    +0.055 C 
ATOM     11  C   UNL     1      -3.120   1.141   2.635  0.00  0.00    +0.130 C 
ATOM     12  C   UNL     1      -2.838   0.700   4.090  0.00  0.00    +0.117 C 
ATOM     13  N   UNL     1      -1.464   0.185   4.074  0.00  0.00    -0.279 NA
ATOM     14  C   UNL     1      -1.046  -0.061   2.892  0.00  0.00    +0.101 C 
ATOM     15  C   UNL     1      -2.948   1.896   5.038  0.00  0.00    +0.033 C 
BRANCH  11  16
ATOM     16  C   UNL     1      -2.824   2.606   2.442  0.00  0.00    +0.313 C 
ATOM     17  O   UNL     1      -1.891   2.948   1.754  0.00  0.00    -0.250 OA
BRANCH  16  18
ATOM     18  O   UNL     1      -3.596   3.530   3.035  0.00  0.00    -0.468 OA
ATOM     19  C   UNL     1      -3.257   4.900   2.809  0.00  0.00    +0.280 C 
ENDBRANCH  16  18
ENDBRANCH  11  16
ENDBRANCH   1  14
BRANCH   6  20
ATOM     20  C   UNL     1       2.731  -4.146   5.911  0.00  0.00    +0.099 C 
BRANCH  20  21
ATOM     21  C   UNL     1       2.493  -4.128   7.399  0.00  0.00    +0.213 C 
ATOM     22  O   UNL     1       2.119  -3.109   7.941  0.00  0.00    -0.276 OA
ATOM     23  N   UNL     1       2.695  -5.244   8.127  0.00  0.00    -0.315 N 
ATOM     24  H   UNL     1       2.994  -6.058   7.694  0.00  0.00    +0.149 HD
BRANCH  23  25
ATOM     25  C   UNL     1       2.463  -5.226   9.574  0.00  0.00    +0.108 C 
BRANCH  25  26
ATOM     26  C   UNL     1       2.764  -6.609  10.155  0.00  0.00    +0.052 C 
BRANCH  26  27
ATOM     27  C   UNL     1       2.526  -6.592  11.643  0.00  0.00    -0.040 C 
ATOM     28  C   UNL     1       1.400  -6.968  12.290  0.00  0.00    +0.000 A 
ATOM     29  C   UNL     1       0.109  -7.487  11.821  0.00  0.00    +0.030 A 
ATOM     30  C   UNL     1      -0.849  -7.781  12.730  0.00  0.00    +0.042 A 
ATOM     31  C   UNL     1      -0.640  -7.603  14.106  0.00  0.00    +0.022 A 
ATOM     32  C   UNL     1       0.518  -7.131  14.612  0.00  0.00    +0.027 A 
ATOM     33  C   UNL     1       1.595  -6.790  13.747  0.00  0.00    +0.043 A 
ATOM     34  N   UNL     1       2.795  -6.321  13.990  0.00  0.00    -0.380 N 
ATOM     35  C   UNL     1       3.500  -6.155  12.714  0.00  0.00    +0.144 C 
ATOM     36 CL   UNL     1      -2.377  -8.394  12.179  0.00  0.00    -0.084 Cl
ATOM     37  H   UNL     1       3.157  -6.121  14.868  0.00  0.00    +0.160 HD
ENDBRANCH  26  27
ENDBRANCH  25  26
ENDBRANCH  23  25
ENDBRANCH  20  21
ENDBRANCH   6  20
TORSDOF 8
