REMARK  Name = ZINC07837444
REMARK  9 active torsions:
REMARK  status: ('A' for Active; 'I' for Inactive)
REMARK    1  A    between atoms: C_1  and  C_2
REMARK    2  A    between atoms: C_9  and  C_11
REMARK    3  A    between atoms: C_14  and  S_16
REMARK    4  A    between atoms: S_16  and  C_17
REMARK    5  A    between atoms: C_17  and  C_19
REMARK    6  A    between atoms: C_17  and  C_20
REMARK    7  A    between atoms: N_25  and  C_26
REMARK    8  A    between atoms: C_26  and  C_27
REMARK    9  A    between atoms: C_26  and  C_28
REMARK                            x       y       z     vdW  Elec       q    Type
REMARK                         _______ _______ _______ _____ _____    ______ ____
ROOT
ATOM      1  C   UNL     1      -0.438   2.221   4.995  0.00  0.00    +0.256 A 
ATOM      2  N   UNL     1       0.741   1.917   5.489  0.00  0.00    -0.106 NA
ATOM      3  N   UNL     1       0.752   2.164   6.751  0.00  0.00    -0.101 NA
ATOM      4  C   UNL     1      -0.417   2.635   7.116  0.00  0.00    +0.278 A 
ATOM      5  O   UNL     1      -1.193   2.688   6.015  0.00  0.00    -0.410 OA
ENDROOT
BRANCH   1  13
ATOM      6  C   UNL     1      -0.149   0.967  -2.482  0.00  0.00    +0.008 C 
ATOM      7  C   UNL     1      -0.758   1.595  -1.226  0.00  0.00    -0.009 C 
ATOM      8  C   UNL     1      -2.239   1.218  -1.137  0.00  0.00    +0.009 C 
ATOM      9  C   UNL     1      -2.897   2.062  -0.035  0.00  0.00    +0.043 C 
ATOM     10  C   UNL     1      -2.029   2.007   1.181  0.00  0.00    -0.006 A 
ATOM     11  C   UNL     1      -0.733   1.581   1.260  0.00  0.00    -0.036 A 
ATOM     12  C   UNL     1      -0.136   1.624   2.510  0.00  0.00    +0.024 A 
ATOM     13  C   UNL     1      -0.856   2.085   3.592  0.00  0.00    +0.076 A 
ATOM     14  S   UNL     1      -2.430   2.475   2.843  0.00  0.00    -0.088 S 
ATOM     15  C   UNL     1      -0.013   1.086   0.008  0.00  0.00    +0.039 C 
ENDBRANCH   1  13
BRANCH   4  16
ATOM     16  S   UNL     1      -0.885   3.118   8.744  0.00  0.00    -0.053 S 
BRANCH  16  17
ATOM     17  C   UNL     1       0.654   2.768   9.630  0.00  0.00    +0.139 C 
ATOM     18  C   UNL     1       0.928   1.263   9.601  0.00  0.00    +0.029 C 
BRANCH  17  19
ATOM     19  C   UNL     1       0.527   3.228  11.059  0.00  0.00    +0.234 C 
ATOM     20  O   UNL     1      -0.567   3.312  11.574  0.00  0.00    -0.274 OA
ATOM     21  N   UNL     1       1.630   3.546  11.765  0.00  0.00    -0.239 N 
ATOM     22  C   UNL     1       1.517   3.958  13.044  0.00  0.00    +0.306 C 
ATOM     23  O   UNL     1       0.420   4.042  13.560  0.00  0.00    -0.252 OA
ATOM     24  N   UNL     1       2.620   4.276  13.750  0.00  0.00    -0.297 N 
ATOM     25  H   UNL     1       2.506   3.479  11.354  0.00  0.00    +0.159 HD
ATOM     26  H   UNL     1       3.495   4.208  13.338  0.00  0.00    +0.151 HD
BRANCH  24  27
ATOM     27  C   UNL     1       2.496   4.723  15.139  0.00  0.00    +0.068 C 
ATOM     28  C   UNL     1       2.434   3.505  16.064  0.00  0.00    +0.027 C 
ATOM     29  C   UNL     1       3.708   5.582  15.508  0.00  0.00    +0.027 C 
ENDBRANCH  24  27
ENDBRANCH  17  19
ENDBRANCH  16  17
ENDBRANCH   4  16
TORSDOF 5
