REMARK  Name = ZINC29787198
REMARK  12 active torsions:
REMARK  status: ('A' for Active; 'I' for Inactive)
REMARK    1  A    between atoms: C_1  and  C_2
REMARK    2  A    between atoms: C_7  and  C_8
REMARK    3  A    between atoms: N_10  and  C_11
REMARK    4  A    between atoms: C_11  and  C_13
REMARK    5  A    between atoms: C_11  and  C_16
REMARK    6  A    between atoms: C_13  and  C_14
REMARK    7  A    between atoms: C_13  and  C_15
REMARK    8  A    between atoms: N_18  and  C_19
REMARK    9  A    between atoms: C_21  and  C_27
REMARK   10  A    between atoms: C_21  and  C_28
REMARK   11  A    between atoms: C_23  and  C_25
REMARK   12  A    between atoms: C_23  and  C_26
REMARK                            x       y       z     vdW  Elec       q    Type
REMARK                         _______ _______ _______ _____ _____    ______ ____
ROOT
ATOM      1  C   UNL     1       0.415  -0.688  -3.314  0.00  0.00    +0.234 C 
ATOM      2  O   UNL     1       1.021   0.068  -4.042  0.00  0.00    -0.274 OA
ATOM      3  N   UNL     1      -0.781  -1.179  -3.696  0.00  0.00    -0.311 N 
ATOM      4  H   UNL     1      -1.331  -1.864  -3.035  0.00  0.00    +0.149 HD
ENDROOT
BRANCH   3   5
ATOM      5  C   UNL     1      -1.349  -0.798  -4.996  0.00  0.00    +0.070 C 
ATOM      6  C   UNL     1      -2.130   0.507  -4.841  0.00  0.00    +0.009 C 
ATOM      7  C   UNL     1      -2.750   0.917  -6.174  0.00  0.00    -0.072 C 
ATOM      8  N   UNL     1      -3.472  -0.162  -6.816  0.00  0.00    +0.386 N 
ATOM      9  C   UNL     1      -2.937  -1.508  -6.803  0.00  0.00    -0.072 C 
ATOM     10  C   UNL     1      -2.312  -1.888  -5.463  0.00  0.00    +0.009 C 
ATOM     11  C   UNL     1      -1.908  -1.705  -7.923  0.00  0.00    -0.010 C 
ATOM     12  C   UNL     1      -4.098  -2.491  -7.071  0.00  0.00    -0.010 C 
ATOM     13  C   UNL     1      -1.661   1.480  -7.095  0.00  0.00    -0.010 C 
ATOM     14  C   UNL     1      -3.747   2.063  -5.891  0.00  0.00    -0.010 C 
ATOM     15  H   UNL     1      -4.463  -0.268  -6.351  0.00  0.00    -0.084 HD
ATOM     16  H   UNL     1      -3.591   0.063  -7.887  0.00  0.00    -0.084 HD
ENDBRANCH   3   5
BRANCH   1  17
ATOM     17  C   UNL     1       0.998  -1.079  -1.980  0.00  0.00    +0.162 C 
BRANCH  17  20
ATOM     18  C   UNL     1       3.217  -0.959  -0.982  0.00  0.00    +0.245 C 
ATOM     19  O   UNL     1       2.977  -1.994  -0.393  0.00  0.00    -0.270 OA
ATOM     20  N   UNL     1       2.293  -0.418  -1.801  0.00  0.00    -0.300 N 
ATOM     21  H   UNL     1       2.511   0.519  -2.334  0.00  0.00    +0.150 HD
BRANCH  18  28
ATOM     22  C   UNL     1       5.089  -1.986   0.970  0.00  0.00    +0.044 C 
ATOM     23  C   UNL     1       5.435  -0.778   0.138  0.00  0.00    -0.038 A 
ATOM     24  C   UNL     1       6.654  -0.152   0.301  0.00  0.00    +0.004 A 
ATOM     25  C   UNL     1       6.973   0.956  -0.463  0.00  0.00    +0.000 A 
ATOM     26  C   UNL     1       6.074   1.444  -1.396  0.00  0.00    +0.001 A 
ATOM     27  C   UNL     1       4.855   0.824  -1.573  0.00  0.00    +0.013 A 
ATOM     28  C   UNL     1       4.524  -0.292  -0.801  0.00  0.00    +0.040 A 
ENDBRANCH  18  28
ENDBRANCH  17  20
BRANCH  17  29
ATOM     29  C   UNL     1       0.046  -0.649  -0.862  0.00  0.00    +0.012 C 
ATOM     30  C   UNL     1      -0.144   0.868  -0.910  0.00  0.00    +0.009 C 
ATOM     31  C   UNL     1       0.638  -1.046   0.492  0.00  0.00    +0.009 C 
ENDBRANCH  17  29
ENDBRANCH   1  17
TORSDOF 5
