REMARK  Name = ZINC12927740
REMARK  8 active torsions:
REMARK  status: ('A' for Active; 'I' for Inactive)
REMARK    1  A    between atoms: C_1  and  C_2
REMARK    2  A    between atoms: C_2  and  C_9
REMARK    3  A    between atoms: C_9  and  S_10
REMARK    4  A    between atoms: S_10  and  C_11
REMARK    5  A    between atoms: C_16  and  C_17
REMARK    6  A    between atoms: N_19  and  C_20
REMARK    7  A    between atoms: C_25  and  C_26
REMARK    8  A    between atoms: C_25  and  N_57
REMARK                            x       y       z     vdW  Elec       q    Type
REMARK                         _______ _______ _______ _____ _____    ______ ____
ROOT
ATOM      1  C   UNL     1       1.087   6.298   2.745  0.00  0.00    +0.020 A 
ATOM      2  C   UNL     1       1.863   5.527   3.602  0.00  0.00    +0.015 A 
ATOM      3  C   UNL     1       2.354   6.073   4.769  0.00  0.00    +0.001 A 
ATOM      4  C   UNL     1       2.079   7.392   5.098  0.00  0.00    +0.001 A 
ATOM      5  C   UNL     1       1.312   8.172   4.261  0.00  0.00    +0.014 A 
ATOM      6  C   UNL     1       0.811   7.636   3.071  0.00  0.00    +0.050 A 
ENDROOT
BRANCH   6   7
ATOM      7  C   UNL     1      -0.005   8.467   2.168  0.00  0.00    +0.245 C 
ATOM      8  O   UNL     1      -0.442   7.995   1.136  0.00  0.00    -0.270 OA
ATOM      9  N   UNL     1      -0.266   9.750   2.486  0.00  0.00    -0.310 N 
ATOM     10  H   UNL     1       0.082  10.127   3.309  0.00  0.00    +0.149 HD
BRANCH   9  11
ATOM     11  C   UNL     1      -1.077  10.577   1.589  0.00  0.00    +0.055 C 
ATOM     12  C   UNL     1      -0.188  11.226   0.508  0.00  0.00    +0.002 C 
ATOM     13  C   UNL     1      -0.345  12.747   0.720  0.00  0.00    -0.077 C 
ATOM     14  C   UNL     1      -1.697  11.760   2.362  0.00  0.00    -0.056 C 
ATOM     15  N   UNL     1      -0.759  12.855   2.123  0.00  0.00    +0.384 N 
ATOM     16  H   UNL     1       0.057  12.759   2.739  0.00  0.00    -0.081 HD
BRANCH  15  17
ATOM     17  C   UNL     1      -1.412  14.179   2.375  0.00  0.00    -0.043 C 
BRANCH  17  18
ATOM     18  C   UNL     1      -2.759  14.185   1.698  0.00  0.00    -0.064 A 
ATOM     19  C   UNL     1      -2.875  14.630   0.395  0.00  0.00    +0.002 A 
ATOM     20  C   UNL     1      -4.110  14.632  -0.227  0.00  0.00    +0.000 A 
ATOM     21  C   UNL     1      -5.229  14.199   0.458  0.00  0.00    +0.000 A 
ATOM     22  C   UNL     1      -5.114  13.759   1.763  0.00  0.00    +0.000 A 
ATOM     23  C   UNL     1      -3.879  13.752   2.384  0.00  0.00    +0.002 A 
ENDBRANCH  17  18
ENDBRANCH  15  17
ENDBRANCH   9  11
ENDBRANCH   6   7
BRANCH   1  24
ATOM     24  S   UNL     1       0.458   5.603   1.252  0.00  0.00    -0.122 S 
BRANCH  24  25
ATOM     25  C   UNL     1       1.073   3.897   1.270  0.00  0.00    +0.109 C 
BRANCH  25  27
ATOM     26  C   UNL     1       1.053   3.910  -1.245  0.00  0.00    +0.042 C 
ATOM     27  C   UNL     1       0.593   3.169   0.013  0.00  0.00    +0.119 C 
ATOM     28  C   UNL     1       1.093   1.738   0.001  0.00  0.00    +0.244 C 
ATOM     29  O   UNL     1       2.247   1.366  -0.012  0.00  0.00    -0.273 OA
ATOM     30  N   UNL     1      -0.011   0.966   0.007  0.00  0.00    -0.238 N 
ATOM     31  C   UNL     1      -1.128   1.702   0.016  0.00  0.00    +0.307 C 
ATOM     32  O   UNL     1      -2.248   1.231   0.019  0.00  0.00    -0.252 OA
ATOM     33  N   UNL     1      -0.873   3.023   0.025  0.00  0.00    -0.285 N 
ATOM     34  H   UNL     1       0.002  -0.004   0.002  0.00  0.00    +0.159 HD
ATOM     35  H   UNL     1      -1.526   3.740   0.035  0.00  0.00    +0.151 HD
ENDBRANCH  25  27
ENDBRANCH  24  25
ENDBRANCH   1  24
TORSDOF 7
