REMARK  Name = ZINC02277878
REMARK  8 active torsions:
REMARK  status: ('A' for Active; 'I' for Inactive)
REMARK    1  A    between atoms: C_4  and  C_7
REMARK    2  A    between atoms: C_7  and  N_40
REMARK    3  A    between atoms: C_8  and  C_10
REMARK    4  A    between atoms: C_8  and  N_14
REMARK    5  A    between atoms: C_8  and  N_40
REMARK    6  A    between atoms: C_15  and  C_17
REMARK    7  A    between atoms: C_19  and  N_26
REMARK    8  A    between atoms: C_21  and  N_23
REMARK                            x       y       z     vdW  Elec       q    Type
REMARK                         _______ _______ _______ _____ _____    ______ ____
ROOT
ATOM      1  N   UNL     1      -1.194   2.132   0.019  0.00  0.00    -0.321 N 
ATOM      2  C   UNL     1      -0.018   1.474   0.010  0.00  0.00    +0.243 C 
ATOM      3  O   UNL     1       1.026   2.096   0.004  0.00  0.00    -0.270 OA
ATOM      4  H   UNL     1      -2.028   1.636   0.021  0.00  0.00    +0.147 HD
ENDROOT
BRANCH   2   5
ATOM      5  C   UNL     1       0.002  -0.004   0.002  0.00  0.00    +0.041 A 
ATOM      6  C   UNL     1      -1.195  -0.721   0.015  0.00  0.00    +0.046 A 
ATOM      7  C   UNL     1      -1.169  -2.101   0.002  0.00  0.00    +0.129 A 
ATOM      8  C   UNL     1       0.040  -2.773  -0.013  0.00  0.00    +0.065 A 
ATOM      9  C   UNL     1       1.230  -2.068  -0.020  0.00  0.00    +0.129 A 
ATOM     10  C   UNL     1       1.218  -0.689  -0.013  0.00  0.00    +0.046 A 
BRANCH   9  11
ATOM     11  N   UNL     1       2.519  -2.796  -0.036  0.00  0.00    +0.057 N 
ATOM     12  O   UNL     1       3.568  -2.176  -0.044  0.00  0.00    -0.126 OA
ATOM     13  O   UNL     1       2.531  -4.013  -0.043  0.00  0.00    -0.126 OA
ENDBRANCH   9  11
BRANCH   7  14
ATOM     14  N   UNL     1      -2.438  -2.863   0.009  0.00  0.00    +0.057 N 
ATOM     15  O   UNL     1      -2.417  -4.081   0.003  0.00  0.00    -0.126 OA
ATOM     16  O   UNL     1      -3.503  -2.272   0.022  0.00  0.00    -0.126 OA
ENDBRANCH   7  14
ENDBRANCH   2   5
BRANCH   1  17
ATOM     17  C   UNL     1      -1.214   3.597   0.027  0.00  0.00    +0.068 C 
BRANCH  17  18
ATOM     18  C   UNL     1      -2.236   4.088   1.055  0.00  0.00    +0.194 C 
ATOM     19 CL   UNL     1      -1.780   3.484   2.692  0.00  0.00    -0.084 Cl
ATOM     20 CL   UNL     1      -2.260   5.890   1.065  0.00  0.00    -0.084 Cl
ATOM     21 CL   UNL     1      -3.872   3.467   0.619  0.00  0.00    -0.084 Cl
ENDBRANCH  17  18
BRANCH  17  22
ATOM     22  N   UNL     1      -1.595   4.089  -1.310  0.00  0.00    +0.397 N 
ATOM     23  H   UNL     1      -1.996   3.316  -1.854  0.00  0.00    -0.083 HD
ATOM     24  H   UNL     1      -2.294   4.835  -1.210  0.00  0.00    -0.083 HD
BRANCH  22  25
ATOM     25  C   UNL     1      -0.414   4.619  -2.017  0.00  0.00    -0.044 C 
BRANCH  25  29
ATOM     26  C   UNL     1      -1.602   6.020  -5.873  0.00  0.00    +0.000 A 
ATOM     27  C   UNL     1      -1.622   6.878  -4.790  0.00  0.00    +0.000 A 
ATOM     28  C   UNL     1      -1.238   6.425  -3.542  0.00  0.00    +0.002 A 
ATOM     29  C   UNL     1      -0.833   5.113  -3.377  0.00  0.00    -0.064 A 
ATOM     30  C   UNL     1      -0.808   4.256  -4.462  0.00  0.00    +0.002 A 
ATOM     31  C   UNL     1      -1.198   4.708  -5.709  0.00  0.00    +0.000 A 
ENDBRANCH  25  29
ENDBRANCH  22  25
ENDBRANCH  17  22
ENDBRANCH   1  17
TORSDOF 8
