REMARK  Name = ZINC12325238
REMARK  8 active torsions:
REMARK  status: ('A' for Active; 'I' for Inactive)
REMARK    1  A    between atoms: C_1  and  C_2
REMARK    2  A    between atoms: C_5  and  C_20
REMARK    3  A    between atoms: N_11  and  C_13
REMARK    4  A    between atoms: C_20  and  N_49
REMARK    5  A    between atoms: C_21  and  C_22
REMARK    6  A    between atoms: C_21  and  N_49
REMARK    7  A    between atoms: C_27  and  O_28
REMARK    8  A    between atoms: O_28  and  C_29
REMARK                            x       y       z     vdW  Elec       q    Type
REMARK                         _______ _______ _______ _____ _____    ______ ____
ROOT
ATOM      1  C   UNL     1      -3.148   6.145   6.044  0.00  0.00    +0.068 C 
ATOM      2  C   UNL     1      -3.847   4.809   6.065  0.00  0.00    +0.070 A 
ATOM      3  C   UNL     1      -3.922   3.897   4.987  0.00  0.00    +0.040 A 
ATOM      4  C   UNL     1      -3.421   3.912   3.665  0.00  0.00    +0.020 A 
ATOM      5  C   UNL     1      -3.674   2.854   2.849  0.00  0.00    +0.001 A 
ATOM      6  C   UNL     1      -4.417   1.759   3.327  0.00  0.00    +0.252 A 
ATOM      7  O   UNL     1      -4.635   0.812   2.590  0.00  0.00    -0.268 OA
ATOM      8  N   UNL     1      -4.889   1.743   4.588  0.00  0.00    -0.307 N 
ATOM      9  H   UNL     1      -5.398   0.979   4.901  0.00  0.00    +0.170 HD
ATOM     10  C   UNL     1      -4.656   2.795   5.432  0.00  0.00    +0.145 A 
ATOM     11  N   UNL     1      -5.000   3.046   6.722  0.00  0.00    -0.216 N 
ATOM     12  N   UNL     1      -4.485   4.298   7.080  0.00  0.00    -0.169 NA
ENDROOT
BRANCH  11  13
ATOM     13  C   UNL     1      -5.745   2.198   7.553  0.00  0.00    +0.068 A 
ATOM     14  C   UNL     1      -6.770   1.427   7.020  0.00  0.00    +0.030 A 
ATOM     15  C   UNL     1      -7.500   0.588   7.839  0.00  0.00    +0.040 A 
ATOM     16  C   UNL     1      -7.217   0.523   9.193  0.00  0.00    +0.124 A 
ATOM     17  C   UNL     1      -6.198   1.294   9.728  0.00  0.00    +0.040 A 
ATOM     18  C   UNL     1      -5.463   2.131   8.911  0.00  0.00    +0.030 A 
ATOM     19  F   UNL     1      -7.935  -0.295   9.994  0.00  0.00    -0.205 F 
ENDBRANCH  11  13
BRANCH   5  20
ATOM     20  C   UNL     1      -3.154   2.853   1.435  0.00  0.00    -0.041 C 
BRANCH  20  21
ATOM     21  N   UNL     1      -1.865   2.137   1.395  0.00  0.00    +0.385 N 
ATOM     22  H   UNL     1      -2.003   1.172   1.717  0.00  0.00    -0.085 HD
ATOM     23  H   UNL     1      -1.195   2.611   2.012  0.00  0.00    -0.085 HD
BRANCH  21  24
ATOM     24  C   UNL     1      -1.332   2.119   0.020  0.00  0.00    -0.043 C 
BRANCH  24  25
ATOM     25  C   UNL     1      -0.017   1.383   0.010  0.00  0.00    -0.023 A 
ATOM     26  C   UNL     1       1.171   2.089   0.002  0.00  0.00    +0.005 A 
ATOM     27  C   UNL     1       2.377   1.414  -0.013  0.00  0.00    +0.000 A 
ATOM     28  C   UNL     1       2.399   0.031  -0.021  0.00  0.00    +0.004 A 
ATOM     29  C   UNL     1       1.214  -0.679  -0.013  0.00  0.00    +0.046 A 
ATOM     30  C   UNL     1       0.002  -0.004   0.002  0.00  0.00    +0.121 A 
BRANCH  30  31
ATOM     31  O   UNL     1      -1.165  -0.701   0.009  0.00  0.00    -0.495 OA
ATOM     32  C   UNL     1      -1.069  -2.126   0.000  0.00  0.00    +0.277 C 
ENDBRANCH  30  31
ENDBRANCH  24  25
ENDBRANCH  21  24
ENDBRANCH  20  21
ENDBRANCH   5  20
TORSDOF 6
