REMARK  Name = ZINC38915622
REMARK  3 active torsions:
REMARK  status: ('A' for Active; 'I' for Inactive)
REMARK    1  A    between atoms: C_5  and  C_7
REMARK    2  A    between atoms: N_12  and  C_13
REMARK    3  A    between atoms: N_15  and  C_16
REMARK                            x       y       z     vdW  Elec       q    Type
REMARK                         _______ _______ _______ _____ _____    ______ ____
ROOT
ATOM      1  C   UNL     1       1.216  -2.156  -0.006  0.00  0.00    +0.194 C 
ATOM      2  N   UNL     1      -0.136  -2.710  -0.249  0.00  0.00    -0.289 N 
ATOM      3  N   UNL     1      -0.642  -3.395   0.611  0.00  0.00    -0.153 NA
ATOM      4  C   UNL     1      -0.048  -3.703   1.815  0.00  0.00    +0.203 C 
ATOM      5  N   UNL     1      -0.512  -4.435   2.811  0.00  0.00    -0.136 NA
ATOM      6  S   UNL     1       1.523  -2.849   1.675  0.00  0.00    -0.056 S 
ATOM      7  H   UNL     1      -0.606  -2.528  -1.079  0.00  0.00    +0.184 HD
ENDROOT
BRANCH   1  12
ATOM      8  C   UNL     1      -0.020   1.410   0.054  0.00  0.00    +0.000 A 
ATOM      9  C   UNL     1       1.169   2.115   0.047  0.00  0.00    +0.001 A 
ATOM     10  C   UNL     1       2.374   1.438   0.022  0.00  0.00    +0.015 A 
ATOM     11  C   UNL     1       2.389   0.055   0.005  0.00  0.00    +0.019 A 
ATOM     12  C   UNL     1       1.200  -0.649   0.013  0.00  0.00    -0.000 A 
ATOM     13  C   UNL     1      -0.005   0.028   0.037  0.00  0.00    +0.007 A 
ATOM     14  I   UNL     1       4.215  -0.971  -0.033  0.00  0.00    -0.043 I 
ENDBRANCH   1  12
BRANCH   5  15
ATOM     15  C   UNL     1       0.232  -4.618   3.915  0.00  0.00    +0.330 C 
ATOM     16  O   UNL     1       1.335  -4.109   3.997  0.00  0.00    -0.250 OA
ATOM     17  N   UNL     1      -0.243  -5.366   4.931  0.00  0.00    -0.265 N 
ATOM     18  H   UNL     1      -1.146  -5.718   4.894  0.00  0.00    +0.157 HD
BRANCH  17  19
ATOM     19  C   UNL     1       0.568  -5.634   6.040  0.00  0.00    +0.070 A 
ATOM     20  C   UNL     1       1.470  -4.679   6.490  0.00  0.00    +0.026 A 
ATOM     21  C   UNL     1       2.268  -4.947   7.585  0.00  0.00    +0.002 A 
ATOM     22  C   UNL     1       2.171  -6.164   8.234  0.00  0.00    +0.003 A 
ATOM     23  C   UNL     1       1.275  -7.119   7.790  0.00  0.00    +0.040 A 
ATOM     24  C   UNL     1       0.468  -6.855   6.698  0.00  0.00    +0.145 A 
ATOM     25  F   UNL     1      -0.413  -7.785   6.268  0.00  0.00    -0.204 F 
ENDBRANCH  17  19
ENDBRANCH   5  15
TORSDOF 3
