REMARK  Name = ZINC19861390
REMARK  9 active torsions:
REMARK  status: ('A' for Active; 'I' for Inactive)
REMARK    1  A    between atoms: C_1  and  O_2
REMARK    2  A    between atoms: O_2  and  C_3
REMARK    3  A    between atoms: C_3  and  C_5
REMARK    4  A    between atoms: C_8  and  C_11
REMARK    5  A    between atoms: N_12  and  N_13
REMARK    6  A    between atoms: C_14  and  C_16
REMARK    7  A    between atoms: C_16  and  N_17
REMARK    8  A    between atoms: N_20  and  C_23
REMARK    9  A    between atoms: C_23  and  C_24
REMARK                            x       y       z     vdW  Elec       q    Type
REMARK                         _______ _______ _______ _____ _____    ______ ____
ROOT
ATOM      1  N   UNL     1      -6.240   5.982   0.066  0.00  0.00    -0.209 N 
ATOM      2  C   UNL     1      -6.259   7.330   0.073  0.00  0.00    +0.216 C 
ATOM      3  O   UNL     1      -5.217   7.950   0.072  0.00  0.00    -0.276 OA
ATOM      4  H   UNL     1      -7.186   5.419   0.067  0.00  0.00    +0.177 HD
ENDROOT
BRANCH   1   6
ATOM      5  C   UNL     1      -5.000   4.000   0.048  0.00  0.00    +0.138 C 
ATOM      6  N   UNL     1      -5.018   5.298   0.056  0.00  0.00    -0.188 NA
BRANCH   5  10
ATOM      7  C   UNL     1      -1.302   1.931   0.019  0.00  0.00    +0.059 A 
ATOM      8  C   UNL     1      -1.321   3.329   0.032  0.00  0.00    +0.015 A 
ATOM      9  C   UNL     1      -2.513   3.996   0.037  0.00  0.00    +0.010 A 
ATOM     10  C   UNL     1      -3.715   3.280   0.038  0.00  0.00    -0.005 A 
ATOM     11  C   UNL     1      -3.695   1.882   0.030  0.00  0.00    +0.010 A 
ATOM     12  C   UNL     1      -2.503   1.215   0.021  0.00  0.00    +0.015 A 
BRANCH   7  13
ATOM     13  C   UNL     1      -0.014   1.211   0.009  0.00  0.00    +0.339 C 
ATOM     14  O   UNL     1       0.002  -0.004   0.002  0.00  0.00    -0.245 OA
BRANCH  13  16
ATOM     15  C   UNL     1       2.372   1.126  -0.015  0.00  0.00    +0.280 C 
ATOM     16  O   UNL     1       1.143   1.900   0.001  0.00  0.00    -0.464 OA
ENDBRANCH  13  16
ENDBRANCH   7  13
ENDBRANCH   5  10
ENDBRANCH   1   6
BRANCH   2  17
ATOM     17  C   UNL     1      -7.574   8.065   0.084  0.00  0.00    +0.020 C 
BRANCH  17  18
ATOM     18  N   UNL     1      -7.325   9.513   0.091  0.00  0.00    +0.387 N 
ATOM     19  C   UNL     1      -6.685   9.931   1.346  0.00  0.00    -0.063 C 
ATOM     20  C   UNL     1      -6.371  11.428   1.281  0.00  0.00    +0.066 C 
ATOM     21  N   UNL     1      -7.614  12.177   1.053  0.00  0.00    -0.302 NA
ATOM     22  C   UNL     1      -8.255  11.759  -0.202  0.00  0.00    +0.066 C 
ATOM     23  C   UNL     1      -8.569  10.262  -0.137  0.00  0.00    -0.063 C 
ATOM     24  H   UNL     1      -6.635   9.740  -0.735  0.00  0.00    -0.081 HD
BRANCH  21  25
ATOM     25  C   UNL     1      -7.365  13.624   1.060  0.00  0.00    +0.119 C 
BRANCH  25  26
ATOM     26  C   UNL     1      -6.940  14.054   2.441  0.00  0.00    -0.033 A 
ATOM     27  C   UNL     1      -7.889  14.452   3.364  0.00  0.00    +0.006 A 
ATOM     28  C   UNL     1      -7.500  14.841   4.631  0.00  0.00    +0.020 A 
ATOM     29  C   UNL     1      -6.160  14.843   4.973  0.00  0.00    +0.041 A 
ATOM     30  C   UNL     1      -5.210  14.450   4.047  0.00  0.00    +0.020 A 
ATOM     31  C   UNL     1      -5.600  14.056   2.781  0.00  0.00    +0.006 A 
ATOM     32 CL   UNL     1      -5.670  15.337   6.564  0.00  0.00    -0.084 Cl
ENDBRANCH  25  26
ENDBRANCH  21  25
ENDBRANCH  17  18
ENDBRANCH   2  17
TORSDOF 8
