REMARK  Name = ZINC33320879
REMARK  10 active torsions:
REMARK  status: ('A' for Active; 'I' for Inactive)
REMARK    1  A    between atoms: C_1  and  C_2
REMARK    2  A    between atoms: C_7  and  O_8
REMARK    3  A    between atoms: O_8  and  C_9
REMARK    4  A    between atoms: C_9  and  C_10
REMARK    5  A    between atoms: C_10  and  C_12
REMARK    6  A    between atoms: C_10  and  O_36
REMARK    7  A    between atoms: C_12  and  N_13
REMARK    8  A    between atoms: C_21  and  C_22
REMARK    9  A    between atoms: N_27  and  C_29
REMARK   10  A    between atoms: C_29  and  C_30
REMARK                            x       y       z     vdW  Elec       q    Type
REMARK                         _______ _______ _______ _____ _____    ______ ____
ROOT
ATOM      1  N   UNL     1       2.269  -2.208   5.335  0.00  0.00    -0.325 N 
ATOM      2  C   UNL     1       2.834  -1.508   6.383  0.00  0.00    +0.069 A 
ATOM      3  C   UNL     1       3.636  -1.861   7.460  0.00  0.00    +0.028 A 
ATOM      4  C   UNL     1       4.036  -0.894   8.358  0.00  0.00    +0.002 A 
ATOM      5  C   UNL     1       3.643   0.426   8.192  0.00  0.00    +0.002 A 
ATOM      6  C   UNL     1       2.854   0.791   7.138  0.00  0.00    +0.030 A 
ATOM      7  C   UNL     1       2.436  -0.171   6.215  0.00  0.00    +0.089 A 
ATOM      8  N   UNL     1       1.670  -0.124   5.095  0.00  0.00    -0.232 NA
ATOM      9  C   UNL     1       1.576  -1.315   4.579  0.00  0.00    +0.116 A 
ENDROOT
BRANCH   9  10
ATOM     10  C   UNL     1       0.805  -1.656   3.330  0.00  0.00    +0.081 C 
ATOM     11  C   UNL     1      -0.686  -1.272   3.477  0.00  0.00    +0.108 C 
ATOM     12  C   UNL     1      -1.077  -0.772   2.104  0.00  0.00    +0.217 C 
ATOM     13  O   UNL     1      -2.218  -0.636   1.714  0.00  0.00    -0.276 OA
ATOM     14  N   UNL     1       0.022  -0.500   1.381  0.00  0.00    -0.296 N 
ATOM     15  C   UNL     1       1.245  -0.769   2.146  0.00  0.00    +0.119 C 
BRANCH  14  16
ATOM     16  C   UNL     1       0.002  -0.004   0.002  0.00  0.00    +0.142 C 
BRANCH  16  17
ATOM     17  C   UNL     1      -0.018   1.503   0.010  0.00  0.00    -0.030 A 
ATOM     18  C   UNL     1      -1.225   2.178   0.020  0.00  0.00    +0.005 A 
ATOM     19  C   UNL     1      -1.244   3.560   0.033  0.00  0.00    +0.000 A 
ATOM     20  C   UNL     1      -0.056   4.267   0.025  0.00  0.00    +0.000 A 
ATOM     21  C   UNL     1       1.151   3.592   0.010  0.00  0.00    +0.000 A 
ATOM     22  C   UNL     1       1.169   2.210   0.003  0.00  0.00    +0.005 A 
ENDBRANCH  16  17
ENDBRANCH  14  16
ENDBRANCH   9  10
BRANCH   1  23
ATOM     23  C   UNL     1       2.396  -3.646   5.083  0.00  0.00    +0.158 C 
BRANCH  23  24
ATOM     24  C   UNL     1       3.619  -3.903   4.201  0.00  0.00    +0.171 C 
BRANCH  24  25
ATOM     25  O   UNL     1       4.804  -3.538   4.912  0.00  0.00    -0.387 OA
ATOM     26  H   UNL     1       4.940  -2.503   5.260  0.00  0.00    +0.210 HD
ENDBRANCH  24  25
BRANCH  24  27
ATOM     27  C   UNL     1       3.681  -5.387   3.835  0.00  0.00    +0.262 C 
BRANCH  27  28
ATOM     28  O   UNL     1       4.755  -5.607   2.918  0.00  0.00    -0.489 OA
BRANCH  28  35
ATOM     29  C   UNL     1       6.873  -6.063   1.106  0.00  0.00    +0.047 C 
ATOM     30  C   UNL     1       5.974  -7.167   1.599  0.00  0.00    -0.009 A 
ATOM     31  C   UNL     1       6.169  -8.464   1.164  0.00  0.00    +0.007 A 
ATOM     32  C   UNL     1       5.344  -9.477   1.616  0.00  0.00    +0.000 A 
ATOM     33  C   UNL     1       4.322  -9.195   2.505  0.00  0.00    +0.004 A 
ATOM     34  C   UNL     1       4.126  -7.901   2.946  0.00  0.00    +0.046 A 
ATOM     35  C   UNL     1       4.949  -6.882   2.489  0.00  0.00    +0.124 A 
ENDBRANCH  28  35
ENDBRANCH  27  28
ENDBRANCH  24  27
ENDBRANCH  23  24
ENDBRANCH   1  23
TORSDOF 9
