REMARK  Name = ZINC13065205
REMARK  11 active torsions:
REMARK  status: ('A' for Active; 'I' for Inactive)
REMARK    1  A    between atoms: C_1  and  C_2
REMARK    2  A    between atoms: C_2  and  C_3
REMARK    3  A    between atoms: C_3  and  C_5
REMARK    4  A    between atoms: C_3  and  N_75
REMARK    5  A    between atoms: N_9  and  C_10
REMARK    6  A    between atoms: C_16  and  C_17
REMARK    7  A    between atoms: C_16  and  N_75
REMARK    8  A    between atoms: C_26  and  C_27
REMARK    9  A    between atoms: C_26  and  N_75
REMARK   10  A    between atoms: C_30  and  C_40
REMARK   11  A    between atoms: C_33  and  C_39
REMARK                            x       y       z     vdW  Elec       q    Type
REMARK                         _______ _______ _______ _____ _____    ______ ____
ROOT
ATOM      1  N   UNL     1       0.085   2.313   1.355  0.00  0.00    +0.392 N 
ATOM      2  H   UNL     1       0.440   2.056   2.284  0.00  0.00    -0.080 HD
ENDROOT
BRANCH   1   3
ATOM      3  C   UNL     1       0.475   3.708   1.062  0.00  0.00    +0.003 C 
BRANCH   3   4
ATOM      4  C   UNL     1       0.054   4.092  -0.333  0.00  0.00    +0.138 A 
ATOM      5  N   UNL     1       0.021   3.310  -1.385  0.00  0.00    -0.115 NA
ATOM      6  N   UNL     1      -0.394   4.006  -2.386  0.00  0.00    -0.023 NA
ATOM      7  N   UNL     1      -0.627   5.213  -2.001  0.00  0.00    -0.044 NA
ATOM      8  N   UNL     1      -0.368   5.304  -0.740  0.00  0.00    -0.228 N 
BRANCH   8   9
ATOM      9  C   UNL     1      -0.504   6.503   0.091  0.00  0.00    +0.111 C 
ATOM     10  C   UNL     1      -1.914   7.075  -0.066  0.00  0.00    +0.027 C 
ATOM     11  C   UNL     1      -2.056   8.327   0.802  0.00  0.00    +0.002 C 
ATOM     12  C   UNL     1      -1.029   9.372   0.362  0.00  0.00    +0.000 C 
ATOM     13  C   UNL     1       0.381   8.800   0.519  0.00  0.00    +0.002 C 
ATOM     14  C   UNL     1       0.523   7.548  -0.349  0.00  0.00    +0.027 C 
ENDBRANCH   8   9
ENDBRANCH   3   4
BRANCH   3  16
ATOM     15  C   UNL     1       2.414   3.524   2.626  0.00  0.00    +0.002 C 
ATOM     16  C   UNL     1       1.995   3.835   1.188  0.00  0.00    -0.011 C 
ENDBRANCH   3  16
ENDBRANCH   1   3
BRANCH   1  17
ATOM     17  C   UNL     1      -1.387   2.189   1.352  0.00  0.00    -0.041 C 
BRANCH  17  18
ATOM     18  C   UNL     1      -1.928   2.816   2.611  0.00  0.00    -0.060 A 
ATOM     19  C   UNL     1      -1.956   2.089   3.787  0.00  0.00    +0.005 A 
ATOM     20  C   UNL     1      -2.446   2.662   4.946  0.00  0.00    +0.050 A 
ATOM     21  C   UNL     1      -2.922   3.963   4.928  0.00  0.00    +0.166 A 
ATOM     22  C   UNL     1      -2.900   4.693   3.742  0.00  0.00    +0.166 A 
ATOM     23  C   UNL     1      -2.402   4.114   2.586  0.00  0.00    +0.051 A 
ATOM     24  O   UNL     1      -3.418   5.933   3.983  0.00  0.00    -0.453 OA
ATOM     25  C   UNL     1      -4.132   5.816   5.228  0.00  0.00    +0.466 C 
ATOM     26  O   UNL     1      -3.454   4.746   5.912  0.00  0.00    -0.453 OA
ENDBRANCH  17  18
ENDBRANCH   1  17
BRANCH   1  27
ATOM     27  C   UNL     1       0.671   1.402   0.349  0.00  0.00    -0.036 C 
BRANCH  27  28
ATOM     28  C   UNL     1       0.609  -0.007   0.878  0.00  0.00    +0.001 A 
ATOM     29  C   UNL     1      -0.424  -0.814   0.531  0.00  0.00    +0.017 A 
ATOM     30  C   UNL     1      -0.453  -2.180   1.058  0.00  0.00    +0.002 A 
ATOM     31  C   UNL     1      -1.490  -3.060   0.730  0.00  0.00    -0.041 A 
ATOM     32  C   UNL     1      -1.489  -4.327   1.242  0.00  0.00    +0.004 A 
ATOM     33  C   UNL     1      -0.469  -4.748   2.084  0.00  0.00    +0.005 A 
ATOM     34  C   UNL     1       0.562  -3.898   2.420  0.00  0.00    -0.026 A 
ATOM     35  C   UNL     1       0.583  -2.603   1.911  0.00  0.00    +0.052 A 
ATOM     36  N   UNL     1       1.603  -1.732   2.230  0.00  0.00    -0.322 N 
ATOM     37  H   UNL     1       2.316  -2.026   2.818  0.00  0.00    +0.169 HD
ATOM     38  C   UNL     1       1.623  -0.481   1.737  0.00  0.00    +0.251 A 
ATOM     39  O   UNL     1       2.540   0.262   2.041  0.00  0.00    -0.268 OA
ATOM     40  C   UNL     1       1.663  -4.369   3.336  0.00  0.00    +0.046 C 
ATOM     41  C   UNL     1      -2.602  -2.613  -0.183  0.00  0.00    +0.044 C 
ENDBRANCH  27  28
ENDBRANCH   1  27
TORSDOF 8
