REMARK  Name = ZINC33034054
REMARK  10 active torsions:
REMARK  status: ('A' for Active; 'I' for Inactive)
REMARK    1  A    between atoms: C_1  and  C_2
REMARK    2  A    between atoms: C_2  and  C_3
REMARK    3  A    between atoms: C_3  and  C_5
REMARK    4  A    between atoms: C_3  and  N_6
REMARK    5  A    between atoms: C_7  and  C_9
REMARK    6  A    between atoms: C_12  and  N_27
REMARK    7  A    between atoms: C_13  and  N_15
REMARK    8  A    between atoms: N_15  and  S_16
REMARK    9  A    between atoms: S_16  and  C_19
REMARK   10  A    between atoms: C_22  and  C_26
REMARK                            x       y       z     vdW  Elec       q    Type
REMARK                         _______ _______ _______ _____ _____    ______ ____
ROOT
ATOM      1  C   UNL     1      -1.673  -0.524  -0.044  0.00  0.00    +0.039 A 
ATOM      2  C   UNL     1      -3.005  -0.139  -0.222  0.00  0.00    +0.015 A 
ATOM      3  C   UNL     1      -4.010  -1.079  -0.157  0.00  0.00    +0.026 A 
ATOM      4  C   UNL     1      -3.704  -2.411   0.097  0.00  0.00    +0.052 A 
ATOM      5  C   UNL     1      -2.375  -2.802   0.281  0.00  0.00    +0.070 A 
ATOM      6  C   UNL     1      -1.363  -1.863   0.211  0.00  0.00    +0.039 A 
ENDROOT
BRANCH   4   7
ATOM      7  N   UNL     1      -4.724  -3.358   0.167  0.00  0.00    -0.332 N 
ATOM      8  C   UNL     1      -6.043  -2.710   0.195  0.00  0.00    +0.086 C 
ATOM      9  C   UNL     1      -7.129  -3.777   0.352  0.00  0.00    -0.063 C 
ATOM     10  N   UNL     1      -7.038  -4.732  -0.761  0.00  0.00    +0.381 N 
ATOM     11  C   UNL     1      -5.719  -5.380  -0.789  0.00  0.00    -0.063 C 
ATOM     12  C   UNL     1      -4.633  -4.313  -0.946  0.00  0.00    +0.086 C 
ATOM     13  H   UNL     1      -7.810  -5.506  -0.644  0.00  0.00    -0.086 HD
ATOM     14  H   UNL     1      -7.192  -4.202  -1.713  0.00  0.00    -0.086 HD
ENDBRANCH   4   7
BRANCH   1  16
ATOM     15  N   UNL     1      -0.897   1.773  -0.365  0.00  0.00    -0.309 N 
ATOM     16  C   UNL     1      -0.597   0.482  -0.119  0.00  0.00    +0.244 C 
ATOM     17  O   UNL     1       0.561   0.146   0.040  0.00  0.00    -0.270 OA
ATOM     18  H   UNL     1      -1.944   2.076  -0.510  0.00  0.00    +0.149 HD
BRANCH  15  19
ATOM     19  C   UNL     1       0.172   2.772  -0.441  0.00  0.00    +0.070 C 
ATOM     20  C   UNL     1       0.504   3.270   0.967  0.00  0.00    +0.028 C 
BRANCH  19  22
ATOM     21  C   UNL     1      -0.502   3.474  -2.741  0.00  0.00    +0.005 C 
ATOM     22  C   UNL     1      -0.289   3.949  -1.302  0.00  0.00    +0.018 C 
ENDBRANCH  19  22
ENDBRANCH  15  19
ENDBRANCH   1  16
BRANCH   5  23
ATOM     23  N   UNL     1      -2.069  -4.145   0.536  0.00  0.00    -0.214 N 
ATOM     24  H   UNL     1      -1.976  -4.856  -0.298  0.00  0.00    +0.174 HD
BRANCH  23  25
ATOM     25  S   UNL     1      -1.845  -4.662   2.094  0.00  0.00    +0.072 S 
ATOM     26  O   UNL     1      -1.575  -6.055   2.024  0.00  0.00    -0.150 OA
ATOM     27  O   UNL     1      -0.950  -3.741   2.702  0.00  0.00    -0.150 OA
BRANCH  25  28
ATOM     28  C   UNL     1      -3.388  -4.489   2.926  0.00  0.00    +0.110 A 
ATOM     29  C   UNL     1      -3.690  -3.311   3.584  0.00  0.00    +0.029 A 
ATOM     30  C   UNL     1      -4.903  -3.172   4.234  0.00  0.00    +0.007 A 
ATOM     31  C   UNL     1      -5.809  -4.216   4.235  0.00  0.00    -0.032 A 
ATOM     32  C   UNL     1      -5.505  -5.397   3.582  0.00  0.00    +0.046 A 
ATOM     33  C   UNL     1      -4.294  -5.532   2.927  0.00  0.00    +0.049 A 
ATOM     34 CL   UNL     1      -6.643  -6.708   3.583  0.00  0.00    -0.083 Cl
ATOM     35  C   UNL     1      -7.129  -4.067   4.947  0.00  0.00    +0.045 C 
ENDBRANCH  25  28
ENDBRANCH  23  25
ENDBRANCH   5  23
TORSDOF 7
