REMARK  Name = ZINC05556427
REMARK  6 active torsions:
REMARK  status: ('A' for Active; 'I' for Inactive)
REMARK    1  A    between atoms: C_5  and  C_7
REMARK    2  A    between atoms: C_7  and  C_9
REMARK    3  A    between atoms: C_7  and  N_20
REMARK    4  A    between atoms: C_18  and  O_19
REMARK    5  A    between atoms: N_20  and  C_21
REMARK    6  A    between atoms: C_22  and  O_26
REMARK                            x       y       z     vdW  Elec       q    Type
REMARK                         _______ _______ _______ _____ _____    ______ ____
ROOT
ATOM      1  C   UNL     1       1.361   5.887   0.021  0.00  0.00    +0.139 C 
ENDROOT
BRANCH   1   2
ATOM      2  C   UNL     1       1.368   7.355   0.362  0.00  0.00    +0.021 A 
ATOM      3  C   UNL     1       1.418   8.296  -0.663  0.00  0.00    +0.010 A 
ATOM      4  C   UNL     1       1.425   9.630  -0.388  0.00  0.00    +0.010 A 
ATOM      5  C   UNL     1       1.382  10.067   0.946  0.00  0.00    +0.004 A 
ATOM      6  C   UNL     1       1.388  11.437   1.269  0.00  0.00    +0.011 A 
ATOM      7  C   UNL     1       1.344  11.788   2.588  0.00  0.00    +0.020 A 
ATOM      8  C   UNL     1       1.296  10.800   3.569  0.00  0.00    +0.111 A 
ATOM      9  N   UNL     1       1.290   9.525   3.264  0.00  0.00    -0.251 NA
ATOM     10  C   UNL     1       1.331   9.115   1.993  0.00  0.00    +0.113 A 
ATOM     11  C   UNL     1       1.320   7.741   1.671  0.00  0.00    +0.148 A 
BRANCH  11  12
ATOM     12  O   UNL     1       1.266   6.809   2.657  0.00  0.00    -0.504 OA
ATOM     13  H   UNL     1       2.132   6.473   2.928  0.00  0.00    +0.292 HD
ENDBRANCH  11  12
ENDBRANCH   1   2
BRANCH   1  18
ATOM     14  C   UNL     1       1.288   5.450  -3.729  0.00  0.00    +0.001 A 
ATOM     15  C   UNL     1       2.636   5.358  -4.024  0.00  0.00    +0.003 A 
ATOM     16  C   UNL     1       3.573   5.437  -3.011  0.00  0.00    +0.039 A 
ATOM     17  C   UNL     1       3.161   5.608  -1.700  0.00  0.00    +0.129 A 
ATOM     18  C   UNL     1       1.811   5.700  -1.405  0.00  0.00    +0.012 A 
ATOM     19  C   UNL     1       0.876   5.616  -2.420  0.00  0.00    +0.008 A 
ATOM     20  F   UNL     1       4.075   5.686  -0.708  0.00  0.00    -0.205 F 
ENDBRANCH   1  18
BRANCH   1  21
ATOM     21  N   UNL     1       0.005   5.355   0.179  0.00  0.00    -0.317 N 
ATOM     22  H   UNL     1      -0.760   5.943   0.083  0.00  0.00    +0.148 HD
BRANCH  21  23
ATOM     23  C   UNL     1      -0.184   4.006   0.466  0.00  0.00    +0.139 A 
ATOM     24  C   UNL     1      -1.478   3.505   0.616  0.00  0.00    +0.155 A 
ATOM     25  C   UNL     1      -1.650   2.158   0.896  0.00  0.00    +0.050 A 
ATOM     26  C   UNL     1      -0.521   1.361   1.028  0.00  0.00    +0.021 A 
ATOM     27  C   UNL     1       0.728   1.924   0.867  0.00  0.00    +0.084 A 
ATOM     28  N   UNL     1       0.937   3.239   0.586  0.00  0.00    -0.347 N 
ATOM     29  H   UNL     1       1.879   3.630   0.471  0.00  0.00    +0.167 HD
BRANCH  24  30
ATOM     30  O   UNL     1      -2.555   4.325   0.483  0.00  0.00    -0.503 OA
ATOM     31  H   UNL     1      -2.897   4.383  -0.419  0.00  0.00    +0.292 HD
ENDBRANCH  24  30
ENDBRANCH  21  23
ENDBRANCH   1  21
TORSDOF 6
