REMARK  Name = ZINC37323105
REMARK  4 active torsions:
REMARK  status: ('A' for Active; 'I' for Inactive)
REMARK    1  A    between atoms: C_1  and  C_2
REMARK    2  A    between atoms: C_7  and  N_12
REMARK    3  A    between atoms: C_9  and  C_11
REMARK    4  A    between atoms: C_13  and  C_15
REMARK                            x       y       z     vdW  Elec       q    Type
REMARK                         _______ _______ _______ _____ _____    ______ ____
ROOT
ATOM      1  N   UNL     1       1.471  -2.526   2.420  0.00  0.00    -0.308 N 
ATOM      2  C   UNL     1       1.207  -3.754   2.907  0.00  0.00    +0.244 C 
ATOM      3  O   UNL     1       0.380  -4.460   2.362  0.00  0.00    -0.270 OA
ATOM      4  H   UNL     1       2.131  -1.963   2.855  0.00  0.00    +0.149 HD
ENDROOT
BRANCH   2   5
ATOM      5  C   UNL     1       1.920  -4.243   4.103  0.00  0.00    +0.037 A 
ATOM      6  C   UNL     1       2.867  -3.431   4.734  0.00  0.00    +0.015 A 
ATOM      7  C   UNL     1       3.529  -3.893   5.847  0.00  0.00    +0.024 A 
ATOM      8  C   UNL     1       3.259  -5.167   6.346  0.00  0.00    +0.030 A 
ATOM      9  C   UNL     1       2.316  -5.977   5.725  0.00  0.00    -0.026 A 
ATOM     10  C   UNL     1       1.648  -5.515   4.609  0.00  0.00    +0.018 A 
ATOM     11  C   UNL     1       1.995  -7.353   6.247  0.00  0.00    +0.038 C 
ATOM     12  C   UNL     1       3.132  -7.869   7.128  0.00  0.00    +0.023 C 
ATOM     13  C   UNL     1       3.466  -6.804   8.180  0.00  0.00    +0.102 C 
ATOM     14  N   UNL     1       3.949  -5.610   7.473  0.00  0.00    -0.344 N 
ATOM     15  H   UNL     1       4.736  -5.138   7.785  0.00  0.00    +0.146 HD
ENDBRANCH   2   5
BRANCH   1  21
ATOM     16  C   UNL     1      -0.019   1.526   0.010  0.00  0.00    +0.008 C 
ATOM     17  C   UNL     1       0.002  -0.004   0.002  0.00  0.00    -0.009 C 
ATOM     18  C   UNL     1       0.718  -0.497  -1.257  0.00  0.00    +0.003 C 
ATOM     19  C   UNL     1       0.739  -2.027  -1.265  0.00  0.00    +0.002 C 
ATOM     20  C   UNL     1       1.479  -2.534  -0.026  0.00  0.00    +0.022 C 
ATOM     21  C   UNL     1       0.763  -2.041   1.233  0.00  0.00    +0.076 C 
ATOM     22  C   UNL     1       0.742  -0.511   1.242  0.00  0.00    +0.009 C 
ATOM     23  C   UNL     1       0.026  -0.018   2.500  0.00  0.00    +0.009 C 
ENDBRANCH   1  21
TORSDOF 2
