REMARK  Name = ZINC39942111
REMARK  13 active torsions:
REMARK  status: ('A' for Active; 'I' for Inactive)
REMARK    1  A    between atoms: C_1  and  C_2
REMARK    2  A    between atoms: C_2  and  C_4
REMARK    3  A    between atoms: C_2  and  C_10
REMARK    4  A    between atoms: C_4  and  C_5
REMARK    5  A    between atoms: C_5  and  C_6
REMARK    6  A    between atoms: C_6  and  C_7
REMARK    7  A    between atoms: C_7  and  C_8
REMARK    8  A    between atoms: C_7  and  C_9
REMARK    9  A    between atoms: C_16  and  C_37
REMARK   10  A    between atoms: C_24  and  O_36
REMARK   11  A    between atoms: C_26  and  O_35
REMARK   12  A    between atoms: C_27  and  C_34
REMARK   13  A    between atoms: C_30  and  O_33
REMARK                            x       y       z     vdW  Elec       q    Type
REMARK                         _______ _______ _______ _____ _____    ______ ____
ROOT
ATOM      1  C   UNL     1       0.749  -0.545  -1.191  0.00  0.00    -0.002 C 
ATOM      2  C   UNL     1      -0.034  -0.276  -2.492  0.00  0.00    +0.004 C 
ATOM      3  C   UNL     1      -0.122  -1.625  -3.238  0.00  0.00    +0.004 C 
ATOM      4  C   UNL     1       0.032  -2.687  -2.108  0.00  0.00    -0.001 C 
ATOM      5  C   UNL     1       1.107  -2.037  -1.216  0.00  0.00    -0.026 C 
ATOM      6  C   UNL     1       1.174  -2.642   0.168  0.00  0.00    +0.007 C 
ATOM      7  C   UNL     1      -0.198  -2.637   0.840  0.00  0.00    +0.005 C 
ATOM      8  C   UNL     1      -1.167  -3.447  -0.029  0.00  0.00    +0.001 C 
ATOM      9  C   UNL     1      -1.319  -2.758  -1.391  0.00  0.00    -0.001 C 
ATOM     10  C   UNL     1      -2.311  -3.525  -2.269  0.00  0.00    +0.038 C 
ATOM     11  C   UNL     1      -3.676  -3.575  -1.582  0.00  0.00    +0.147 C 
ATOM     12  C   UNL     1      -3.597  -2.851  -0.236  0.00  0.00    +0.100 C 
ATOM     13  C   UNL     1      -2.524  -3.522   0.676  0.00  0.00    +0.002 C 
ATOM     14  C   UNL     1      -2.432  -2.814   2.029  0.00  0.00    +0.012 C 
ATOM     15  C   UNL     1      -3.787  -2.886   2.736  0.00  0.00    +0.032 C 
ATOM     16  C   UNL     1      -4.848  -2.199   1.874  0.00  0.00    +0.117 C 
ATOM     17  C   UNL     1      -4.962  -2.916   0.454  0.00  0.00    +0.069 C 
ATOM     18  C   UNL     1      -2.907  -4.988   0.891  0.00  0.00    +0.014 C 
ATOM     19  C   UNL     1       2.474  -2.208  -1.880  0.00  0.00    +0.012 C 
ENDROOT
BRANCH   1  21
ATOM     20  C   UNL     1      -0.624   1.212  -0.064  0.00  0.00    +0.008 C 
ATOM     21  C   UNL     1      -0.125  -0.232   0.025  0.00  0.00    -0.010 C 
BRANCH  21  22
ATOM     22  C   UNL     1       0.697  -0.410   1.303  0.00  0.00    +0.003 C 
BRANCH  22  23
ATOM     23  C   UNL     1      -0.086   0.146   2.494  0.00  0.00    +0.001 C 
BRANCH  23  24
ATOM     24  C   UNL     1       0.674  -0.153   3.788  0.00  0.00    +0.003 C 
BRANCH  24  25
ATOM     25  C   UNL     1      -0.108   0.403   4.979  0.00  0.00    -0.017 C 
ATOM     26  C   UNL     1      -1.438  -0.343   5.109  0.00  0.00    +0.007 C 
ATOM     27  C   UNL     1       0.709   0.215   6.259  0.00  0.00    +0.007 C 
ENDBRANCH  24  25
ENDBRANCH  23  24
ENDBRANCH  22  23
ENDBRANCH  21  22
ENDBRANCH   1  21
BRANCH  16  28
ATOM     28  O   UNL     1      -6.114  -2.264   2.535  0.00  0.00    -0.392 OA
ATOM     29  H   UNL     1      -6.127  -1.833   3.401  0.00  0.00    +0.210 HD
ENDBRANCH  16  28
BRANCH  12  30
ATOM     30  O   UNL     1      -3.235  -1.485  -0.449  0.00  0.00    -0.385 OA
ATOM     31  H   UNL     1      -3.859  -0.994  -1.001  0.00  0.00    +0.210 HD
ENDBRANCH  12  30
BRANCH  11  32
ATOM     32  O   UNL     1      -4.649  -2.936  -2.410  0.00  0.00    -0.389 OA
ATOM     33  H   UNL     1      -4.753  -3.344  -3.281  0.00  0.00    +0.210 HD
ENDBRANCH  11  32
TORSDOF 8
