REMARK  Name = ZINC22407127
REMARK  9 active torsions:
REMARK  status: ('A' for Active; 'I' for Inactive)
REMARK    1  A    between atoms: C_1  and  C_2
REMARK    2  A    between atoms: C_2  and  C_3
REMARK    3  A    between atoms: C_3  and  C_5
REMARK    4  A    between atoms: C_3  and  N_6
REMARK    5  A    between atoms: N_6  and  C_7
REMARK    6  A    between atoms: C_7  and  C_8
REMARK    7  A    between atoms: C_14  and  C_16
REMARK    8  A    between atoms: C_16  and  C_17
REMARK    9  A    between atoms: C_17  and  C_18
REMARK                            x       y       z     vdW  Elec       q    Type
REMARK                         _______ _______ _______ _____ _____    ______ ____
ROOT
ATOM      1  N   UNL     1      -4.106  -2.141  -0.377  0.00  0.00    -0.294 N 
ATOM      2  C   UNL     1      -3.679  -1.044   0.281  0.00  0.00    +0.216 C 
ATOM      3  O   UNL     1      -4.159  -0.758   1.358  0.00  0.00    -0.276 OA
ENDROOT
BRANCH   1   4
ATOM      4  C   UNL     1      -3.526  -2.486  -1.677  0.00  0.00    +0.073 C 
ATOM      5  C   UNL     1      -4.600  -2.368  -2.761  0.00  0.00    +0.028 C 
BRANCH   4   7
ATOM      6  C   UNL     1      -1.841  -4.011  -0.640  0.00  0.00    +0.005 C 
ATOM      7  C   UNL     1      -2.999  -3.922  -1.636  0.00  0.00    +0.019 C 
ENDBRANCH   4   7
ENDBRANCH   1   4
BRANCH   1   8
ATOM      8  C   UNL     1      -5.148  -2.987   0.209  0.00  0.00    +0.143 C 
BRANCH   8   9
ATOM      9  C   UNL     1      -6.503  -2.418  -0.123  0.00  0.00    -0.030 A 
ATOM     10  C   UNL     1      -7.037  -1.407   0.653  0.00  0.00    +0.005 A 
ATOM     11  C   UNL     1      -8.278  -0.881   0.345  0.00  0.00    +0.000 A 
ATOM     12  C   UNL     1      -8.989  -1.374  -0.733  0.00  0.00    +0.000 A 
ATOM     13  C   UNL     1      -8.458  -2.389  -1.506  0.00  0.00    +0.000 A 
ATOM     14  C   UNL     1      -7.214  -2.911  -1.201  0.00  0.00    +0.005 A 
ENDBRANCH   8   9
ENDBRANCH   1   8
BRANCH   2  15
ATOM     15  C   UNL     1      -2.607  -0.173  -0.322  0.00  0.00    +0.097 C 
BRANCH  15  16
ATOM     16  C   UNL     1      -2.310   0.995   0.620  0.00  0.00    +0.022 C 
BRANCH  16  17
ATOM     17  C   UNL     1      -1.222   1.879   0.009  0.00  0.00    +0.080 C 
ATOM     18  C   UNL     1      -1.014   3.116   0.890  0.00  0.00    +0.049 C 
ATOM     19  C   UNL     1       0.233   3.841   0.456  0.00  0.00    -0.025 A 
ATOM     20  C   UNL     1       0.302   5.217   0.559  0.00  0.00    +0.005 A 
ATOM     21  C   UNL     1       1.460   5.882   0.199  0.00  0.00    +0.000 A 
ATOM     22  C   UNL     1       2.553   5.171  -0.262  0.00  0.00    +0.002 A 
ATOM     23  C   UNL     1       2.487   3.797  -0.375  0.00  0.00    +0.023 A 
ATOM     24  C   UNL     1       1.319   3.128  -0.032  0.00  0.00    +0.037 A 
ATOM     25  N   UNL     1       1.246   1.737  -0.154  0.00  0.00    -0.285 N 
ATOM     26  C   UNL     1       0.065   1.101  -0.080  0.00  0.00    +0.221 C 
ATOM     27  O   UNL     1       0.034  -0.111  -0.088  0.00  0.00    -0.275 OA
ATOM     28  H   UNL     1       2.163   1.151  -0.313  0.00  0.00    +0.155 HD
ENDBRANCH  16  17
ENDBRANCH  15  16
ENDBRANCH   2  15
TORSDOF 7
