REMARK  Name = ZINC12794142
REMARK  7 active torsions:
REMARK  status: ('A' for Active; 'I' for Inactive)
REMARK    1  A    between atoms: C_1  and  O_2
REMARK    2  A    between atoms: O_2  and  C_3
REMARK    3  A    between atoms: C_8  and  N_9
REMARK    4  A    between atoms: C_18  and  S_19
REMARK    5  A    between atoms: S_19  and  C_20
REMARK    6  A    between atoms: C_20  and  C_21
REMARK    7  A    between atoms: N_23  and  C_24
REMARK                            x       y       z     vdW  Elec       q    Type
REMARK                         _______ _______ _______ _____ _____    ______ ____
ROOT
ATOM      1  N   UNL     1       0.798   1.699  -4.645  0.00  0.00    -0.252 N 
ATOM      2  C   UNL     1       0.717   1.458  -3.323  0.00  0.00    +0.268 A 
ATOM      3  O   UNL     1       1.669   0.992  -2.720  0.00  0.00    -0.267 OA
ATOM      4  C   UNL     1      -0.502   1.756  -2.638  0.00  0.00    +0.076 A 
ATOM      5  C   UNL     1      -0.806   1.573  -1.209  0.00  0.00    -0.023 A 
ATOM      6  C   UNL     1      -2.032   1.933  -0.798  0.00  0.00    -0.004 A 
ATOM      7  S   UNL     1      -2.852   2.526  -2.260  0.00  0.00    -0.073 S 
ATOM      8  C   UNL     1      -1.535   2.289  -3.423  0.00  0.00    +0.117 A 
ATOM      9  N   UNL     1      -1.393   2.504  -4.726  0.00  0.00    -0.215 NA
ATOM     10  C   UNL     1      -0.260   2.221  -5.336  0.00  0.00    +0.178 A 
ATOM     11  C   UNL     1      -2.228   1.705   0.677  0.00  0.00    +0.043 C 
ATOM     12  C   UNL     1      -0.795   1.549   1.238  0.00  0.00    +0.010 C 
ATOM     13  C   UNL     1      -0.029   1.044   0.000  0.00  0.00    +0.037 C 
ENDROOT
BRANCH   1  19
ATOM     14  C   UNL     1       2.983   2.379  -5.438  0.00  0.00    +0.144 A 
ATOM     15  C   UNL     1       4.158   2.087  -6.112  0.00  0.00    +0.048 A 
ATOM     16  C   UNL     1       4.342   0.837  -6.672  0.00  0.00    +0.004 A 
ATOM     17  C   UNL     1       3.355  -0.126  -6.562  0.00  0.00    +0.002 A 
ATOM     18  C   UNL     1       2.183   0.155  -5.886  0.00  0.00    +0.030 A 
ATOM     19  C   UNL     1       1.989   1.410  -5.327  0.00  0.00    +0.093 A 
BRANCH  14  21
ATOM     20  C   UNL     1       3.863   4.552  -5.040  0.00  0.00    +0.277 C 
ATOM     21  O   UNL     1       2.801   3.608  -4.887  0.00  0.00    -0.493 OA
ENDBRANCH  14  21
ENDBRANCH   1  19
BRANCH  10  22
ATOM     22  S   UNL     1      -0.106   2.519  -7.066  0.00  0.00    -0.078 S 
BRANCH  22  23
ATOM     23  C   UNL     1      -1.752   3.183  -7.418  0.00  0.00    +0.173 C 
BRANCH  23  24
ATOM     24  C   UNL     1      -1.855   3.520  -8.883  0.00  0.00    +0.227 C 
ATOM     25  O   UNL     1      -0.908   3.329  -9.617  0.00  0.00    -0.275 OA
ATOM     26  N   UNL     1      -2.999   4.032  -9.378  0.00  0.00    -0.285 N 
ATOM     27  H   UNL     1      -3.777   4.122  -8.807  0.00  0.00    +0.155 HD
BRANCH  26  28
ATOM     28  C   UNL     1      -3.064   4.435 -10.719  0.00  0.00    +0.035 A 
ATOM     29  C   UNL     1      -3.834   5.536 -11.075  0.00  0.00    +0.025 A 
ATOM     30  C   UNL     1      -3.897   5.941 -12.393  0.00  0.00    +0.029 A 
ATOM     31  C   UNL     1      -3.201   5.241 -13.367  0.00  0.00    +0.067 A 
ATOM     32  C   UNL     1      -2.431   4.132 -13.012  0.00  0.00    +0.069 A 
ATOM     33  C   UNL     1      -2.365   3.731 -11.687  0.00  0.00    +0.051 A 
ATOM     34  N   UNL     1      -1.860   3.646 -14.186  0.00  0.00    -0.306 N 
ATOM     35  H   UNL     1      -1.271   2.878 -14.256  0.00  0.00    +0.170 HD
ATOM     36  C   UNL     1      -2.263   4.424 -15.209  0.00  0.00    +0.325 A 
ATOM     37  O   UNL     1      -1.944   4.272 -16.373  0.00  0.00    -0.247 OA
ATOM     38  N   UNL     1      -3.073   5.396 -14.747  0.00  0.00    -0.306 N 
ATOM     39  H   UNL     1      -3.495   6.085 -15.283  0.00  0.00    +0.170 HD
ENDBRANCH  26  28
ENDBRANCH  23  24
ENDBRANCH  22  23
ENDBRANCH  10  22
TORSDOF 6
