REMARK  Name = ZINC03461803
REMARK  11 active torsions:
REMARK  status: ('A' for Active; 'I' for Inactive)
REMARK    1  A    between atoms: C_1  and  C_2
REMARK    2  A    between atoms: C_2  and  C_3
REMARK    3  A    between atoms: C_8  and  N_9
REMARK    4  A    between atoms: C_10  and  C_12
REMARK    5  A    between atoms: C_12  and  N_13
REMARK    6  A    between atoms: N_13  and  C_14
REMARK    7  A    between atoms: C_15  and  C_17
REMARK    8  A    between atoms: C_17  and  N_18
REMARK    9  A    between atoms: C_21  and  C_25
REMARK   10  A    between atoms: C_21  and  C_26
REMARK   11  A    between atoms: C_29  and  C_32
REMARK                            x       y       z     vdW  Elec       q    Type
REMARK                         _______ _______ _______ _____ _____    ______ ____
ROOT
ATOM      1  N   UNL     1       3.600   1.721   0.092  0.00  0.00    -0.294 N 
ATOM      2  C   UNL     1       4.125   2.262   1.348  0.00  0.00    +0.132 C 
ATOM      3  C   UNL     1       4.171   2.063  -1.080  0.00  0.00    +0.234 C 
ATOM      4  O   UNL     1       3.736   1.615  -2.119  0.00  0.00    -0.274 OA
ENDROOT
BRANCH   1   5
ATOM      5  C   UNL     1       2.455   0.807   0.111  0.00  0.00    +0.203 C 
BRANCH   5   7
ATOM      6  N   UNL     1      -0.011   0.966   0.007  0.00  0.00    -0.284 N 
ATOM      7  C   UNL     1       1.178   1.600   0.009  0.00  0.00    +0.235 C 
ATOM      8  O   UNL     1       1.220   2.810  -0.070  0.00  0.00    -0.274 OA
ATOM      9  H   UNL     1      -0.043  -0.003  -0.013  0.00  0.00    +0.155 HD
BRANCH   6  15
ATOM     10  C   UNL     1      -2.371   1.153  -0.472  0.00  0.00    -0.026 A 
ATOM     11  C   UNL     1      -3.542   1.886  -0.450  0.00  0.00    +0.005 A 
ATOM     12  C   UNL     1      -3.547   3.168   0.068  0.00  0.00    +0.000 A 
ATOM     13  C   UNL     1      -2.382   3.720   0.567  0.00  0.00    +0.002 A 
ATOM     14  C   UNL     1      -1.209   2.991   0.553  0.00  0.00    +0.023 A 
ATOM     15  C   UNL     1      -1.199   1.705   0.028  0.00  0.00    +0.037 A 
BRANCH  10  17
ATOM     16  C   UNL     1      -2.547  -1.254   0.098  0.00  0.00    +0.009 C 
ATOM     17  C   UNL     1      -2.365  -0.244  -1.037  0.00  0.00    +0.033 C 
ENDBRANCH  10  17
ENDBRANCH   6  15
ENDBRANCH   5   7
ENDBRANCH   1   5
BRANCH   3  18
ATOM     18  C   UNL     1       5.349   3.003  -1.098  0.00  0.00    +0.213 C 
BRANCH  18  19
ATOM     19  N   UNL     1       5.782   3.216  -2.482  0.00  0.00    -0.215 N 
ATOM     20  C   UNL     1       5.312   4.194  -3.280  0.00  0.00    +0.251 C 
ATOM     21  O   UNL     1       4.481   5.031  -3.001  0.00  0.00    -0.272 OA
ATOM     22  C   UNL     1       6.037   4.028  -4.601  0.00  0.00    +0.135 C 
ATOM     23  N   UNL     1       6.914   2.867  -4.372  0.00  0.00    -0.281 N 
ATOM     24  C   UNL     1       6.698   2.466  -3.106  0.00  0.00    +0.310 C 
ATOM     25  O   UNL     1       7.268   1.526  -2.588  0.00  0.00    -0.252 OA
ATOM     26  C   UNL     1       6.866   5.274  -4.920  0.00  0.00    +0.047 C 
ATOM     27  H   UNL     1       7.530   2.471  -5.008  0.00  0.00    +0.152 HD
BRANCH  22  28
ATOM     28  C   UNL     1       5.059   3.742  -5.711  0.00  0.00    -0.015 A 
ATOM     29  C   UNL     1       3.771   4.240  -5.643  0.00  0.00    +0.006 A 
ATOM     30  C   UNL     1       2.875   3.982  -6.663  0.00  0.00    +0.004 A 
ATOM     31  C   UNL     1       3.264   3.218  -7.747  0.00  0.00    -0.050 A 
ATOM     32  C   UNL     1       4.550   2.715  -7.813  0.00  0.00    +0.004 A 
ATOM     33  C   UNL     1       5.447   2.977  -6.795  0.00  0.00    +0.006 A 
ATOM     34  C   UNL     1       2.285   2.932  -8.857  0.00  0.00    +0.044 C 
ENDBRANCH  22  28
ENDBRANCH  18  19
ENDBRANCH   3  18
TORSDOF 7
