REMARK  Name = ZINC24272841
REMARK  14 active torsions:
REMARK  status: ('A' for Active; 'I' for Inactive)
REMARK    1  A    between atoms: C_1  and  C_2
REMARK    2  A    between atoms: C_6  and  C_36
REMARK    3  A    between atoms: C_7  and  O_8
REMARK    4  A    between atoms: O_8  and  C_9
REMARK    5  A    between atoms: C_9  and  C_10
REMARK    6  A    between atoms: C_13  and  S_16
REMARK    7  A    between atoms: N_14  and  N_15
REMARK    8  A    between atoms: S_16  and  C_17
REMARK    9  A    between atoms: C_17  and  C_18
REMARK   10  A    between atoms: N_20  and  C_21
REMARK   11  A    between atoms: C_21  and  C_23
REMARK   12  A    between atoms: C_21  and  C_33
REMARK   13  A    between atoms: C_33  and  C_34
REMARK   14  A    between atoms: C_33  and  C_35
REMARK                            x       y       z     vdW  Elec       q    Type
REMARK                         _______ _______ _______ _____ _____    ______ ____
ROOT
ATOM      1  S   UNL     1      -3.169   0.260  -3.690  0.00  0.00    -0.075 S 
ENDROOT
BRANCH   1   5
ATOM      2  C   UNL     1      -5.067   1.575  -6.835  0.00  0.00    +0.189 A 
ATOM      3  N   UNL     1      -5.391   2.449  -5.925  0.00  0.00    -0.128 NA
ATOM      4  N   UNL     1      -4.836   2.146  -4.805  0.00  0.00    -0.121 NA
ATOM      5  C   UNL     1      -4.115   1.058  -4.944  0.00  0.00    +0.209 A 
ATOM      6  N   UNL     1      -4.243   0.657  -6.244  0.00  0.00    -0.225 N 
BRANCH   6   7
ATOM      7  N   UNL     1      -3.667  -0.434  -6.831  0.00  0.00    -0.295 N 
ATOM      8  H   UNL     1      -3.019  -1.098  -6.240  0.00  0.00    +0.163 HD
ATOM      9  H   UNL     1      -3.851  -0.647  -7.894  0.00  0.00    +0.163 HD
ENDBRANCH   6   7
BRANCH   2  10
ATOM     10  C   UNL     1      -5.517   1.575  -8.273  0.00  0.00    +0.306 C 
BRANCH  10  11
ATOM     11  O   UNL     1      -6.730   0.829  -8.393  0.00  0.00    -0.484 OA
BRANCH  11  18
ATOM     12  C   UNL     1      -8.585   2.816  -9.163  0.00  0.00    +0.047 C 
ATOM     13  C   UNL     1      -8.191   1.677 -10.068  0.00  0.00    -0.009 A 
ATOM     14  C   UNL     1      -8.738   1.578 -11.332  0.00  0.00    +0.007 A 
ATOM     15  C   UNL     1      -8.381   0.530 -12.161  0.00  0.00    +0.001 A 
ATOM     16  C   UNL     1      -7.472  -0.418 -11.729  0.00  0.00    +0.007 A 
ATOM     17  C   UNL     1      -6.918  -0.320 -10.467  0.00  0.00    -0.009 A 
ATOM     18  C   UNL     1      -7.274   0.731  -9.634  0.00  0.00    +0.127 A 
ATOM     19  C   UNL     1      -5.927  -1.353  -9.997  0.00  0.00    +0.047 C 
ENDBRANCH  11  18
ENDBRANCH  10  11
ENDBRANCH   2  10
ENDBRANCH   1   5
BRANCH   1  20
ATOM     20  C   UNL     1      -3.501   1.365  -2.296  0.00  0.00    +0.173 C 
BRANCH  20  21
ATOM     21  C   UNL     1      -2.772   0.866  -1.075  0.00  0.00    +0.224 C 
ATOM     22  O   UNL     1      -2.095  -0.138  -1.141  0.00  0.00    -0.275 OA
ATOM     23  N   UNL     1      -2.873   1.535   0.091  0.00  0.00    -0.308 N 
ATOM     24  H   UNL     1      -3.487   2.446   0.151  0.00  0.00    +0.149 HD
BRANCH  23  25
ATOM     25  C   UNL     1      -2.164   1.050   1.278  0.00  0.00    +0.106 C 
BRANCH  25  26
ATOM     26  C   UNL     1      -2.870   1.536   2.518  0.00  0.00    -0.023 A 
ATOM     27  C   UNL     1      -3.374   2.822   2.565  0.00  0.00    +0.009 A 
ATOM     28  C   UNL     1      -4.025   3.270   3.699  0.00  0.00    +0.050 A 
ATOM     29  C   UNL     1      -4.164   2.433   4.796  0.00  0.00    +0.162 A 
ATOM     30  C   UNL     1      -3.655   1.141   4.750  0.00  0.00    +0.162 A 
ATOM     31  C   UNL     1      -3.006   0.697   3.607  0.00  0.00    +0.055 A 
ATOM     32  O   UNL     1      -3.788   0.301   5.812  0.00  0.00    -0.485 OA
ATOM     33  C   UNL     1      -4.112   0.902   7.071  0.00  0.00    +0.270 C 
ATOM     34  C   UNL     1      -5.249   1.907   6.846  0.00  0.00    +0.270 C 
ATOM     35  O   UNL     1      -4.798   2.893   5.910  0.00  0.00    -0.485 OA
ENDBRANCH  25  26
BRANCH  25  36
ATOM     36  C   UNL     1      -0.729   1.579   1.267  0.00  0.00    +0.008 C 
ATOM     37  C   UNL     1      -0.013   1.086   0.008  0.00  0.00    +0.009 C 
ATOM     38  C   UNL     1       0.011   1.072   2.506  0.00  0.00    +0.009 C 
ENDBRANCH  25  36
ENDBRANCH  23  25
ENDBRANCH  20  21
ENDBRANCH   1  20
TORSDOF 10
