REMARK  Name = ZINC13065023
REMARK  15 active torsions:
REMARK  status: ('A' for Active; 'I' for Inactive)
REMARK    1  A    between atoms: C_1  and  C_2
REMARK    2  A    between atoms: C_2  and  C_3
REMARK    3  A    between atoms: C_3  and  C_5
REMARK    4  A    between atoms: C_3  and  N_68
REMARK    5  A    between atoms: N_9  and  C_10
REMARK    6  A    between atoms: C_10  and  C_11
REMARK    7  A    between atoms: C_10  and  C_12
REMARK    8  A    between atoms: C_10  and  C_13
REMARK    9  A    between atoms: C_13  and  C_14
REMARK   10  A    between atoms: C_15  and  C_16
REMARK   11  A    between atoms: C_15  and  N_68
REMARK   12  A    between atoms: C_21  and  C_22
REMARK   13  A    between atoms: C_21  and  N_68
REMARK   14  A    between atoms: C_27  and  C_35
REMARK   15  A    between atoms: C_28  and  C_34
REMARK                            x       y       z     vdW  Elec       q    Type
REMARK                         _______ _______ _______ _____ _____    ______ ____
ROOT
ATOM      1  N   UNL     1       1.024   4.416  -1.505  0.00  0.00    +0.392 N 
ATOM      2  H   UNL     1       0.229   3.788  -1.676  0.00  0.00    -0.080 HD
ENDROOT
BRANCH   1   3
ATOM      3  C   UNL     1       0.607   5.806  -1.784  0.00  0.00    +0.003 C 
BRANCH   3   4
ATOM      4  C   UNL     1      -0.289   5.806  -2.996  0.00  0.00    +0.139 A 
ATOM      5  N   UNL     1      -0.129   5.097  -4.087  0.00  0.00    -0.115 NA
ATOM      6  N   UNL     1      -1.100   5.375  -4.888  0.00  0.00    -0.023 NA
ATOM      7  N   UNL     1      -1.874   6.243  -4.336  0.00  0.00    -0.043 NA
ATOM      8  N   UNL     1      -1.410   6.530  -3.167  0.00  0.00    -0.225 N 
BRANCH   8   9
ATOM      9  C   UNL     1      -1.993   7.471  -2.207  0.00  0.00    +0.061 C 
ATOM     10  C   UNL     1      -2.489   6.704  -0.979  0.00  0.00    +0.036 C 
ATOM     11  C   UNL     1      -0.933   8.487  -1.780  0.00  0.00    +0.036 C 
BRANCH   9  12
ATOM     12  C   UNL     1      -3.168   8.203  -2.859  0.00  0.00    +0.026 C 
ATOM     13  C   UNL     1      -3.777   9.185  -1.856  0.00  0.00    +0.006 C 
ENDBRANCH   9  12
ENDBRANCH   8   9
ENDBRANCH   3   4
BRANCH   3  15
ATOM     14  C   UNL     1       2.672   6.791  -0.780  0.00  0.00    +0.002 C 
ATOM     15  C   UNL     1       1.829   6.687  -2.053  0.00  0.00    -0.011 C 
ENDBRANCH   3  15
ENDBRANCH   1   3
BRANCH   1  16
ATOM     16  C   UNL     1       2.138   4.033  -2.397  0.00  0.00    -0.034 C 
BRANCH  16  17
ATOM     17  C   UNL     1       2.343   2.543  -2.306  0.00  0.00    -0.027 A 
ATOM     18  C   UNL     1       1.812   1.560  -3.074  0.00  0.00    +0.009 A 
ATOM     19  C   UNL     1       2.145   0.246  -2.805  0.00  0.00    +0.008 A 
ATOM     20  C   UNL     1       2.993  -0.021  -1.782  0.00  0.00    +0.045 A 
ATOM     21  S   UNL     1       3.354   1.615  -1.165  0.00  0.00    -0.103 S 
ENDBRANCH  16  17
ENDBRANCH   1  16
BRANCH   1  22
ATOM     22  C   UNL     1       1.440   4.288  -0.092  0.00  0.00    -0.036 C 
BRANCH  22  23
ATOM     23  C   UNL     1       0.208   4.146   0.763  0.00  0.00    +0.001 A 
ATOM     24  C   UNL     1      -0.264   2.912   1.069  0.00  0.00    +0.017 A 
ATOM     25  C   UNL     1      -1.464   2.808   1.901  0.00  0.00    -0.001 A 
ATOM     26  C   UNL     1      -1.998   1.563   2.248  0.00  0.00    +0.010 A 
ATOM     27  C   UNL     1      -3.120   1.501   3.026  0.00  0.00    +0.004 A 
ATOM     28  C   UNL     1      -3.734   2.662   3.475  0.00  0.00    -0.046 A 
ATOM     29  C   UNL     1      -3.225   3.900   3.145  0.00  0.00    -0.024 A 
ATOM     30  C   UNL     1      -2.084   3.988   2.354  0.00  0.00    +0.052 A 
ATOM     31  N   UNL     1      -1.553   5.213   2.009  0.00  0.00    -0.322 N 
ATOM     32  H   UNL     1      -1.982   6.025   2.322  0.00  0.00    +0.169 HD
ATOM     33  C   UNL     1      -0.451   5.298   1.243  0.00  0.00    +0.251 A 
ATOM     34  O   UNL     1      -0.013   6.398   0.953  0.00  0.00    -0.268 OA
ATOM     35  C   UNL     1      -3.901   5.152   3.640  0.00  0.00    +0.046 C 
ATOM     36  C   UNL     1      -4.969   2.569   4.333  0.00  0.00    +0.044 C 
ENDBRANCH  22  23
ENDBRANCH   1  22
TORSDOF 9
