REMARK  Name = ZINC36213830
REMARK  8 active torsions:
REMARK  status: ('A' for Active; 'I' for Inactive)
REMARK    1  A    between atoms: C_1  and  C_2
REMARK    2  A    between atoms: C_2  and  C_3
REMARK    3  A    between atoms: C_2  and  C_4
REMARK    4  A    between atoms: C_2  and  N_5
REMARK    5  A    between atoms: C_11  and  C_14
REMARK    6  A    between atoms: C_14  and  C_16
REMARK    7  A    between atoms: C_14  and  N_24
REMARK    8  A    between atoms: C_25  and  C_27
REMARK                            x       y       z     vdW  Elec       q    Type
REMARK                         _______ _______ _______ _____ _____    ______ ____
ROOT
ATOM      1  C   UNL     1       4.923  -3.833  -4.132  0.00  0.00    +0.162 C 
ENDROOT
BRANCH   1   8
ATOM      2  N   UNL     1       0.501  -0.519  -1.441  0.00  0.00    -0.294 N 
ATOM      3  C   UNL     1       1.812  -0.213  -1.497  0.00  0.00    +0.303 C 
ATOM      4  O   UNL     1       2.312   0.485  -0.636  0.00  0.00    -0.253 OA
ATOM      5  N   UNL     1       2.570  -0.680  -2.509  0.00  0.00    -0.286 N 
ATOM      6  C   UNL     1       1.961  -1.426  -3.619  0.00  0.00    +0.109 C 
ATOM      7  C   UNL     1       2.693  -2.763  -3.775  0.00  0.00    +0.025 C 
ATOM      8  C   UNL     1       4.192  -2.502  -3.941  0.00  0.00    +0.021 C 
ATOM      9  C   UNL     1       4.731  -1.799  -2.693  0.00  0.00    +0.025 C 
ATOM     10  C   UNL     1       4.021  -0.447  -2.527  0.00  0.00    +0.109 C 
ATOM     11  H   UNL     1       0.087  -1.014  -2.165  0.00  0.00    +0.151 HD
BRANCH   2  13
ATOM     12  C   UNL     1      -0.270   1.421  -0.166  0.00  0.00    +0.031 C 
ATOM     13  C   UNL     1      -0.299  -0.104  -0.285  0.00  0.00    +0.028 C 
ATOM     14  C   UNL     1       0.282  -0.727   0.986  0.00  0.00    +0.031 C 
ATOM     15  C   UNL     1      -1.743  -0.575  -0.470  0.00  0.00    +0.031 C 
ENDBRANCH   2  13
ENDBRANCH   1   8
BRANCH   1  16
ATOM     16  C   UNL     1       6.387  -3.571  -4.374  0.00  0.00    +0.236 C 
ATOM     17  O   UNL     1       7.183  -3.695  -3.467  0.00  0.00    -0.274 OA
ATOM     18  N   UNL     1       6.812  -3.201  -5.598  0.00  0.00    -0.300 N 
ATOM     19  C   UNL     1       5.859  -3.042  -6.705  0.00  0.00    +0.108 C 
ATOM     20  C   UNL     1       6.038  -1.647  -7.313  0.00  0.00    +0.019 C 
ATOM     21  C   UNL     1       7.503  -1.452  -7.712  0.00  0.00    +0.003 C 
ATOM     22  C   UNL     1       8.389  -1.555  -6.468  0.00  0.00    +0.019 C 
ATOM     23  C   UNL     1       8.236  -2.943  -5.850  0.00  0.00    +0.108 C 
ENDBRANCH   1  16
BRANCH   1  24
ATOM     24  N   UNL     1       4.765  -4.653  -2.929  0.00  0.00    -0.299 N 
ATOM     25  C   UNL     1       4.786  -5.997  -3.022  0.00  0.00    +0.251 C 
ATOM     26  O   UNL     1       5.025  -6.529  -4.090  0.00  0.00    -0.270 OA
ATOM     27  H   UNL     1       4.646  -4.229  -2.064  0.00  0.00    +0.150 HD
BRANCH  25  28
ATOM     28  C   UNL     1       4.520  -6.819  -1.837  0.00  0.00    +0.074 A 
ATOM     29  C   UNL     1       4.498  -8.200  -1.718  0.00  0.00    +0.021 A 
ATOM     30  C   UNL     1       4.215  -8.687  -0.465  0.00  0.00    +0.008 A 
ATOM     31  C   UNL     1       3.982  -7.812   0.545  0.00  0.00    +0.046 A 
ATOM     32  S   UNL     1       4.147  -6.302  -0.172  0.00  0.00    -0.092 S 
ENDBRANCH  25  28
ENDBRANCH   1  24
TORSDOF 5
