REMARK  Name = ZINC02463414
REMARK  11 active torsions:
REMARK  status: ('A' for Active; 'I' for Inactive)
REMARK    1  A    between atoms: C_1  and  C_2
REMARK    2  A    between atoms: C_2  and  C_3
REMARK    3  A    between atoms: C_8  and  C_21
REMARK    4  A    between atoms: C_10  and  C_16
REMARK    5  A    between atoms: C_11  and  C_15
REMARK    6  A    between atoms: C_16  and  O_18
REMARK    7  A    between atoms: O_18  and  C_19
REMARK    8  A    between atoms: C_19  and  C_20
REMARK    9  A    between atoms: C_24  and  C_27
REMARK   10  A    between atoms: C_27  and  C_28
REMARK   11  A    between atoms: C_27  and  C_29
REMARK                            x       y       z     vdW  Elec       q    Type
REMARK                         _______ _______ _______ _____ _____    ______ ____
ROOT
ATOM      1  C   UNL     1      -4.146   4.131  -6.274  0.00  0.00    +0.140 C 
ATOM      2  C   UNL     1      -3.839   3.565  -4.904  0.00  0.00    +0.235 C 
ATOM      3  O   UNL     1      -4.581   3.747  -3.962  0.00  0.00    -0.274 OA
ATOM      4  N   UNL     1      -2.710   2.852  -4.779  0.00  0.00    -0.238 N 
ATOM      5  C   UNL     1      -2.240   2.216  -3.513  0.00  0.00    +0.152 C 
ATOM      6  C   UNL     1      -0.939   1.450  -3.564  0.00  0.00    +0.083 C 
ATOM      7  C   UNL     1      -0.274   1.390  -4.755  0.00  0.00    +0.053 C 
ATOM      8  N   UNL     1      -0.770   1.983  -5.834  0.00  0.00    -0.230 NA
ATOM      9  C   UNL     1      -1.887   2.663  -5.869  0.00  0.00    +0.164 C 
ATOM     10  S   UNL     1      -2.692   3.520  -7.211  0.00  0.00    -0.077 S 
ATOM     11  C   UNL     1       1.031   0.641  -4.846  0.00  0.00    +0.066 C 
ENDROOT
BRANCH   5  12
ATOM     12  C   UNL     1      -2.097   3.300  -2.476  0.00  0.00    -0.022 A 
ATOM     13  C   UNL     1      -1.431   4.471  -2.787  0.00  0.00    +0.006 A 
ATOM     14  C   UNL     1      -1.305   5.467  -1.838  0.00  0.00    +0.004 A 
ATOM     15  C   UNL     1      -1.836   5.290  -0.574  0.00  0.00    -0.045 A 
ATOM     16  C   UNL     1      -2.498   4.117  -0.262  0.00  0.00    +0.004 A 
ATOM     17  C   UNL     1      -2.629   3.122  -1.212  0.00  0.00    +0.006 A 
BRANCH  15  18
ATOM     18  C   UNL     1      -1.693   6.374   0.463  0.00  0.00    +0.013 C 
ATOM     19  C   UNL     1      -0.208   6.641   0.720  0.00  0.00    +0.012 C 
ATOM     20  C   UNL     1      -2.362   7.654  -0.042  0.00  0.00    +0.012 C 
ENDBRANCH  15  18
ENDBRANCH   5  12
BRANCH   1  22
ATOM     21  C   UNL     1      -4.430   6.191  -7.659  0.00  0.00    +0.005 C 
ATOM     22  C   UNL     1      -4.186   5.660  -6.245  0.00  0.00    +0.020 C 
ENDBRANCH   1  22
BRANCH   6  23
ATOM     23  C   UNL     1      -0.425   0.821  -2.417  0.00  0.00    +0.339 C 
ATOM     24  O   UNL     1       0.567   0.119  -2.500  0.00  0.00    -0.245 OA
BRANCH  23  25
ATOM     25  O   UNL     1      -1.032   0.994  -1.223  0.00  0.00    -0.462 OA
BRANCH  25  26
ATOM     26  C   UNL     1      -0.455   0.325  -0.099  0.00  0.00    +0.229 C 
ATOM     27  C   UNL     1      -1.273   0.638   1.155  0.00  0.00    +0.048 C 
ENDBRANCH  25  26
ENDBRANCH  23  25
ENDBRANCH   6  23
TORSDOF 6
