REMARK  Name = ZINC04191500
REMARK  12 active torsions:
REMARK  status: ('A' for Active; 'I' for Inactive)
REMARK    1  A    between atoms: C_1  and  C_2
REMARK    2  A    between atoms: C_2  and  C_3
REMARK    3  A    between atoms: C_3  and  C_4
REMARK    4  A    between atoms: C_3  and  C_5
REMARK    5  A    between atoms: C_3  and  N_6
REMARK    6  A    between atoms: N_6  and  C_7
REMARK    7  A    between atoms: C_7  and  C_9
REMARK    8  A    between atoms: C_7  and  C_10
REMARK    9  A    between atoms: N_12  and  C_13
REMARK   10  A    between atoms: C_18  and  C_20
REMARK   11  A    between atoms: C_21  and  N_28
REMARK   12  A    between atoms: C_22  and  C_25
REMARK                            x       y       z     vdW  Elec       q    Type
REMARK                         _______ _______ _______ _____ _____    ______ ____
ROOT
ATOM      1  N   UNL     1       3.522   0.317  -0.840  0.00  0.00    -0.280 N 
ATOM      2  C   UNL     1       2.366  -0.320  -1.116  0.00  0.00    +0.258 C 
ATOM      3  O   UNL     1       2.169  -1.439  -0.680  0.00  0.00    -0.269 OA
ENDROOT
BRANCH   2   4
ATOM      4  C   UNL     1       1.348   0.335  -1.939  0.00  0.00    +0.115 A 
ATOM      5  C   UNL     1       0.552  -0.199  -2.954  0.00  0.00    +0.076 A 
ATOM      6  C   UNL     1      -0.309   0.746  -3.511  0.00  0.00    +0.155 A 
ATOM      7  N   UNL     1      -0.292   1.979  -3.056  0.00  0.00    -0.203 NA
ATOM      8  S   UNL     1       0.793   2.027  -1.914  0.00  0.00    +0.019 S 
BRANCH   6   9
ATOM      9  C   UNL     1      -1.228   0.366  -4.599  0.00  0.00    +0.262 C 
ATOM     10  O   UNL     1      -1.238  -0.776  -5.016  0.00  0.00    -0.269 OA
ATOM     11  N   UNL     1      -2.057   1.286  -5.133  0.00  0.00    -0.324 N 
ATOM     12  H   UNL     1      -2.049   2.197  -4.800  0.00  0.00    +0.145 HD
ATOM     13  H   UNL     1      -2.662   1.036  -5.849  0.00  0.00    +0.145 HD
ENDBRANCH   6   9
BRANCH   5  14
ATOM     14  N   UNL     1       0.612  -1.524  -3.363  0.00  0.00    -0.355 N 
ATOM     15  H   UNL     1       0.033  -1.839  -4.075  0.00  0.00    +0.142 HD
ATOM     16  H   UNL     1       1.233  -2.136  -2.938  0.00  0.00    +0.142 HD
ENDBRANCH   5  14
ENDBRANCH   2   4
BRANCH   1  17
ATOM     17  C   UNL     1       3.765   1.658  -1.376  0.00  0.00    +0.033 C 
ATOM     18  C   UNL     1       2.909   2.674  -0.616  0.00  0.00    +0.031 C 
ATOM     19  C   UNL     1       5.245   2.013  -1.210  0.00  0.00    +0.031 C 
BRANCH  17  21
ATOM     20  C   UNL     1       4.201   0.624  -3.608  0.00  0.00    +0.006 C 
ATOM     21  C   UNL     1       3.397   1.689  -2.860  0.00  0.00    +0.022 C 
ENDBRANCH  17  21
ENDBRANCH   1  17
BRANCH   1  22
ATOM     22  C   UNL     1       4.535  -0.333  -0.004  0.00  0.00    +0.160 C 
ATOM     23  C   UNL     1       5.868  -0.370  -0.754  0.00  0.00    +0.038 C 
BRANCH  22  24
ATOM     24  C   UNL     1       4.701   0.442   1.278  0.00  0.00    +0.234 C 
ATOM     25  O   UNL     1       3.903   1.307   1.571  0.00  0.00    -0.274 OA
ATOM     26  N   UNL     1       5.736   0.173   2.098  0.00  0.00    -0.311 N 
ATOM     27  H   UNL     1       6.374  -0.519   1.863  0.00  0.00    +0.149 HD
BRANCH  26  28
ATOM     28  C   UNL     1       5.898   0.926   3.344  0.00  0.00    +0.073 C 
ATOM     29  C   UNL     1       6.718   2.207   3.085  0.00  0.00    +0.022 C 
ATOM     30  C   UNL     1       7.592   2.362   4.354  0.00  0.00    +0.002 C 
ATOM     31  C   UNL     1       7.970   0.898   4.689  0.00  0.00    +0.002 C 
ATOM     32  C   UNL     1       6.694   0.094   4.364  0.00  0.00    +0.022 C 
ENDBRANCH  26  28
ENDBRANCH  22  24
ENDBRANCH   1  22
TORSDOF 8
