REMARK  Name = ZINC63722021
REMARK  11 active torsions:
REMARK  status: ('A' for Active; 'I' for Inactive)
REMARK    1  A    between atoms: C_1  and  C_2
REMARK    2  A    between atoms: C_2  and  C_4
REMARK    3  A    between atoms: C_2  and  O_17
REMARK    4  A    between atoms: N_6  and  C_7
REMARK    5  A    between atoms: C_10  and  S_13
REMARK    6  A    between atoms: S_13  and  N_16
REMARK    7  A    between atoms: O_17  and  C_18
REMARK    8  A    between atoms: C_18  and  C_20
REMARK    9  A    between atoms: C_20  and  C_21
REMARK   10  A    between atoms: C_21  and  C_22
REMARK   11  A    between atoms: C_22  and  C_23
REMARK                            x       y       z     vdW  Elec       q    Type
REMARK                         _______ _______ _______ _____ _____    ______ ____
ROOT
ATOM      1  C   UNL     1      -0.004   1.532   0.014  0.00  0.00    +0.062 C 
ATOM      2  C   UNL     1       0.005   0.002   0.002  0.00  0.00    +0.259 C 
ENDROOT
BRANCH   2   3
ATOM      3  C   UNL     1       0.730  -0.505   1.223  0.00  0.00    +0.258 C 
ATOM      4  O   UNL     1       1.769  -1.118   1.100  0.00  0.00    -0.271 OA
ATOM      5  N   UNL     1       0.223  -0.277   2.451  0.00  0.00    -0.282 N 
ATOM      6  H   UNL     1      -0.571   0.271   2.553  0.00  0.00    +0.155 HD
BRANCH   5   7
ATOM      7  C   UNL     1       0.843  -0.829   3.577  0.00  0.00    +0.034 A 
ATOM      8  C   UNL     1       0.077  -1.256   4.654  0.00  0.00    +0.025 A 
ATOM      9  C   UNL     1       0.692  -1.800   5.764  0.00  0.00    +0.030 A 
ATOM     10  C   UNL     1       2.068  -1.921   5.804  0.00  0.00    +0.105 A 
ATOM     11  C   UNL     1       2.834  -1.496   4.734  0.00  0.00    +0.030 A 
ATOM     12  C   UNL     1       2.225  -0.957   3.618  0.00  0.00    +0.025 A 
BRANCH  10  13
ATOM     13  S   UNL     1       2.849  -2.616   7.223  0.00  0.00    +0.056 S 
ATOM     14  O   UNL     1       4.179  -2.117   7.240  0.00  0.00    -0.153 OA
ATOM     15  O   UNL     1       1.953  -2.433   8.310  0.00  0.00    -0.153 OA
BRANCH  13  16
ATOM     16  N   UNL     1       2.959  -4.249   6.970  0.00  0.00    -0.204 NA
ATOM     17  H   UNL     1       3.689  -4.753   7.363  0.00  0.00    +0.144 HD
ATOM     18  H   UNL     1       2.293  -4.702   6.429  0.00  0.00    +0.144 HD
ENDBRANCH  13  16
ENDBRANCH  10  13
ENDBRANCH   5   7
ENDBRANCH   2   3
BRANCH   2  19
ATOM     19  O   UNL     1       0.671  -0.462  -1.174  0.00  0.00    -0.452 OA
BRANCH  19  20
ATOM     20  C   UNL     1      -0.086  -0.661  -2.264  0.00  0.00    +0.308 C 
ATOM     21  O   UNL     1      -1.274  -0.450  -2.221  0.00  0.00    -0.251 OA
BRANCH  20  22
ATOM     22  C   UNL     1       0.547  -1.150  -3.542  0.00  0.00    +0.121 C 
BRANCH  22  23
ATOM     23  C   UNL     1      -0.528  -1.293  -4.621  0.00  0.00    +0.015 C 
BRANCH  23  24
ATOM     24  C   UNL     1       0.115  -1.789  -5.918  0.00  0.00    +0.034 C 
BRANCH  24  25
ATOM     25  C   UNL     1      -0.944  -1.930  -6.981  0.00  0.00    -0.042 C 
ATOM     26  C   UNL     1      -1.276  -1.019  -7.924  0.00  0.00    -0.001 A 
ATOM     27  C   UNL     1      -0.771   0.325  -8.230  0.00  0.00    +0.010 A 
ATOM     28  C   UNL     1      -1.315   1.011  -9.261  0.00  0.00    +0.001 A 
ATOM     29  C   UNL     1      -2.347   0.473 -10.041  0.00  0.00    +0.002 A 
ATOM     30  C   UNL     1      -2.864  -0.755  -9.822  0.00  0.00    +0.026 A 
ATOM     31  C   UNL     1      -2.366  -1.565  -8.764  0.00  0.00    +0.043 A 
ATOM     32  N   UNL     1      -2.695  -2.767  -8.356  0.00  0.00    -0.380 N 
ATOM     33  C   UNL     1      -1.846  -3.122  -7.213  0.00  0.00    +0.144 C 
ATOM     34  H   UNL     1      -3.382  -3.329  -8.746  0.00  0.00    +0.160 HD
ENDBRANCH  24  25
ENDBRANCH  23  24
ENDBRANCH  22  23
ENDBRANCH  20  22
ENDBRANCH  19  20
ENDBRANCH   2  19
TORSDOF 10
