REMARK  Name = ZINC02672067
REMARK  12 active torsions:
REMARK  status: ('A' for Active; 'I' for Inactive)
REMARK    1  A    between atoms: C_1  and  C_2
REMARK    2  A    between atoms: C_2  and  C_3
REMARK    3  A    between atoms: C_3  and  C_5
REMARK    4  A    between atoms: C_3  and  N_6
REMARK    5  A    between atoms: C_10  and  C_11
REMARK    6  A    between atoms: C_12  and  N_23
REMARK    7  A    between atoms: C_17  and  C_22
REMARK    8  A    between atoms: N_23  and  C_24
REMARK    9  A    between atoms: C_26  and  C_31
REMARK   10  A    between atoms: C_26  and  C_32
REMARK   11  A    between atoms: C_27  and  C_29
REMARK   12  A    between atoms: C_27  and  C_30
REMARK                            x       y       z     vdW  Elec       q    Type
REMARK                         _______ _______ _______ _____ _____    ______ ____
ROOT
ATOM      1  C   UNL     1      -0.010   1.424   0.025  0.00  0.00    +0.081 A 
ATOM      2  C   UNL     1       1.206   2.103   0.277  0.00  0.00    +0.134 A 
ATOM      3  N   UNL     1       2.345   1.427   0.269  0.00  0.00    -0.214 NA
ATOM      4  C   UNL     1       2.380   0.116   0.031  0.00  0.00    +0.142 A 
ATOM      5  C   UNL     1       3.619  -0.549   0.037  0.00  0.00    +0.047 A 
ATOM      6  C   UNL     1       3.664  -1.889  -0.206  0.00  0.00    +0.008 A 
ATOM      7  C   UNL     1       2.475  -2.587  -0.459  0.00  0.00    -0.034 A 
ATOM      8  C   UNL     1       1.292  -1.932  -0.461  0.00  0.00    +0.099 A 
ATOM      9  N   UNL     1       1.236  -0.591  -0.218  0.00  0.00    -0.267 N 
ATOM     10  C   UNL     1       0.038   0.032  -0.228  0.00  0.00    +0.267 A 
ATOM     11  O   UNL     1      -0.984  -0.593  -0.449  0.00  0.00    -0.267 OA
ATOM     12  C   UNL     1       2.515  -4.069  -0.728  0.00  0.00    +0.045 C 
ENDROOT
BRANCH   1  17
ATOM     13  N   UNL     1      -2.452   5.056  -1.806  0.00  0.00    -0.252 N 
ATOM     14  C   UNL     1      -2.517   4.088  -0.909  0.00  0.00    +0.259 C 
ATOM     15  O   UNL     1      -3.487   3.972  -0.181  0.00  0.00    -0.269 OA
ATOM     16  C   UNL     1      -1.419   3.186  -0.814  0.00  0.00    +0.077 C 
ATOM     17  C   UNL     1      -1.241   2.119   0.019  0.00  0.00    +0.037 C 
ATOM     18  S   UNL     1      -0.341   3.825  -2.088  0.00  0.00    -0.061 S 
ATOM     19  C   UNL     1      -1.379   5.180  -2.618  0.00  0.00    +0.121 C 
ATOM     20  S   UNL     1      -1.087   6.340  -3.843  0.00  0.00    -0.027 S 
BRANCH  13  21
ATOM     21  C   UNL     1      -3.562   6.005  -1.926  0.00  0.00    +0.080 C 
ATOM     22  C   UNL     1      -3.052   7.423  -1.661  0.00  0.00    +0.028 C 
BRANCH  21  24
ATOM     23  C   UNL     1      -4.769   4.549  -3.559  0.00  0.00    +0.006 C 
ATOM     24  C   UNL     1      -4.147   5.929  -3.338  0.00  0.00    +0.019 C 
ENDBRANCH  21  24
ENDBRANCH  13  21
ENDBRANCH   1  17
BRANCH   2  25
ATOM     25  N   UNL     1       1.204   3.458   0.526  0.00  0.00    -0.326 N 
ATOM     26  H   UNL     1       0.368   3.950   0.530  0.00  0.00    +0.148 HD
BRANCH  25  27
ATOM     27  C   UNL     1       2.469   4.158   0.787  0.00  0.00    +0.069 C 
ATOM     28  C   UNL     1       2.809   4.045   2.273  0.00  0.00    +0.009 C 
ATOM     29  C   UNL     1       4.109   4.785   2.578  0.00  0.00    -0.072 C 
ATOM     30  C   UNL     1       3.602   6.394   0.718  0.00  0.00    -0.072 C 
ATOM     31  C   UNL     1       2.307   5.637   0.436  0.00  0.00    +0.009 C 
ATOM     32  C   UNL     1       4.631   6.073  -0.373  0.00  0.00    -0.010 C 
ATOM     33  C   UNL     1       3.289   7.904   0.620  0.00  0.00    -0.010 C 
ATOM     34  C   UNL     1       5.299   3.960   2.074  0.00  0.00    -0.010 C 
ATOM     35  C   UNL     1       4.239   4.882   4.115  0.00  0.00    -0.010 C 
ATOM     36  N   UNL     1       4.167   6.185   2.078  0.00  0.00    +0.386 N 
ATOM     37  H   UNL     1       5.151   6.476   2.062  0.00  0.00    -0.084 HD
ATOM     38  H   UNL     1       3.645   6.779   2.733  0.00  0.00    -0.084 HD
ENDBRANCH  25  27
ENDBRANCH   2  25
TORSDOF 5
