REMARK  Name = ZINC09126955
REMARK  9 active torsions:
REMARK  status: ('A' for Active; 'I' for Inactive)
REMARK    1  A    between atoms: C_1  and  C_2
REMARK    2  A    between atoms: C_6  and  C_31
REMARK    3  A    between atoms: C_7  and  O_8
REMARK    4  A    between atoms: O_8  and  C_9
REMARK    5  A    between atoms: C_9  and  C_10
REMARK    6  A    between atoms: C_13  and  S_21
REMARK    7  A    between atoms: N_14  and  C_15
REMARK    8  A    between atoms: S_21  and  C_22
REMARK    9  A    between atoms: C_22  and  C_23
REMARK                            x       y       z     vdW  Elec       q    Type
REMARK                         _______ _______ _______ _____ _____    ______ ____
ROOT
ATOM      1  C   UNL     1      -1.732   2.872   1.015  0.00  0.00    +0.176 A 
ATOM      2  N   UNL     1      -2.894   3.310   0.621  0.00  0.00    -0.130 NA
ATOM      3  N   UNL     1      -3.170   2.845  -0.545  0.00  0.00    -0.122 NA
ATOM      4  C   UNL     1      -2.188   2.083  -0.967  0.00  0.00    +0.197 A 
ATOM      5  N   UNL     1      -1.240   2.070   0.019  0.00  0.00    -0.271 N 
ENDROOT
BRANCH   5   6
ATOM      6  C   UNL     1      -0.017   1.384   0.010  0.00  0.00    +0.050 A 
ATOM      7  C   UNL     1       1.177   2.092   0.002  0.00  0.00    +0.026 A 
ATOM      8  C   UNL     1       2.381   1.413  -0.013  0.00  0.00    +0.002 A 
ATOM      9  C   UNL     1       2.396   0.031  -0.021  0.00  0.00    +0.000 A 
ATOM     10  C   UNL     1       1.208  -0.677  -0.013  0.00  0.00    +0.002 A 
ATOM     11  C   UNL     1       0.002  -0.004   0.002  0.00  0.00    +0.026 A 
ENDBRANCH   5   6
BRANCH   1  12
ATOM     12  C   UNL     1      -1.054   3.189   2.323  0.00  0.00    +0.305 C 
BRANCH  12  13
ATOM     13  O   UNL     1      -0.245   4.357   2.170  0.00  0.00    -0.484 OA
BRANCH  13  20
ATOM     14  C   UNL     1      -1.532   6.207   3.873  0.00  0.00    +0.047 C 
ATOM     15  C   UNL     1      -0.141   5.691   4.137  0.00  0.00    -0.009 A 
ATOM     16  C   UNL     1       0.554   6.117   5.252  0.00  0.00    +0.007 A 
ATOM     17  C   UNL     1       1.833   5.647   5.492  0.00  0.00    +0.001 A 
ATOM     18  C   UNL     1       2.416   4.746   4.620  0.00  0.00    +0.007 A 
ATOM     19  C   UNL     1       1.722   4.313   3.507  0.00  0.00    -0.009 A 
ATOM     20  C   UNL     1       0.439   4.782   3.264  0.00  0.00    +0.127 A 
ATOM     21  C   UNL     1       2.358   3.330   2.557  0.00  0.00    +0.047 C 
ENDBRANCH  13  20
ENDBRANCH  12  13
ENDBRANCH   1  12
BRANCH   4  22
ATOM     22  S   UNL     1      -2.109   1.234  -2.509  0.00  0.00    -0.076 S 
BRANCH  22  23
ATOM     23  C   UNL     1      -3.691   1.738  -3.227  0.00  0.00    +0.173 C 
BRANCH  23  24
ATOM     24  C   UNL     1      -3.846   1.113  -4.590  0.00  0.00    +0.229 C 
ATOM     25  O   UNL     1      -2.973   0.398  -5.031  0.00  0.00    -0.275 OA
ATOM     26  N   UNL     1      -4.956   1.350  -5.317  0.00  0.00    -0.265 N 
ATOM     27  C   UNL     1      -5.098   0.777  -6.567  0.00  0.00    +0.156 C 
ATOM     28  N   UNL     1      -6.099   0.911  -7.376  0.00  0.00    -0.262 NA
ATOM     29  C   UNL     1      -6.137   0.260  -8.665  0.00  0.00    +0.155 C 
ATOM     30  C   UNL     1      -4.875  -0.587  -8.944  0.00  0.00    +0.100 C 
ATOM     31  S   UNL     1      -3.937  -0.291  -7.396  0.00  0.00    -0.089 S 
ATOM     32  H   UNL     1      -5.654   1.923  -4.964  0.00  0.00    +0.157 HD
ENDBRANCH  23  24
ENDBRANCH  22  23
ENDBRANCH   4  22
TORSDOF 7
