REMARK  Name = ZINC11156139
REMARK  6 active torsions:
REMARK  status: ('A' for Active; 'I' for Inactive)
REMARK    1  A    between atoms: C_1  and  C_2
REMARK    2  A    between atoms: C_2  and  N_3
REMARK    3  A    between atoms: N_14  and  N_15
REMARK    4  A    between atoms: C_16  and  C_18
REMARK    5  A    between atoms: C_18  and  C_19
REMARK    6  A    between atoms: C_19  and  C_20
REMARK                            x       y       z     vdW  Elec       q    Type
REMARK                         _______ _______ _______ _____ _____    ______ ____
ROOT
ATOM      1  N   UNL     1       4.098  -0.642   0.054  0.00  0.00    -0.234 N 
ATOM      2  C   UNL     1       4.762  -0.402   1.202  0.00  0.00    +0.229 C 
ATOM      3  O   UNL     1       4.161  -0.011   2.180  0.00  0.00    -0.274 OA
ATOM      4  H   UNL     1       4.578  -0.954  -0.728  0.00  0.00    +0.173 HD
ENDROOT
BRANCH   1  16
ATOM      5  N   UNL     1       0.688  -0.476  -1.203  0.00  0.00    -0.280 N 
ATOM      6  C   UNL     1      -0.021  -0.698  -2.335  0.00  0.00    +0.263 A 
ATOM      7  O   UNL     1      -1.223  -0.512  -2.373  0.00  0.00    -0.267 OA
ATOM      8  C   UNL     1       0.715  -1.171  -3.515  0.00  0.00    +0.065 A 
ATOM      9  C   UNL     1       0.077  -1.429  -4.728  0.00  0.00    +0.015 A 
ATOM     10  C   UNL     1       0.810  -1.867  -5.795  0.00  0.00    +0.001 A 
ATOM     11  C   UNL     1       2.182  -2.059  -5.684  0.00  0.00    +0.002 A 
ATOM     12  C   UNL     1       2.832  -1.815  -4.507  0.00  0.00    +0.028 A 
ATOM     13  C   UNL     1       2.111  -1.365  -3.398  0.00  0.00    +0.080 A 
ATOM     14  N   UNL     1       2.714  -1.111  -2.213  0.00  0.00    -0.214 NA
ATOM     15  C   UNL     1       2.036  -0.684  -1.177  0.00  0.00    +0.216 A 
ATOM     16  N   UNL     1       2.713  -0.440  -0.009  0.00  0.00    -0.234 N 
ATOM     17  H   UNL     1       2.232  -0.127   0.774  0.00  0.00    +0.173 HD
BRANCH   5  19
ATOM     18  C   UNL     1      -0.019   1.526   0.010  0.00  0.00    +0.027 C 
ATOM     19  C   UNL     1       0.002  -0.004   0.002  0.00  0.00    +0.125 C 
ENDBRANCH   5  19
ENDBRANCH   1  16
BRANCH   2  20
ATOM     20  C   UNL     1       6.252  -0.619   1.270  0.00  0.00    +0.102 C 
BRANCH  20  21
ATOM     21  C   UNL     1       6.754  -0.276   2.674  0.00  0.00    +0.046 C 
BRANCH  21  22
ATOM     22  C   UNL     1       8.244  -0.493   2.741  0.00  0.00    -0.022 A 
ATOM     23  C   UNL     1       8.870  -1.601   3.169  0.00  0.00    +0.087 A 
ATOM     24  N   UNL     1      10.226  -1.431   3.086  0.00  0.00    -0.360 N 
ATOM     25  H   UNL     1      10.887  -2.095   3.339  0.00  0.00    +0.165 HD
ATOM     26  C   UNL     1      10.511  -0.178   2.591  0.00  0.00    +0.047 A 
ATOM     27  C   UNL     1       9.282   0.462   2.348  0.00  0.00    +0.003 A 
ATOM     28  C   UNL     1       9.263   1.758   1.831  0.00  0.00    +0.010 A 
ATOM     29  C   UNL     1      10.440   2.399   1.561  0.00  0.00    +0.001 A 
ATOM     30  C   UNL     1      11.654   1.770   1.796  0.00  0.00    +0.002 A 
ATOM     31  C   UNL     1      11.697   0.494   2.314  0.00  0.00    +0.026 A 
ENDBRANCH  21  22
ENDBRANCH  20  21
ENDBRANCH   2  20
TORSDOF 5
