REMARK  Name = ZINC39766317
REMARK  8 active torsions:
REMARK  status: ('A' for Active; 'I' for Inactive)
REMARK    1  A    between atoms: C_1  and  C_2
REMARK    2  A    between atoms: C_2  and  C_3
REMARK    3  A    between atoms: C_2  and  C_4
REMARK    4  A    between atoms: C_4  and  N_5
REMARK    5  A    between atoms: C_6  and  C_26
REMARK    6  A    between atoms: C_10  and  S_12
REMARK    7  A    between atoms: S_12  and  C_13
REMARK    8  A    between atoms: C_13  and  C_14
REMARK                            x       y       z     vdW  Elec       q    Type
REMARK                         _______ _______ _______ _____ _____    ______ ____
ROOT
ATOM      1  N   UNL     1      -1.625  -1.759  -0.407  0.00  0.00    +0.411 N 
ATOM      2  C   UNL     1      -2.716  -2.703  -0.743  0.00  0.00    +0.052 C 
ATOM      3  N   UNL     1      -2.226  -4.017  -0.251  0.00  0.00    -0.266 NA
ATOM      4  N   UNL     1      -1.531  -3.666   0.998  0.00  0.00    -0.262 NA
ATOM      5  C   UNL     1      -0.869  -2.375   0.702  0.00  0.00    +0.077 C 
ATOM      6  H   UNL     1      -2.995  -4.646  -0.072  0.00  0.00    +0.139 HD
ATOM      7  H   UNL     1      -0.854  -4.372   1.245  0.00  0.00    +0.140 HD
ATOM      8  H   UNL     1      -1.022  -1.627  -1.206  0.00  0.00    -0.075 HD
ENDROOT
BRANCH   2   9
ATOM      9  C   UNL     1      -2.939  -2.744  -2.232  0.00  0.00    -0.011 A 
ATOM     10  C   UNL     1      -2.401  -1.759  -3.039  0.00  0.00    +0.006 A 
ATOM     11  C   UNL     1      -2.605  -1.797  -4.406  0.00  0.00    +0.000 A 
ATOM     12  C   UNL     1      -3.347  -2.820  -4.967  0.00  0.00    +0.003 A 
ATOM     13  C   UNL     1      -3.886  -3.805  -4.163  0.00  0.00    +0.038 A 
ATOM     14  C   UNL     1      -3.678  -3.772  -2.794  0.00  0.00    +0.126 A 
ATOM     15  F   UNL     1      -4.199  -4.737  -2.007  0.00  0.00    -0.205 F 
ENDBRANCH   2   9
BRANCH   1  16
ATOM     16  C   UNL     1      -2.186  -0.470   0.019  0.00  0.00    -0.070 C 
BRANCH  16  18
ATOM     17  C   UNL     1      -3.316   1.609  -0.784  0.00  0.00    +0.005 C 
ATOM     18  C   UNL     1      -2.522   0.373  -1.212  0.00  0.00    -0.034 C 
ATOM     19  C   UNL     1      -1.227   0.811  -1.899  0.00  0.00    +0.005 C 
ENDBRANCH  16  18
ENDBRANCH   1  16
BRANCH   5  20
ATOM     20  S   UNL     1      -0.921  -1.301   2.163  0.00  0.00    -0.152 S 
BRANCH  20  21
ATOM     21  C   UNL     1       0.385  -1.957   3.238  0.00  0.00    +0.143 C 
BRANCH  21  22
ATOM     22  C   UNL     1       0.368  -1.223   4.554  0.00  0.00    +0.120 A 
ATOM     23  N   UNL     1       1.282  -1.570   5.497  0.00  0.00    -0.310 N 
ATOM     24  H   UNL     1       1.921  -2.276   5.310  0.00  0.00    +0.170 HD
ATOM     25  C   UNL     1       1.310  -0.941   6.695  0.00  0.00    +0.259 A 
ATOM     26  O   UNL     1       2.123  -1.241   7.548  0.00  0.00    -0.267 OA
ATOM     27  C   UNL     1       0.318   0.121   6.924  0.00  0.00    +0.065 A 
ATOM     28  C   UNL     1       0.261   0.829   8.123  0.00  0.00    +0.015 A 
ATOM     29  C   UNL     1      -0.689   1.814   8.284  0.00  0.00    +0.001 A 
ATOM     30  C   UNL     1      -1.587   2.103   7.265  0.00  0.00    +0.002 A 
ATOM     31  C   UNL     1      -1.548   1.415   6.074  0.00  0.00    +0.028 A 
ATOM     32  C   UNL     1      -0.593   0.412   5.886  0.00  0.00    +0.078 A 
ATOM     33  N   UNL     1      -0.515  -0.287   4.726  0.00  0.00    -0.233 NA
ENDBRANCH  21  22
ENDBRANCH  20  21
ENDBRANCH   5  20
TORSDOF 6
