REMARK  Name = ZINC39195133
REMARK  11 active torsions:
REMARK  status: ('A' for Active; 'I' for Inactive)
REMARK    1  A    between atoms: C_1  and  C_2
REMARK    2  A    between atoms: C_2  and  C_3
REMARK    3  A    between atoms: C_2  and  S_4
REMARK    4  A    between atoms: S_4  and  C_5
REMARK    5  A    between atoms: C_5  and  C_7
REMARK    6  A    between atoms: C_5  and  N_28
REMARK    7  A    between atoms: C_13  and  C_15
REMARK    8  A    between atoms: C_23  and  C_24
REMARK    9  A    between atoms: C_29  and  O_31
REMARK   10  A    between atoms: O_31  and  C_32
REMARK   11  A    between atoms: C_32  and  C_33
REMARK                            x       y       z     vdW  Elec       q    Type
REMARK                         _______ _______ _______ _____ _____    ______ ____
ROOT
ATOM      1  C   UNL     1       3.161  -1.292  -0.196  0.00  0.00    +0.247 C 
ATOM      2  O   UNL     1       2.419  -2.099   0.323  0.00  0.00    -0.273 OA
ATOM      3  N   UNL     1       4.480  -1.317   0.078  0.00  0.00    -0.289 N 
ATOM      4  C   UNL     1       5.490  -0.396  -0.475  0.00  0.00    +0.108 C 
ATOM      5  C   UNL     1       6.827  -1.172  -0.384  0.00  0.00    +0.021 C 
ATOM      6  C   UNL     1       6.657  -1.930   0.959  0.00  0.00    +0.032 C 
ATOM      7  C   UNL     1       5.150  -2.264   0.982  0.00  0.00    +0.144 C 
ENDROOT
BRANCH   7   8
ATOM      8  C   UNL     1       4.609  -2.108   2.380  0.00  0.00    +0.158 A 
ATOM      9  N   UNL     1       4.392  -0.979   3.003  0.00  0.00    -0.132 NA
ATOM     10  N   UNL     1       3.927  -1.203   4.182  0.00  0.00    -0.129 NA
ATOM     11  C   UNL     1       3.822  -2.508   4.375  0.00  0.00    +0.173 A 
ATOM     12  N   UNL     1       4.252  -3.116   3.221  0.00  0.00    -0.284 N 
ATOM     13  C   UNL     1       4.255  -4.476   3.116  0.00  0.00    +0.094 A 
ATOM     14  C   UNL     1       3.832  -5.243   4.142  0.00  0.00    +0.019 A 
ATOM     15  C   UNL     1       3.383  -4.650   5.335  0.00  0.00    +0.017 A 
ATOM     16  C   UNL     1       3.382  -3.295   5.456  0.00  0.00    +0.099 A 
BRANCH  16  17
ATOM     17  C   UNL     1       2.901  -2.644   6.727  0.00  0.00    +0.421 C 
ATOM     18  F   UNL     1       2.522  -3.632   7.643  0.00  0.00    -0.166 F 
ATOM     19  F   UNL     1       3.932  -1.872   7.275  0.00  0.00    -0.166 F 
ATOM     20  F   UNL     1       1.804  -1.824   6.445  0.00  0.00    -0.166 F 
ENDBRANCH  16  17
ENDBRANCH   7   8
BRANCH   1  21
ATOM     21  C   UNL     1       2.608  -0.262  -1.146  0.00  0.00    +0.221 C 
BRANCH  21  22
ATOM     22  N   UNL     1       2.671   1.062  -0.522  0.00  0.00    -0.261 N 
ATOM     23  C   UNL     1       3.133   2.116  -1.224  0.00  0.00    +0.402 C 
ATOM     24  O   UNL     1       3.497   1.968  -2.374  0.00  0.00    -0.226 OA
ATOM     25  H   UNL     1       2.381   1.180   0.396  0.00  0.00    +0.154 HD
BRANCH  23  26
ATOM     26  O   UNL     1       3.192   3.333  -0.650  0.00  0.00    -0.446 OA
BRANCH  26  27
ATOM     27  C   UNL     1       3.692   4.404  -1.452  0.00  0.00    +0.269 C 
BRANCH  27  28
ATOM     28  C   UNL     1       3.684   5.679  -0.649  0.00  0.00    -0.010 A 
ATOM     29  C   UNL     1       2.568   6.494  -0.657  0.00  0.00    +0.007 A 
ATOM     30  C   UNL     1       2.561   7.664   0.080  0.00  0.00    +0.000 A 
ATOM     31  C   UNL     1       3.670   8.018   0.826  0.00  0.00    +0.000 A 
ATOM     32  C   UNL     1       4.786   7.202   0.834  0.00  0.00    +0.000 A 
ATOM     33  C   UNL     1       4.791   6.031   0.101  0.00  0.00    +0.007 A 
ENDBRANCH  27  28
ENDBRANCH  26  27
ENDBRANCH  23  26
ENDBRANCH  21  22
BRANCH  21  34
ATOM     34  S   UNL     1       0.882  -0.664  -1.536  0.00  0.00    -0.126 S 
BRANCH  34  36
ATOM     35  C   UNL     1      -1.560  -0.045  -0.471  0.00  0.00    +0.019 C 
ATOM     36  C   UNL     1      -0.063   0.110  -0.195  0.00  0.00    +0.043 C 
ATOM     37  C   UNL     1       0.284  -0.570   1.131  0.00  0.00    +0.019 C 
ENDBRANCH  34  36
ENDBRANCH  21  34
ENDBRANCH   1  21
TORSDOF 9
