REMARK  Name = ZINC14535965
REMARK  12 active torsions:
REMARK  status: ('A' for Active; 'I' for Inactive)
REMARK    1  A    between atoms: C_1  and  C_2
REMARK    2  A    between atoms: C_2  and  C_3
REMARK    3  A    between atoms: C_2  and  C_4
REMARK    4  A    between atoms: C_2  and  N_5
REMARK    5  A    between atoms: N_5  and  S_6
REMARK    6  A    between atoms: S_6  and  C_9
REMARK    7  A    between atoms: C_11  and  C_22
REMARK    8  A    between atoms: C_13  and  N_15
REMARK    9  A    between atoms: N_15  and  C_16
REMARK   10  A    between atoms: N_24  and  C_25
REMARK   11  A    between atoms: C_25  and  C_26
REMARK   12  A    between atoms: C_32  and  N_72
REMARK                            x       y       z     vdW  Elec       q    Type
REMARK                         _______ _______ _______ _____ _____    ______ ____
ROOT
ATOM      1  C   UNL     1       5.721   7.755  -0.017  0.00  0.00    +0.108 A 
ATOM      2  C   UNL     1       4.447   7.632  -0.536  0.00  0.00    +0.041 A 
ATOM      3  C   UNL     1       3.817   6.387  -0.550  0.00  0.00    +0.040 A 
ATOM      4  C   UNL     1       4.476   5.271  -0.033  0.00  0.00    +0.036 A 
ATOM      5  C   UNL     1       5.756   5.404   0.482  0.00  0.00    +0.030 A 
ATOM      6  C   UNL     1       6.375   6.649   0.490  0.00  0.00    +0.051 A 
ENDROOT
BRANCH   3   7
ATOM      7  C   UNL     1       2.453   6.252  -1.104  0.00  0.00    +0.244 C 
ATOM      8  O   UNL     1       1.879   7.226  -1.549  0.00  0.00    -0.270 OA
ATOM      9  N   UNL     1       1.847   5.048  -1.117  0.00  0.00    -0.311 N 
ATOM     10  H   UNL     1       2.305   4.271  -0.762  0.00  0.00    +0.149 HD
BRANCH   9  11
ATOM     11  C   UNL     1       0.495   4.915  -1.666  0.00  0.00    +0.106 C 
BRANCH  11  12
ATOM     12  C   UNL     1       0.043   3.457  -1.560  0.00  0.00    -0.011 C 
ATOM     13  C   UNL     1      -1.316   3.292  -2.246  0.00  0.00    +0.001 C 
ATOM     14  C   UNL     1      -1.788   1.845  -2.083  0.00  0.00    -0.018 C 
ATOM     15  C   UNL     1      -1.862   1.502  -0.594  0.00  0.00    -0.079 C 
ATOM     16  C   UNL     1      -0.084   3.067  -0.086  0.00  0.00    -0.074 C 
ATOM     17  C   UNL     1      -0.539   1.222   1.414  0.00  0.00    -0.096 C 
ATOM     18  N   UNL     1      -0.518   1.657   0.002  0.00  0.00    +0.378 N 
ATOM     19  H   UNL     1       0.146   1.071  -0.518  0.00  0.00    -0.082 HD
ENDBRANCH  11  12
ENDBRANCH   9  11
ENDBRANCH   3   7
BRANCH   1  20
ATOM     20  S   UNL     1       6.513   9.329  -0.001  0.00  0.00    +0.059 S 
ATOM     21  O   UNL     1       7.884   9.096  -0.293  0.00  0.00    -0.153 OA
ATOM     22  O   UNL     1       5.705  10.199  -0.782  0.00  0.00    -0.153 OA
BRANCH  20  23
ATOM     23  N   UNL     1       6.450   9.893   1.555  0.00  0.00    -0.185 NA
ATOM     24  H   UNL     1       7.267   9.993   2.068  0.00  0.00    +0.149 HD
BRANCH  23  26
ATOM     25  C   UNL     1       4.236   9.024   2.122  0.00  0.00    +0.029 C 
ATOM     26  C   UNL     1       5.160  10.242   2.155  0.00  0.00    +0.032 C 
ATOM     27  C   UNL     1       5.375  10.679   3.606  0.00  0.00    +0.029 C 
ATOM     28  C   UNL     1       4.523  11.388   1.366  0.00  0.00    +0.029 C 
ENDBRANCH  23  26
ENDBRANCH  20  23
ENDBRANCH   1  20
BRANCH   5  29
ATOM     29  N   UNL     1       6.422   4.289   0.996  0.00  0.00    -0.341 N 
ATOM     30  H   UNL     1       7.317   4.383   1.359  0.00  0.00    +0.146 HD
BRANCH  29  31
ATOM     31  C   UNL     1       5.770   2.978   0.987  0.00  0.00    +0.070 C 
ATOM     32  C   UNL     1       4.886   2.839   2.228  0.00  0.00    +0.022 C 
ATOM     33  C   UNL     1       4.205   1.469   2.218  0.00  0.00    +0.002 C 
ATOM     34  C   UNL     1       5.269   0.370   2.224  0.00  0.00    +0.000 C 
ATOM     35  C   UNL     1       6.153   0.508   0.983  0.00  0.00    +0.002 C 
ATOM     36  C   UNL     1       6.834   1.878   0.993  0.00  0.00    +0.022 C 
ENDBRANCH  29  31
ENDBRANCH   5  29
TORSDOF 8
