REMARK  Name = ZINC36600917
REMARK  18 active torsions:
REMARK  status: ('A' for Active; 'I' for Inactive)
REMARK    1  A    between atoms: C_1  and  C_2
REMARK    2  A    between atoms: C_5  and  C_7
REMARK    3  A    between atoms: C_7  and  N_8
REMARK    4  A    between atoms: N_8  and  C_9
REMARK    5  A    between atoms: C_9  and  C_11
REMARK    6  A    between atoms: C_9  and  C_18
REMARK    7  A    between atoms: C_16  and  O_17
REMARK    8  A    between atoms: N_20  and  C_21
REMARK    9  A    between atoms: C_21  and  C_22
REMARK   10  A    between atoms: C_21  and  C_23
REMARK   11  A    between atoms: C_21  and  C_24
REMARK   12  A    between atoms: C_24  and  C_25
REMARK   13  A    between atoms: C_25  and  C_26
REMARK   14  A    between atoms: C_25  and  C_27
REMARK   15  A    between atoms: C_25  and  C_28
REMARK   16  A    between atoms: C_29  and  C_31
REMARK   17  A    between atoms: C_31  and  N_32
REMARK   18  A    between atoms: C_33  and  C_35
REMARK                            x       y       z     vdW  Elec       q    Type
REMARK                         _______ _______ _______ _____ _____    ______ ____
ROOT
ATOM      1  N   UNL     1       1.812  -2.286  -3.810  0.00  0.00    -0.277 N 
ATOM      2  C   UNL     1       1.493  -2.397  -2.505  0.00  0.00    +0.234 C 
ATOM      3  O   UNL     1       2.166  -1.837  -1.666  0.00  0.00    -0.274 OA
ENDROOT
BRANCH   1   4
ATOM      4  C   UNL     1       0.999  -2.962  -4.823  0.00  0.00    +0.183 C 
BRANCH   4   9
ATOM      5  C   UNL     1       3.762  -6.602  -6.959  0.00  0.00    +0.086 C 
ATOM      6  C   UNL     1       2.789  -5.900  -6.046  0.00  0.00    +0.102 A 
ATOM      7  C   UNL     1       2.070  -6.480  -5.068  0.00  0.00    +0.045 A 
ATOM      8  C   UNL     1       1.296  -5.459  -4.470  0.00  0.00    +0.046 A 
ATOM      9  C   UNL     1       1.588  -4.317  -5.117  0.00  0.00    +0.122 A 
ATOM     10  O   UNL     1       2.497  -4.589  -6.068  0.00  0.00    -0.463 OA
ENDBRANCH   4   9
ENDBRANCH   1   4
BRANCH   1  11
ATOM     11  C   UNL     1       2.973  -1.488  -4.214  0.00  0.00    +0.196 C 
BRANCH  11  12
ATOM     12  C   UNL     1       4.185  -1.937  -3.439  0.00  0.00    +0.023 A 
ATOM     13  C   UNL     1       4.603  -1.220  -2.334  0.00  0.00    +0.009 A 
ATOM     14  C   UNL     1       5.715  -1.631  -1.622  0.00  0.00    +0.001 A 
ATOM     15  C   UNL     1       6.412  -2.759  -2.014  0.00  0.00    +0.004 A 
ATOM     16  C   UNL     1       5.998  -3.479  -3.118  0.00  0.00    +0.046 A 
ATOM     17  C   UNL     1       4.879  -3.072  -3.831  0.00  0.00    +0.122 A 
BRANCH  17  18
ATOM     18  O   UNL     1       4.466  -3.782  -4.914  0.00  0.00    -0.506 OA
ATOM     19  H   UNL     1       4.918  -3.545  -5.735  0.00  0.00    +0.292 HD
ENDBRANCH  17  18
ENDBRANCH  11  12
BRANCH  11  20
ATOM     20  C   UNL     1       2.706  -0.033  -3.931  0.00  0.00    +0.239 C 
ATOM     21  O   UNL     1       1.746   0.289  -3.262  0.00  0.00    -0.273 OA
ATOM     22  N   UNL     1       3.533   0.912  -4.421  0.00  0.00    -0.308 N 
ATOM     23  H   UNL     1       4.244   0.664  -5.032  0.00  0.00    +0.149 HD
BRANCH  22  24
ATOM     24  C   UNL     1       3.358   2.313  -4.030  0.00  0.00    +0.030 C 
ATOM     25  C   UNL     1       2.071   2.859  -4.652  0.00  0.00    +0.031 C 
ATOM     26  C   UNL     1       3.268   2.410  -2.506  0.00  0.00    +0.031 C 
BRANCH  24  27
ATOM     27  C   UNL     1       4.551   3.134  -4.525  0.00  0.00    +0.031 C 
BRANCH  27  28
ATOM     28  C   UNL     1       5.811   2.707  -3.770  0.00  0.00    -0.036 C 
ATOM     29  C   UNL     1       5.777   1.195  -3.535  0.00  0.00    +0.010 C 
ATOM     30  C   UNL     1       7.047   3.066  -4.597  0.00  0.00    +0.010 C 
ATOM     31  C   UNL     1       5.869   3.431  -2.424  0.00  0.00    +0.010 C 
ENDBRANCH  27  28
ENDBRANCH  24  27
ENDBRANCH  22  24
ENDBRANCH  11  20
ENDBRANCH   1  11
BRANCH   2  32
ATOM     32  C   UNL     1       0.299  -3.217  -2.089  0.00  0.00    +0.200 C 
BRANCH  32  33
ATOM     33  N   UNL     1       0.165  -3.180  -0.631  0.00  0.00    -0.303 N 
ATOM     34  C   UNL     1      -0.839  -3.848  -0.029  0.00  0.00    +0.244 C 
ATOM     35  O   UNL     1      -1.635  -4.479  -0.696  0.00  0.00    -0.270 OA
ATOM     36  H   UNL     1       0.800  -2.676  -0.098  0.00  0.00    +0.150 HD
BRANCH  34  37
ATOM     37  C   UNL     1      -0.974  -3.811   1.443  0.00  0.00    +0.037 A 
ATOM     38  C   UNL     1      -0.065  -3.081   2.212  0.00  0.00    +0.013 A 
ATOM     39  C   UNL     1      -0.197  -3.051   3.585  0.00  0.00    +0.001 A 
ATOM     40  C   UNL     1      -1.226  -3.741   4.200  0.00  0.00    +0.000 A 
ATOM     41  C   UNL     1      -2.130  -4.467   3.443  0.00  0.00    +0.001 A 
ATOM     42  C   UNL     1      -2.013  -4.501   2.069  0.00  0.00    +0.013 A 
ENDBRANCH  34  37
ENDBRANCH  32  33
ENDBRANCH   2  32
TORSDOF 12
