REMARK  Name = ZINC12658696
REMARK  10 active torsions:
REMARK  status: ('A' for Active; 'I' for Inactive)
REMARK    1  A    between atoms: C_1  and  C_2
REMARK    2  A    between atoms: C_2  and  O_3
REMARK    3  A    between atoms: O_3  and  C_4
REMARK    4  A    between atoms: C_4  and  C_6
REMARK    5  A    between atoms: C_6  and  C_35
REMARK    6  A    between atoms: C_13  and  C_34
REMARK    7  A    between atoms: C_23  and  C_33
REMARK    8  A    between atoms: C_26  and  O_29
REMARK    9  A    between atoms: O_29  and  C_30
REMARK   10  A    between atoms: C_30  and  C_32
REMARK                            x       y       z     vdW  Elec       q    Type
REMARK                         _______ _______ _______ _____ _____    ______ ____
ROOT
ATOM      1  C   UNL     1       1.284   0.605   0.224  0.00  0.00    +0.271 C 
ATOM      2  C   UNL     1       0.043   1.490   0.181  0.00  0.00    +0.125 C 
ATOM      3  O   UNL     1      -0.043   0.071   0.194  0.00  0.00    -0.341 OA
ATOM      4  C   UNL     1      -0.379   2.328   1.398  0.00  0.00    +0.040 C 
ATOM      5  C   UNL     1      -0.983   3.635   0.835  0.00  0.00    +0.007 C 
ATOM      6  C   UNL     1      -1.453   3.242  -0.598  0.00  0.00    +0.002 C 
ATOM      7  C   UNL     1      -0.315   2.311  -1.058  0.00  0.00    +0.004 C 
ATOM      8  C   UNL     1      -0.689   1.456  -2.246  0.00  0.00    +0.010 C 
ATOM      9  C   UNL     1      -1.985   0.687  -1.993  0.00  0.00    +0.005 C 
ATOM     10  C   UNL     1      -3.100   1.700  -1.710  0.00  0.00    +0.003 C 
ATOM     11  C   UNL     1      -2.756   2.456  -0.429  0.00  0.00    +0.000 C 
ATOM     12  C   UNL     1      -2.590   1.438   0.704  0.00  0.00    +0.031 C 
ATOM     13  C   UNL     1      -3.841   0.614   0.807  0.00  0.00    -0.027 C 
ATOM     14  C   UNL     1      -4.645   0.412  -0.196  0.00  0.00    -0.064 C 
ATOM     15  C   UNL     1      -4.430   0.982  -1.568  0.00  0.00    -0.008 C 
ATOM     16  C   UNL     1      -4.535  -0.140  -2.606  0.00  0.00    +0.015 C 
ATOM     17  C   UNL     1      -5.869  -0.869  -2.433  0.00  0.00    +0.046 C 
ATOM     18  C   UNL     1      -5.921  -1.528  -1.053  0.00  0.00    +0.180 C 
ATOM     19  C   UNL     1      -5.878  -0.447   0.031  0.00  0.00    +0.075 C 
ATOM     20  C   UNL     1      -5.541   1.996  -1.846  0.00  0.00    +0.016 C 
ATOM     21  C   UNL     1       0.893   3.168  -1.443  0.00  0.00    +0.014 C 
ENDROOT
BRANCH   1  22
ATOM     22  C   UNL     1       2.044   0.524   1.523  0.00  0.00    +0.257 C 
ATOM     23  O   UNL     1       2.089  -0.521   2.135  0.00  0.00    -0.272 OA
ATOM     24  N   UNL     1       2.674   1.614   2.004  0.00  0.00    -0.326 N 
ATOM     25  H   UNL     1       2.639   2.451   1.514  0.00  0.00    +0.145 HD
ATOM     26  H   UNL     1       3.164   1.562   2.840  0.00  0.00    +0.145 HD
ENDBRANCH   1  22
BRANCH   1  27
ATOM     27  C   UNL     1       2.114   0.497  -1.028  0.00  0.00    +0.352 C 
ATOM     28  O   UNL     1       3.082   1.205  -1.175  0.00  0.00    -0.247 OA
BRANCH  27  29
ATOM     29  O   UNL     1       1.779  -0.387  -1.981  0.00  0.00    -0.462 OA
BRANCH  29  31
ATOM     30  C   UNL     1       2.088  -1.495  -4.128  0.00  0.00    +0.048 C 
ATOM     31  C   UNL     1       2.624  -0.437  -3.161  0.00  0.00    +0.229 C 
ENDBRANCH  29  31
ENDBRANCH  27  29
ENDBRANCH   1  27
BRANCH  18  32
ATOM     32  O   UNL     1      -7.149  -2.291  -0.927  0.00  0.00    -0.461 OA
BRANCH  32  33
ATOM     33  C   UNL     1      -7.115  -3.374  -0.135  0.00  0.00    +0.304 C 
ATOM     34  O   UNL     1      -6.093  -3.675   0.434  0.00  0.00    -0.251 OA
ATOM     35  C   UNL     1      -8.353  -4.215   0.044  0.00  0.00    +0.136 C 
ENDBRANCH  32  33
ENDBRANCH  18  32
TORSDOF 6
