REMARK  Name = ZINC67263074
REMARK  7 active torsions:
REMARK  status: ('A' for Active; 'I' for Inactive)
REMARK    1  A    between atoms: C_3  and  N_12
REMARK    2  A    between atoms: C_6  and  C_7
REMARK    3  A    between atoms: C_7  and  N_8
REMARK    4  A    between atoms: C_13  and  C_15
REMARK    5  A    between atoms: C_15  and  S_16
REMARK    6  A    between atoms: S_16  and  C_17
REMARK    7  A    between atoms: C_17  and  C_18
REMARK                            x       y       z     vdW  Elec       q    Type
REMARK                         _______ _______ _______ _____ _____    ______ ____
ROOT
ATOM      1  C   UNL     1       1.084  -0.460   0.750  0.00  0.00    +0.007 A 
ATOM      2  C   UNL     1       2.273   0.242   0.738  0.00  0.00    +0.023 A 
ATOM      3  C   UNL     1       2.381   1.409  -0.007  0.00  0.00    +0.033 A 
ATOM      4  C   UNL     1       1.292   1.866  -0.738  0.00  0.00    +0.023 A 
ATOM      5  C   UNL     1       0.105   1.159  -0.722  0.00  0.00    +0.007 A 
ATOM      6  C   UNL     1       0.001  -0.002   0.021  0.00  0.00    -0.030 A 
ENDROOT
BRANCH   3   7
ATOM      7  N   UNL     1       3.584   2.123  -0.021  0.00  0.00    -0.285 N 
ATOM      8  C   UNL     1       4.758   1.467   0.066  0.00  0.00    +0.227 C 
ATOM      9  O   UNL     1       4.777   0.255   0.060  0.00  0.00    -0.275 OA
ATOM     10  H   UNL     1       3.573   3.091  -0.093  0.00  0.00    +0.155 HD
BRANCH   8  11
ATOM     11  C   UNL     1       6.047   2.241   0.171  0.00  0.00    +0.165 C 
BRANCH  11  12
ATOM     12  S   UNL     1       7.440   1.083   0.272  0.00  0.00    -0.147 S 
BRANCH  12  13
ATOM     13  C   UNL     1       8.896   2.158   0.391  0.00  0.00    +0.104 C 
BRANCH  13  14
ATOM     14  C   UNL     1      10.140   1.311   0.483  0.00  0.00    -0.037 A 
ATOM     15  C   UNL     1      10.614   0.911   1.718  0.00  0.00    +0.006 A 
ATOM     16  C   UNL     1      11.754   0.134   1.802  0.00  0.00    +0.020 A 
ATOM     17  C   UNL     1      12.421  -0.243   0.650  0.00  0.00    +0.041 A 
ATOM     18  C   UNL     1      11.946   0.158  -0.586  0.00  0.00    +0.020 A 
ATOM     19  C   UNL     1      10.802   0.930  -0.669  0.00  0.00    +0.006 A 
ATOM     20 CL   UNL     1      13.853  -1.218   0.755  0.00  0.00    -0.084 Cl
ENDBRANCH  13  14
ENDBRANCH  12  13
ENDBRANCH  11  12
ENDBRANCH   8  11
ENDBRANCH   3   7
BRANCH   6  21
ATOM     21  C   UNL     1      -1.295  -0.771   0.036  0.00  0.00    +0.141 C 
BRANCH  21  22
ATOM     22  N   UNL     1      -2.138  -0.285   1.131  0.00  0.00    -0.295 N 
ATOM     23  C   UNL     1      -3.353  -0.830   1.339  0.00  0.00    +0.297 C 
ATOM     24  O   UNL     1      -3.749  -1.725   0.618  0.00  0.00    -0.253 OA
ATOM     25  N   UNL     1      -4.129  -0.383   2.347  0.00  0.00    -0.313 N 
ATOM     26  H   UNL     1      -1.822   0.429   1.707  0.00  0.00    +0.151 HD
ATOM     27  H   UNL     1      -3.812   0.331   2.922  0.00  0.00    +0.146 HD
ATOM     28  H   UNL     1      -5.003  -0.775   2.496  0.00  0.00    +0.146 HD
ENDBRANCH  21  22
ENDBRANCH   6  21
TORSDOF 7
