REMARK  Name = ZINC09410806
REMARK  10 active torsions:
REMARK  status: ('A' for Active; 'I' for Inactive)
REMARK    1  A    between atoms: C_1  and  O_2
REMARK    2  A    between atoms: O_2  and  C_3
REMARK    3  A    between atoms: C_5  and  C_13
REMARK    4  A    between atoms: C_7  and  O_11
REMARK    5  A    between atoms: C_8  and  O_9
REMARK    6  A    between atoms: O_9  and  C_10
REMARK    7  A    between atoms: O_11  and  C_12
REMARK    8  A    between atoms: N_15  and  C_16
REMARK    9  A    between atoms: C_16  and  C_17
REMARK   10  A    between atoms: C_17  and  C_18
REMARK                            x       y       z     vdW  Elec       q    Type
REMARK                         _______ _______ _______ _____ _____    ______ ____
ROOT
ATOM      1  C   UNL     1       1.385   4.700   3.112  0.00  0.00    +0.217 C 
ATOM      2  O   UNL     1       1.226   5.878   2.873  0.00  0.00    -0.276 OA
ATOM      3  N   UNL     1       1.033   3.773   2.199  0.00  0.00    -0.302 N 
ATOM      4  C   UNL     1       0.458   4.175   0.908  0.00  0.00    +0.107 C 
ATOM      5  C   UNL     1       1.276   3.535  -0.218  0.00  0.00    +0.013 C 
ATOM      6  C   UNL     1       1.343   2.024   0.000  0.00  0.00    -0.020 C 
ATOM      7  C   UNL     1       2.031   1.722   1.332  0.00  0.00    +0.013 C 
ATOM      8  C   UNL     1       1.219   2.342   2.474  0.00  0.00    +0.107 C 
ATOM      9  C   UNL     1       2.115   1.383  -1.125  0.00  0.00    +0.051 A 
ATOM     10  C   UNL     1       1.718   0.247  -1.743  0.00  0.00    +0.035 A 
ATOM     11  N   UNL     1       2.641  -0.034  -2.699  0.00  0.00    -0.348 N 
ATOM     12  H   UNL     1       2.629  -0.811  -3.328  0.00  0.00    +0.166 HD
ATOM     13  C   UNL     1       3.580   0.939  -2.639  0.00  0.00    +0.196 A 
ATOM     14  N   UNL     1       3.255   1.781  -1.692  0.00  0.00    -0.242 NA
ATOM     15  C   UNL     1       0.465  -0.506  -1.373  0.00  0.00    +0.036 C 
ATOM     16  C   UNL     1       0.002  -0.004   0.002  0.00  0.00    -0.075 C 
ATOM     17  N   UNL     1      -0.030   1.473   0.010  0.00  0.00    +0.387 N 
ATOM     18  H   UNL     1      -0.532   1.805  -0.822  0.00  0.00    -0.085 HD
ATOM     19  H   UNL     1      -0.516   1.796   0.855  0.00  0.00    -0.085 HD
ENDROOT
BRANCH   1  20
ATOM     20  C   UNL     1       1.974   4.271   4.432  0.00  0.00    +0.114 C 
BRANCH  20  21
ATOM     21  C   UNL     1       2.282   5.508   5.278  0.00  0.00    +0.113 C 
BRANCH  21  24
ATOM     22  C   UNL     1       3.206   6.018   7.474  0.00  0.00    +0.244 C 
ATOM     23  O   UNL     1       3.047   7.199   7.234  0.00  0.00    -0.270 OA
ATOM     24  N   UNL     1       2.855   5.092   6.561  0.00  0.00    -0.311 N 
ATOM     25  H   UNL     1       2.981   4.149   6.752  0.00  0.00    +0.149 HD
BRANCH  22  28
ATOM     26  C   UNL     1       4.687   6.163  10.924  0.00  0.00    +0.166 A 
ATOM     27  C   UNL     1       4.147   6.558   9.714  0.00  0.00    +0.062 A 
ATOM     28  C   UNL     1       3.783   5.599   8.767  0.00  0.00    +0.044 A 
ATOM     29  C   UNL     1       3.960   4.242   9.046  0.00  0.00    +0.062 A 
ATOM     30  C   UNL     1       4.506   3.852  10.255  0.00  0.00    +0.166 A 
ATOM     31  C   UNL     1       4.868   4.809  11.198  0.00  0.00    +0.204 A 
BRANCH  26  33
ATOM     32  C   UNL     1       4.830   8.466  11.500  0.00  0.00    +0.277 C 
ATOM     33  O   UNL     1       5.043   7.096  11.847  0.00  0.00    -0.491 OA
ENDBRANCH  26  33
BRANCH  31  34
ATOM     34  O   UNL     1       5.398   4.423  12.388  0.00  0.00    -0.488 OA
ATOM     35  C   UNL     1       4.483   4.185  13.460  0.00  0.00    +0.277 C 
ENDBRANCH  31  34
BRANCH  30  36
ATOM     36  O   UNL     1       4.684   2.530  10.525  0.00  0.00    -0.491 OA
ATOM     37  C   UNL     1       4.290   1.602   9.513  0.00  0.00    +0.277 C 
ENDBRANCH  30  36
ENDBRANCH  22  28
ENDBRANCH  21  24
ENDBRANCH  20  21
ENDBRANCH   1  20
TORSDOF 7
