REMARK  Name = ZINC25074135
REMARK  10 active torsions:
REMARK  status: ('A' for Active; 'I' for Inactive)
REMARK    1  A    between atoms: C_1  and  C_2
REMARK    2  A    between atoms: C_15  and  C_17
REMARK    3  A    between atoms: C_17  and  N_18
REMARK    4  A    between atoms: N_18  and  C_19
REMARK    5  A    between atoms: C_22  and  S_25
REMARK    6  A    between atoms: S_25  and  N_28
REMARK    7  A    between atoms: N_28  and  C_29
REMARK    8  A    between atoms: N_28  and  C_30
REMARK    9  A    between atoms: C_30  and  C_31
REMARK   10  A    between atoms: C_30  and  C_32
REMARK                            x       y       z     vdW  Elec       q    Type
REMARK                         _______ _______ _______ _____ _____    ______ ____
ROOT
ATOM      1  C   UNL     1       3.845  -0.700   6.323  0.00  0.00    +0.198 C 
ENDROOT
BRANCH   1  15
ATOM      2  C   UNL     1       4.179  -0.064  10.896  0.00  0.00    +0.029 C 
ATOM      3  C   UNL     1       5.096  -0.831   9.942  0.00  0.00    +0.087 C 
ATOM      4  C   UNL     1       6.561  -0.556  10.304  0.00  0.00    +0.118 C 
ATOM      5  C   UNL     1       7.463  -0.956   9.166  0.00  0.00    +0.219 C 
ATOM      6  O   UNL     1       8.113  -1.978   9.244  0.00  0.00    -0.275 OA
ATOM      7  N   UNL     1       7.553  -0.185   8.061  0.00  0.00    -0.284 N 
ATOM      8  C   UNL     1       6.739   0.944   7.914  0.00  0.00    +0.055 A 
ATOM      9  C   UNL     1       7.275   2.159   7.521  0.00  0.00    +0.025 A 
ATOM     10  C   UNL     1       6.444   3.247   7.329  0.00  0.00    +0.002 A 
ATOM     11  C   UNL     1       5.080   3.126   7.529  0.00  0.00    +0.002 A 
ATOM     12  C   UNL     1       4.540   1.919   7.933  0.00  0.00    +0.025 A 
ATOM     13  C   UNL     1       5.367   0.827   8.136  0.00  0.00    +0.058 A 
ATOM     14  N   UNL     1       4.840  -0.399   8.567  0.00  0.00    -0.265 N 
ATOM     15  C   UNL     1       4.106  -1.162   7.733  0.00  0.00    +0.237 C 
ATOM     16  O   UNL     1       3.655  -2.220   8.118  0.00  0.00    -0.274 OA
ATOM     17  H   UNL     1       8.270  -0.444   7.268  0.00  0.00    +0.155 HD
ENDBRANCH   1  15
BRANCH   1  18
ATOM     18  N   UNL     1       3.030  -1.698   5.625  0.00  0.00    -0.335 N 
ATOM     19  H   UNL     1       2.711  -2.611   6.149  0.00  0.00    +0.147 HD
BRANCH  18  20
ATOM     20  C   UNL     1       2.657  -1.489   4.295  0.00  0.00    +0.028 A 
ATOM     21  C   UNL     1       1.884  -2.434   3.633  0.00  0.00    +0.025 A 
ATOM     22  C   UNL     1       1.517  -2.225   2.318  0.00  0.00    +0.030 A 
ATOM     23  C   UNL     1       1.918  -1.076   1.661  0.00  0.00    +0.106 A 
ATOM     24  C   UNL     1       2.692  -0.136   2.316  0.00  0.00    +0.030 A 
ATOM     25  C   UNL     1       3.058  -0.336   3.633  0.00  0.00    +0.025 A 
BRANCH  23  26
ATOM     26  S   UNL     1       1.447  -0.812  -0.016  0.00  0.00    +0.061 S 
ATOM     27  O   UNL     1       1.188  -2.095  -0.571  0.00  0.00    -0.153 OA
ATOM     28  O   UNL     1       2.404   0.079  -0.571  0.00  0.00    -0.153 OA
BRANCH  26  29
ATOM     29  N   UNL     1       0.002  -0.004   0.002  0.00  0.00    -0.177 NA
ATOM     30  C   UNL     1      -1.256  -0.754   0.010  0.00  0.00    +0.132 C 
BRANCH  29  31
ATOM     31  C   UNL     1      -0.018   1.461   0.010  0.00  0.00    +0.073 C 
ATOM     32  C   UNL     1      -0.758   1.968  -1.230  0.00  0.00    +0.025 C 
ATOM     33  C   UNL     1      -0.734   1.954   1.269  0.00  0.00    +0.025 C 
ENDBRANCH  29  31
ENDBRANCH  26  29
ENDBRANCH  23  26
ENDBRANCH  18  20
ENDBRANCH   1  18
TORSDOF 6
