REMARK  Name = ZINC37437608
REMARK  11 active torsions:
REMARK  status: ('A' for Active; 'I' for Inactive)
REMARK    1  A    between atoms: C_1  and  C_2
REMARK    2  A    between atoms: N_6  and  C_7
REMARK    3  A    between atoms: C_7  and  C_9
REMARK    4  A    between atoms: N_16  and  C_17
REMARK    5  A    between atoms: C_17  and  C_18
REMARK    6  A    between atoms: C_21  and  C_23
REMARK    7  A    between atoms: N_25  and  C_26
REMARK    8  A    between atoms: C_26  and  C_27
REMARK    9  A    between atoms: C_27  and  N_28
REMARK   10  A    between atoms: N_28  and  C_29
REMARK   11  A    between atoms: N_28  and  C_30
REMARK                            x       y       z     vdW  Elec       q    Type
REMARK                         _______ _______ _______ _____ _____    ______ ____
ROOT
ATOM      1  C   UNL     1      -0.018   1.503   0.010  0.00  0.00    +0.064 C 
ATOM      2  C   UNL     1       0.002  -0.004   0.002  0.00  0.00    +0.025 A 
ATOM      3  C   UNL     1       0.006  -0.694  -1.144  0.00  0.00    +0.069 A 
ATOM      4  S   UNL     1       0.032  -2.379  -0.562  0.00  0.00    -0.060 S 
ATOM      5  C   UNL     1       0.035  -2.077   1.092  0.00  0.00    +0.166 A 
ATOM      6  N   UNL     1       0.052  -2.955   2.093  0.00  0.00    -0.152 NA
ATOM      7  N   UNL     1       0.023  -0.718   1.160  0.00  0.00    -0.318 N 
ENDROOT
BRANCH   6   8
ATOM      8  C   UNL     1       0.069  -4.265   1.833  0.00  0.00    +0.269 C 
ATOM      9  O   UNL     1       0.068  -4.657   0.678  0.00  0.00    -0.268 OA
BRANCH   8  10
ATOM     10  C   UNL     1       0.087  -5.241   2.945  0.00  0.00    +0.039 A 
ATOM     11  C   UNL     1       0.082  -4.795   4.268  0.00  0.00    +0.016 A 
ATOM     12  C   UNL     1       0.099  -5.708   5.301  0.00  0.00    +0.039 A 
ATOM     13  C   UNL     1       0.122  -7.067   5.027  0.00  0.00    +0.123 A 
ATOM     14  C   UNL     1       0.128  -7.515   3.715  0.00  0.00    +0.039 A 
ATOM     15  C   UNL     1       0.104  -6.610   2.675  0.00  0.00    +0.016 A 
ATOM     16  F   UNL     1       0.139  -7.958   6.043  0.00  0.00    -0.205 F 
ENDBRANCH   8  10
ENDBRANCH   6   8
BRANCH   7  17
ATOM     17  C   UNL     1       0.026  -0.036   2.456  0.00  0.00    +0.198 C 
BRANCH  17  18
ATOM     18  C   UNL     1      -1.394   0.179   2.914  0.00  0.00    +0.126 A 
ATOM     19  C   UNL     1      -2.115  -0.679   3.669  0.00  0.00    +0.047 A 
ATOM     20  C   UNL     1      -3.377  -0.096   3.865  0.00  0.00    +0.055 A 
ATOM     21  C   UNL     1      -3.361   1.103   3.212  0.00  0.00    +0.189 A 
ATOM     22  O   UNL     1      -2.146   1.254   2.645  0.00  0.00    -0.453 OA
BRANCH  21  23
ATOM     23  C   UNL     1      -4.469   2.061   3.143  0.00  0.00    +0.279 C 
ATOM     24  O   UNL     1      -5.522   1.815   3.701  0.00  0.00    -0.267 OA
ATOM     25  N   UNL     1      -4.321   3.214   2.460  0.00  0.00    -0.311 N 
ATOM     26  H   UNL     1      -3.482   3.410   2.015  0.00  0.00    +0.149 HD
BRANCH  25  27
ATOM     27  C   UNL     1      -5.428   4.171   2.391  0.00  0.00    +0.086 C 
BRANCH  27  28
ATOM     28  C   UNL     1      -5.002   5.386   1.563  0.00  0.00    -0.061 C 
BRANCH  28  29
ATOM     29  N   UNL     1      -6.112   6.345   1.494  0.00  0.00    +0.377 N 
ATOM     30  C   UNL     1      -5.664   7.562   0.802  0.00  0.00    -0.097 C 
ATOM     31  C   UNL     1      -7.231   5.746   0.756  0.00  0.00    -0.097 C 
ATOM     32  H   UNL     1      -6.412   6.581   2.428  0.00  0.00    -0.083 HD
ENDBRANCH  28  29
ENDBRANCH  27  28
ENDBRANCH  25  27
ENDBRANCH  21  23
ENDBRANCH  17  18
ENDBRANCH   7  17
TORSDOF 8
