REMARK  Name = ZINC02732612
REMARK  10 active torsions:
REMARK  status: ('A' for Active; 'I' for Inactive)
REMARK    1  A    between atoms: C_1  and  C_2
REMARK    2  A    between atoms: C_2  and  O_3
REMARK    3  A    between atoms: O_3  and  C_4
REMARK    4  A    between atoms: C_4  and  C_6
REMARK    5  A    between atoms: C_10  and  N_11
REMARK    6  A    between atoms: C_12  and  C_14
REMARK    7  A    between atoms: N_19  and  S_21
REMARK    8  A    between atoms: S_21  and  C_24
REMARK    9  A    between atoms: N_27  and  C_30
REMARK   10  A    between atoms: C_28  and  C_29
REMARK                            x       y       z     vdW  Elec       q    Type
REMARK                         _______ _______ _______ _____ _____    ______ ____
ROOT
ATOM      1  N   UNL     1      -1.072  -0.880   0.007  0.00  0.00    -0.279 N 
ATOM      2  C   UNL     1      -0.857  -2.211  -0.002  0.00  0.00    +0.222 C 
ATOM      3  O   UNL     1       0.277  -2.641  -0.015  0.00  0.00    -0.275 OA
ATOM      4  H   UNL     1      -1.979  -0.536   0.017  0.00  0.00    +0.155 HD
ENDROOT
BRANCH   1   9
ATOM      5  C   UNL     1      -0.017   1.385   0.010  0.00  0.00    +0.091 A 
ATOM      6  C   UNL     1       1.263   2.073   0.001  0.00  0.00    -0.021 A 
ATOM      7  C   UNL     1       2.349   1.270  -0.014  0.00  0.00    -0.004 A 
ATOM      8  S   UNL     1       1.694  -0.376  -0.016  0.00  0.00    -0.077 S 
ATOM      9  C   UNL     1       0.002  -0.004   0.002  0.00  0.00    +0.086 A 
ATOM     10  C   UNL     1       3.785   1.692  -0.027  0.00  0.00    +0.043 C 
ATOM     11  C   UNL     1       3.848   3.181  -0.397  0.00  0.00    +0.005 C 
ATOM     12  C   UNL     1       2.830   3.945   0.454  0.00  0.00    +0.005 C 
ATOM     13  C   UNL     1       1.410   3.590   0.009  0.00  0.00    +0.037 C 
BRANCH   5  14
ATOM     14  C   UNL     1      -1.279   2.127   0.020  0.00  0.00    +0.342 C 
ATOM     15  O   UNL     1      -1.798   2.430   1.077  0.00  0.00    -0.245 OA
BRANCH  14  16
ATOM     16  O   UNL     1      -1.866   2.475  -1.144  0.00  0.00    -0.461 OA
BRANCH  16  18
ATOM     17  C   UNL     1      -3.626   3.514  -2.467  0.00  0.00    +0.048 C 
ATOM     18  C   UNL     1      -3.115   3.210  -1.058  0.00  0.00    +0.229 C 
ENDBRANCH  16  18
ENDBRANCH  14  16
ENDBRANCH   5  14
ENDBRANCH   1   9
BRANCH   2  19
ATOM     19  C   UNL     1      -2.025  -3.163   0.004  0.00  0.00    +0.091 C 
ATOM     20  C   UNL     1      -2.863  -2.936   1.264  0.00  0.00    +0.015 C 
ATOM     21  C   UNL     1      -4.067  -3.880   1.254  0.00  0.00    +0.018 C 
ATOM     22  C   UNL     1      -3.574  -5.331   1.256  0.00  0.00    +0.109 C 
ATOM     23  N   UNL     1      -2.651  -5.518   0.128  0.00  0.00    -0.176 NA
ATOM     24  C   UNL     1      -1.508  -4.605  -0.009  0.00  0.00    +0.122 C 
BRANCH  23  25
ATOM     25  S   UNL     1      -2.895  -6.735  -0.969  0.00  0.00    +0.064 S 
ATOM     26  O   UNL     1      -4.280  -7.052  -0.922  0.00  0.00    -0.153 OA
ATOM     27  O   UNL     1      -2.245  -6.338  -2.168  0.00  0.00    -0.153 OA
BRANCH  25  28
ATOM     28  C   UNL     1      -2.034  -8.152  -0.374  0.00  0.00    +0.146 A 
ATOM     29  C   UNL     1      -2.615  -9.357   0.035  0.00  0.00    +0.163 A 
ATOM     30  N   UNL     1      -1.657 -10.167   0.408  0.00  0.00    -0.178 NA
ATOM     31  N   UNL     1      -0.435  -9.502   0.249  0.00  0.00    -0.270 N 
ATOM     32  C   UNL     1      -0.693  -8.269  -0.238  0.00  0.00    +0.062 A 
ATOM     33  C   UNL     1       0.330  -7.212  -0.566  0.00  0.00    +0.067 C 
ATOM     34  C   UNL     1       0.890 -10.049   0.551  0.00  0.00    +0.172 C 
ENDBRANCH  25  28
ENDBRANCH  23  25
ENDBRANCH   2  19
TORSDOF 7
