REMARK  Name = ZINC13023107
REMARK  10 active torsions:
REMARK  status: ('A' for Active; 'I' for Inactive)
REMARK    1  A    between atoms: C_1  and  C_2
REMARK    2  A    between atoms: C_6  and  N_9
REMARK    3  A    between atoms: C_7  and  C_8
REMARK    4  A    between atoms: C_14  and  C_16
REMARK    5  A    between atoms: C_14  and  C_30
REMARK    6  A    between atoms: C_14  and  N_72
REMARK    7  A    between atoms: C_20  and  C_29
REMARK    8  A    between atoms: C_21  and  C_28
REMARK    9  A    between atoms: N_34  and  C_35
REMARK   10  A    between atoms: C_35  and  C_36
REMARK                            x       y       z     vdW  Elec       q    Type
REMARK                         _______ _______ _______ _____ _____    ______ ____
ROOT
ATOM      1  C   UNL     1      -4.986   3.843   0.046  0.00  0.00    +0.039 C 
ENDROOT
BRANCH   1   2
ATOM      2  C   UNL     1      -3.651   3.145   0.036  0.00  0.00    +0.011 A 
ATOM      3  C   UNL     1      -2.507   3.874   0.044  0.00  0.00    +0.017 A 
ATOM      4  C   UNL     1      -1.226   3.165   0.029  0.00  0.00    -0.001 A 
ATOM      5  C   UNL     1      -0.014   3.863   0.022  0.00  0.00    +0.013 A 
ATOM      6  C   UNL     1       1.165   3.172   0.007  0.00  0.00    -0.047 A 
ATOM      7  C   UNL     1       1.170   1.784   0.001  0.00  0.00    -0.046 A 
ATOM      8  C   UNL     1      -0.013   1.076   0.008  0.00  0.00    +0.030 A 
ATOM      9  C   UNL     1      -1.225   1.758   0.017  0.00  0.00    +0.049 A 
ATOM     10  N   UNL     1      -2.423   1.075   0.019  0.00  0.00    -0.322 N 
ATOM     11  H   UNL     1      -2.421   0.105   0.014  0.00  0.00    +0.169 HD
ATOM     12  C   UNL     1      -3.595   1.735   0.028  0.00  0.00    +0.251 A 
ATOM     13  O   UNL     1      -4.635   1.099   0.030  0.00  0.00    -0.268 OA
ATOM     14  C   UNL     1       2.482   1.043  -0.016  0.00  0.00    +0.044 C 
ATOM     15  C   UNL     1       2.471   3.924  -0.001  0.00  0.00    +0.044 C 
ENDBRANCH   1   2
BRANCH   1  21
ATOM     16  N   UNL     1      -7.237   3.658  -3.524  0.00  0.00    -0.333 N 
ATOM     17  C   UNL     1      -7.945   3.458  -2.252  0.00  0.00    +0.086 C 
ATOM     18  C   UNL     1      -7.107   4.033  -1.108  0.00  0.00    -0.058 C 
ATOM     19  C   UNL     1      -5.086   3.572  -2.358  0.00  0.00    -0.058 C 
ATOM     20  C   UNL     1      -5.924   2.998  -3.502  0.00  0.00    +0.086 C 
ATOM     21  N   UNL     1      -5.799   3.344  -1.084  0.00  0.00    +0.391 N 
ATOM     22  H   UNL     1      -5.954   2.337  -0.964  0.00  0.00    -0.080 HD
BRANCH  16  28
ATOM     23  C   UNL     1      -9.541   4.606  -7.760  0.00  0.00    +0.044 C 
ATOM     24  C   UNL     1      -9.137   3.648  -6.669  0.00  0.00    -0.046 A 
ATOM     25  C   UNL     1      -9.527   2.323  -6.734  0.00  0.00    +0.004 A 
ATOM     26  C   UNL     1      -9.158   1.440  -5.736  0.00  0.00    +0.002 A 
ATOM     27  C   UNL     1      -8.398   1.880  -4.670  0.00  0.00    +0.023 A 
ATOM     28  C   UNL     1      -8.005   3.210  -4.601  0.00  0.00    +0.033 A 
ATOM     29  C   UNL     1      -8.382   4.096  -5.603  0.00  0.00    -0.027 A 
ATOM     30  C   UNL     1      -7.963   5.541  -5.530  0.00  0.00    +0.046 C 
ENDBRANCH  16  28
ENDBRANCH   1  21
BRANCH   1  31
ATOM     31  C   UNL     1      -5.703   3.537   1.336  0.00  0.00    +0.143 A 
ATOM     32  N   UNL     1      -6.298   2.414   1.653  0.00  0.00    -0.115 NA
ATOM     33  N   UNL     1      -6.789   2.543   2.837  0.00  0.00    -0.023 NA
ATOM     34  N   UNL     1      -6.529   3.724   3.281  0.00  0.00    -0.044 NA
ATOM     35  N   UNL     1      -5.860   4.367   2.385  0.00  0.00    -0.223 N 
BRANCH  35  36
ATOM     36  C   UNL     1      -5.365   5.742   2.488  0.00  0.00    +0.221 C 
BRANCH  36  37
ATOM     37  C   UNL     1      -6.409   6.693   1.962  0.00  0.00    +0.126 A 
ATOM     38  C   UNL     1      -7.388   7.265   2.685  0.00  0.00    +0.046 A 
ATOM     39  C   UNL     1      -8.130   8.079   1.799  0.00  0.00    +0.041 A 
ATOM     40  C   UNL     1      -7.565   7.949   0.585  0.00  0.00    +0.195 A 
ATOM     41  O   UNL     1      -6.523   7.108   0.690  0.00  0.00    -0.466 OA
ENDBRANCH  36  37
ENDBRANCH  35  36
ENDBRANCH   1  31
TORSDOF 6
