REMARK  Name = ZINC34829836
REMARK  10 active torsions:
REMARK  status: ('A' for Active; 'I' for Inactive)
REMARK    1  A    between atoms: C_1  and  C_2
REMARK    2  A    between atoms: C_7  and  C_8
REMARK    3  A    between atoms: N_17  and  C_18
REMARK    4  A    between atoms: C_18  and  C_19
REMARK    5  A    between atoms: C_25  and  C_28
REMARK    6  A    between atoms: C_29  and  C_31
REMARK    7  A    between atoms: C_33  and  O_39
REMARK    8  A    between atoms: C_35  and  O_37
REMARK    9  A    between atoms: O_37  and  C_38
REMARK   10  A    between atoms: O_39  and  C_40
REMARK                            x       y       z     vdW  Elec       q    Type
REMARK                         _______ _______ _______ _____ _____    ______ ____
ROOT
ATOM      1  C   UNL     1      -1.671  -3.359   3.807  0.00  0.00    +0.199 C 
ATOM      2  O   UNL     1      -0.731  -3.884   4.365  0.00  0.00    -0.278 OA
ATOM      3  N   UNL     1      -2.931  -3.708   4.137  0.00  0.00    -0.300 N 
ATOM      4  C   UNL     1      -4.080  -3.085   3.465  0.00  0.00    +0.126 C 
ATOM      5  C   UNL     1      -5.000  -2.478   4.531  0.00  0.00    +0.127 C 
ATOM      6  N   UNL     1      -5.249  -3.489   5.568  0.00  0.00    -0.292 N 
ATOM      7  C   UNL     1      -4.100  -4.112   6.240  0.00  0.00    +0.091 C 
ATOM      8  C   UNL     1      -3.179  -4.723   5.170  0.00  0.00    +0.130 C 
ATOM      9  C   UNL     1      -3.337  -3.054   7.040  0.00  0.00    +0.029 C 
ATOM     10  C   UNL     1      -6.508  -3.838   5.898  0.00  0.00    +0.247 C 
ATOM     11  O   UNL     1      -7.448  -3.387   5.272  0.00  0.00    -0.270 OA
ENDROOT
BRANCH  10  12
ATOM     12  C   UNL     1      -6.747  -4.770   7.021  0.00  0.00    +0.044 A 
ATOM     13  C   UNL     1      -6.003  -4.656   8.195  0.00  0.00    +0.059 A 
ATOM     14  C   UNL     1      -6.230  -5.531   9.245  0.00  0.00    +0.124 A 
ATOM     15  C   UNL     1      -7.196  -6.520   9.129  0.00  0.00    +0.091 A 
ATOM     16  C   UNL     1      -7.939  -6.637   7.963  0.00  0.00    +0.124 A 
ATOM     17  C   UNL     1      -7.722  -5.763   6.911  0.00  0.00    +0.059 A 
BRANCH  16  18
ATOM     18  O   UNL     1      -8.884  -7.608   7.855  0.00  0.00    -0.495 OA
ATOM     19  C   UNL     1      -9.059  -8.471   8.980  0.00  0.00    +0.277 C 
ENDBRANCH  16  18
BRANCH  14  20
ATOM     20  O   UNL     1      -5.506  -5.420  10.389  0.00  0.00    -0.495 OA
ATOM     21  C   UNL     1      -5.792  -6.355  11.431  0.00  0.00    +0.277 C 
ENDBRANCH  14  20
ENDBRANCH  10  12
BRANCH   1  22
ATOM     22  C   UNL     1      -1.432  -2.316   2.746  0.00  0.00    +0.020 C 
BRANCH  22  31
ATOM     23  C   UNL     1       0.242  -1.190   1.458  0.00  0.00    -0.005 C 
ATOM     24  C   UNL     1       1.738  -0.907   1.351  0.00  0.00    -0.047 A 
ATOM     25  C   UNL     1       2.356  -0.404   0.210  0.00  0.00    +0.010 A 
ATOM     26  C   UNL     1       3.692  -0.186   0.204  0.00  0.00    +0.045 A 
ATOM     27  S   UNL     1       4.156  -0.693   1.854  0.00  0.00    -0.101 S 
ATOM     28  C   UNL     1       2.544  -1.152   2.422  0.00  0.00    -0.010 A 
ATOM     29  C   UNL     1       2.117  -1.685   3.751  0.00  0.00    +0.024 C 
ATOM     30  C   UNL     1       0.583  -1.584   3.819  0.00  0.00    -0.072 C 
ATOM     31  N   UNL     1       0.013  -2.116   2.573  0.00  0.00    +0.393 N 
ATOM     32  H   UNL     1       0.448  -3.003   2.364  0.00  0.00    -0.080 HD
BRANCH  23  39
ATOM     33  C   UNL     1      -0.569   0.492  -0.746  0.00  0.00    +0.044 C 
ATOM     34  C   UNL     1      -0.635  -1.008  -0.879  0.00  0.00    -0.049 A 
ATOM     35  C   UNL     1      -1.079  -1.579  -2.057  0.00  0.00    +0.003 A 
ATOM     36  C   UNL     1      -1.139  -2.954  -2.179  0.00  0.00    +0.000 A 
ATOM     37  C   UNL     1      -0.756  -3.759  -1.122  0.00  0.00    +0.000 A 
ATOM     38  C   UNL     1      -0.311  -3.188   0.056  0.00  0.00    +0.002 A 
ATOM     39  C   UNL     1      -0.247  -1.812   0.176  0.00  0.00    -0.054 A 
ENDBRANCH  23  39
ENDBRANCH  22  31
ENDBRANCH   1  22
TORSDOF 6
