REMARK  Name = ZINC12919869
REMARK  8 active torsions:
REMARK  status: ('A' for Active; 'I' for Inactive)
REMARK    1  A    between atoms: C_1  and  C_2
REMARK    2  A    between atoms: C_2  and  C_3
REMARK    3  A    between atoms: C_3  and  C_5
REMARK    4  A    between atoms: C_3  and  C_6
REMARK    5  A    between atoms: C_11  and  N_12
REMARK    6  A    between atoms: C_13  and  C_15
REMARK    7  A    between atoms: N_18  and  S_21
REMARK    8  A    between atoms: S_21  and  C_24
REMARK                            x       y       z     vdW  Elec       q    Type
REMARK                         _______ _______ _______ _____ _____    ______ ____
ROOT
ATOM      1  C   UNL     1       6.091  -0.649  -0.053  0.00  0.00    +0.078 C 
ATOM      2  C   UNL     1       6.204  -1.712   1.042  0.00  0.00    +0.030 C 
ATOM      3  C   UNL     1       7.535  -2.455   0.891  0.00  0.00    +0.110 C 
ATOM      4  N   UNL     1       8.628  -1.474   0.888  0.00  0.00    -0.177 NA
ATOM      5  C   UNL     1       8.572  -0.357  -0.066  0.00  0.00    +0.110 C 
ATOM      6  C   UNL     1       7.230   0.363   0.096  0.00  0.00    +0.030 C 
ENDROOT
BRANCH   1   8
ATOM      7  N   UNL     1       3.618  -0.634  -0.028  0.00  0.00    -0.285 N 
ATOM      8  C   UNL     1       4.769   0.062   0.071  0.00  0.00    +0.220 C 
ATOM      9  O   UNL     1       4.739   1.259   0.261  0.00  0.00    -0.275 OA
ATOM     10  H   UNL     1       3.641  -1.599  -0.122  0.00  0.00    +0.155 HD
BRANCH   7  16
ATOM     11  C   UNL     1       1.275  -0.524  -0.602  0.00  0.00    -0.023 A 
ATOM     12  C   UNL     1       0.064   0.140  -0.568  0.00  0.00    +0.006 A 
ATOM     13  C   UNL     1      -0.037   1.363   0.070  0.00  0.00    +0.000 A 
ATOM     14  C   UNL     1       1.072   1.924   0.676  0.00  0.00    +0.002 A 
ATOM     15  C   UNL     1       2.285   1.265   0.645  0.00  0.00    +0.023 A 
ATOM     16  C   UNL     1       2.390   0.037   0.005  0.00  0.00    +0.037 A 
BRANCH  11  17
ATOM     17  C   UNL     1       1.385  -1.857  -1.298  0.00  0.00    +0.017 C 
ATOM     18  C   UNL     1       0.529  -2.889  -0.560  0.00  0.00    +0.012 C 
BRANCH  17  20
ATOM     19  C   UNL     1       1.118  -3.040  -3.482  0.00  0.00    +0.004 C 
ATOM     20  C   UNL     1       0.891  -1.722  -2.739  0.00  0.00    +0.004 C 
ENDBRANCH  17  20
ENDBRANCH  11  17
ENDBRANCH   7  16
ENDBRANCH   1   8
BRANCH   4  21
ATOM     21  S   UNL     1       9.899  -1.622   1.940  0.00  0.00    +0.061 S 
ATOM     22  O   UNL     1       9.971  -2.995   2.298  0.00  0.00    -0.153 OA
ATOM     23  O   UNL     1      10.993  -0.929   1.355  0.00  0.00    -0.153 OA
BRANCH  21  24
ATOM     24  C   UNL     1       9.469  -0.741   3.404  0.00  0.00    +0.106 A 
ATOM     25  C   UNL     1       8.809  -1.388   4.432  0.00  0.00    +0.029 A 
ATOM     26  C   UNL     1       8.474  -0.696   5.579  0.00  0.00    +0.006 A 
ATOM     27  C   UNL     1       8.796   0.646   5.703  0.00  0.00    -0.044 A 
ATOM     28  C   UNL     1       9.455   1.292   4.675  0.00  0.00    -0.042 A 
ATOM     29  C   UNL     1       9.796   0.595   3.528  0.00  0.00    +0.032 A 
ATOM     30  C   UNL     1       9.692   2.740   5.050  0.00  0.00    +0.036 C 
ATOM     31  C   UNL     1       9.500   2.797   6.580  0.00  0.00    +0.009 C 
ATOM     32  C   UNL     1       8.544   1.614   6.839  0.00  0.00    +0.036 C 
ENDBRANCH  21  24
ENDBRANCH   4  21
TORSDOF 6
