REMARK  Name = ZINC12039681
REMARK  10 active torsions:
REMARK  status: ('A' for Active; 'I' for Inactive)
REMARK    1  A    between atoms: C_1  and  N_70
REMARK    2  A    between atoms: C_2  and  C_3
REMARK    3  A    between atoms: C_2  and  N_70
REMARK    4  A    between atoms: C_6  and  O_9
REMARK    5  A    between atoms: O_9  and  C_10
REMARK    6  A    between atoms: C_10  and  C_11
REMARK    7  A    between atoms: C_18  and  C_20
REMARK    8  A    between atoms: C_24  and  N_26
REMARK    9  A    between atoms: C_32  and  C_33
REMARK   10  A    between atoms: C_32  and  N_70
REMARK                            x       y       z     vdW  Elec       q    Type
REMARK                         _______ _______ _______ _____ _____    ______ ____
ROOT
ATOM      1  C   UNL     1       8.435   5.903   1.506  0.00  0.00    +0.044 C 
ATOM      2  C   UNL     1       8.085   7.392   1.542  0.00  0.00    +0.010 C 
ATOM      3  C   UNL     1       6.566   7.558   1.643  0.00  0.00    +0.019 C 
ATOM      4  C   UNL     1       5.906   6.935   0.403  0.00  0.00    +0.108 C 
ATOM      5  N   UNL     1       6.354   5.541   0.286  0.00  0.00    -0.297 N 
ATOM      6  C   UNL     1       7.796   5.261   0.271  0.00  0.00    +0.115 C 
ATOM      7  C   UNL     1       5.458   4.538   0.188  0.00  0.00    +0.247 C 
ATOM      8  O   UNL     1       5.836   3.383   0.198  0.00  0.00    -0.270 OA
ENDROOT
BRANCH   7   9
ATOM      9  C   UNL     1       4.016   4.843   0.069  0.00  0.00    +0.039 A 
ATOM     10  C   UNL     1       3.599   6.035  -0.525  0.00  0.00    +0.013 A 
ATOM     11  C   UNL     1       2.253   6.317  -0.635  0.00  0.00    +0.003 A 
ATOM     12  C   UNL     1       1.313   5.420  -0.164  0.00  0.00    +0.023 A 
ATOM     13  C   UNL     1       1.718   4.233   0.435  0.00  0.00    +0.039 A 
ATOM     14  C   UNL     1       3.068   3.940   0.550  0.00  0.00    +0.036 A 
BRANCH  13  15
ATOM     15  N   UNL     1       0.763   3.330   0.916  0.00  0.00    -0.254 N 
ATOM     16  C   UNL     1      -0.687   3.570   0.965  0.00  0.00    +0.134 C 
ATOM     17  C   UNL     1      -1.256   2.270   1.567  0.00  0.00    +0.125 C 
ATOM     18  N   UNL     1      -0.065   1.440   1.802  0.00  0.00    -0.297 N 
ATOM     19  C   UNL     1       1.024   2.111   1.405  0.00  0.00    +0.307 C 
ATOM     20  O   UNL     1       2.148   1.654   1.482  0.00  0.00    -0.252 OA
ATOM     21  H   UNL     1      -0.069   0.547   2.181  0.00  0.00    +0.150 HD
ENDBRANCH  13  15
ENDBRANCH   7   9
BRANCH   1  22
ATOM     22  C   UNL     1       9.955   5.738   1.438  0.00  0.00    +0.234 C 
BRANCH  22  23
ATOM     23  O   UNL     1      10.287   4.350   1.518  0.00  0.00    -0.492 OA
BRANCH  23  27
ATOM     24  C   UNL     1      14.293   3.373   1.378  0.00  0.00    -0.064 A 
ATOM     25  C   UNL     1      13.343   2.376   1.498  0.00  0.00    +0.005 A 
ATOM     26  C   UNL     1      12.001   2.700   1.545  0.00  0.00    +0.046 A 
ATOM     27  C   UNL     1      11.607   4.028   1.472  0.00  0.00    +0.121 A 
ATOM     28  C   UNL     1      12.562   5.027   1.346  0.00  0.00    +0.046 A 
ATOM     29  C   UNL     1      13.903   4.697   1.304  0.00  0.00    +0.005 A 
BRANCH  24  30
ATOM     30  C   UNL     1      15.756   3.016   1.326  0.00  0.00    -0.043 C 
BRANCH  30  32
ATOM     31  C   UNL     1      15.492   1.623  -0.637  0.00  0.00    -0.095 C 
ATOM     32  N   UNL     1      16.151   2.826  -0.085  0.00  0.00    +0.384 N 
ATOM     33  H   UNL     1      15.856   3.646  -0.628  0.00  0.00    -0.081 HD
BRANCH  32  34
ATOM     34  C   UNL     1      17.619   2.687  -0.185  0.00  0.00    -0.019 C 
BRANCH  34  35
ATOM     35  C   UNL     1      18.013   2.716  -1.639  0.00  0.00    +0.067 A 
ATOM     36  C   UNL     1      18.422   3.847  -2.383  0.00  0.00    +0.065 A 
ATOM     37  C   UNL     1      18.661   3.354  -3.622  0.00  0.00    +0.230 A 
ATOM     38  O   UNL     1      18.401   2.040  -3.565  0.00  0.00    -0.363 OA
ATOM     39  N   UNL     1      18.050   1.705  -2.458  0.00  0.00    -0.085 NA
ENDBRANCH  34  35
ENDBRANCH  32  34
ENDBRANCH  30  32
ENDBRANCH  24  30
ENDBRANCH  23  27
ENDBRANCH  22  23
ENDBRANCH   1  22
TORSDOF 9
