REMARK  Name = ZINC64958086
REMARK  9 active torsions:
REMARK  status: ('A' for Active; 'I' for Inactive)
REMARK    1  A    between atoms: C_1  and  C_2
REMARK    2  A    between atoms: C_2  and  O_3
REMARK    3  A    between atoms: O_3  and  C_4
REMARK    4  A    between atoms: C_14  and  C_16
REMARK    5  A    between atoms: N_21  and  S_23
REMARK    6  A    between atoms: S_23  and  C_26
REMARK    7  A    between atoms: N_28  and  C_31
REMARK    8  A    between atoms: C_31  and  C_32
REMARK    9  A    between atoms: C_31  and  C_33
REMARK                            x       y       z     vdW  Elec       q    Type
REMARK                         _______ _______ _______ _____ _____    ______ ____
ROOT
ATOM      1  C   UNL     1      -3.422 -10.161  -0.025  0.00  0.00    +0.091 C 
ATOM      2  C   UNL     1      -4.264 -10.412   1.228  0.00  0.00    +0.015 C 
ATOM      3  C   UNL     1      -4.798 -11.846   1.208  0.00  0.00    +0.018 C 
ATOM      4  C   UNL     1      -3.619 -12.825   1.214  0.00  0.00    +0.109 C 
ATOM      5  N   UNL     1      -2.727 -12.497   0.094  0.00  0.00    -0.174 NA
ATOM      6  C   UNL     1      -2.228 -11.121  -0.034  0.00  0.00    +0.122 C 
ENDROOT
BRANCH   1  17
ATOM      7  C   UNL     1      -1.498  -1.849   0.006  0.00  0.00    +0.122 A 
ATOM      8  C   UNL     1      -0.389  -2.689  -0.003  0.00  0.00    +0.048 A 
ATOM      9  C   UNL     1      -0.525  -4.053  -0.009  0.00  0.00    +0.032 A 
ATOM     10  C   UNL     1      -1.806  -4.653  -0.006  0.00  0.00    +0.081 A 
ATOM     11  C   UNL     1      -2.910  -3.771   0.003  0.00  0.00    +0.044 A 
ATOM     12  C   UNL     1      -2.769  -2.405   0.016  0.00  0.00    +0.063 A 
ATOM     13  S   UNL     1      -4.289  -4.891   0.004  0.00  0.00    -0.052 S 
ATOM     14  C   UNL     1      -3.345  -6.409  -0.007  0.00  0.00    +0.165 A 
ATOM     15  N   UNL     1      -2.109  -5.970  -0.011  0.00  0.00    -0.225 NA
ATOM     16  N   UNL     1      -3.803  -7.717  -0.012  0.00  0.00    -0.264 N 
ATOM     17  C   UNL     1      -2.924  -8.739  -0.021  0.00  0.00    +0.223 C 
ATOM     18  O   UNL     1      -1.733  -8.513  -0.025  0.00  0.00    -0.275 OA
ATOM     19  H   UNL     1      -4.756  -7.897  -0.008  0.00  0.00    +0.157 HD
BRANCH   7  20
ATOM     20  O   UNL     1      -1.339  -0.499   0.012  0.00  0.00    -0.492 OA
BRANCH  20  22
ATOM     21  C   UNL     1      -0.019   1.526   0.010  0.00  0.00    +0.048 C 
ATOM     22  C   UNL     1       0.002  -0.004   0.002  0.00  0.00    +0.225 C 
ENDBRANCH  20  22
ENDBRANCH   7  20
ENDBRANCH   1  17
BRANCH   5  23
ATOM     23  S   UNL     1      -2.290 -13.657  -1.005  0.00  0.00    +0.080 S 
ATOM     24  O   UNL     1      -1.062 -13.232  -1.578  0.00  0.00    -0.151 OA
ATOM     25  O   UNL     1      -2.432 -14.910  -0.350  0.00  0.00    -0.151 OA
BRANCH  23  26
ATOM     26  C   UNL     1      -3.487 -13.627  -2.297  0.00  0.00    +0.211 A 
ATOM     27  C   UNL     1      -4.627 -14.343  -2.338  0.00  0.00    +0.136 A 
ATOM     28  N   UNL     1      -5.257 -14.019  -3.509  0.00  0.00    -0.332 N 
ATOM     29  C   UNL     1      -4.480 -13.115  -4.144  0.00  0.00    +0.201 A 
ATOM     30  N   UNL     1      -3.426 -12.881  -3.411  0.00  0.00    -0.216 NA
BRANCH  28  31
ATOM     31  C   UNL     1      -6.535 -14.553  -3.985  0.00  0.00    +0.082 C 
ATOM     32  C   UNL     1      -7.532 -13.406  -4.163  0.00  0.00    +0.030 C 
ATOM     33  C   UNL     1      -6.325 -15.260  -5.326  0.00  0.00    +0.030 C 
ENDBRANCH  28  31
ENDBRANCH  23  26
ENDBRANCH   5  23
TORSDOF 6
