REMARK  Name = ZINC15103906
REMARK  10 active torsions:
REMARK  status: ('A' for Active; 'I' for Inactive)
REMARK    1  A    between atoms: C_1  and  N_66
REMARK    2  A    between atoms: C_2  and  C_3
REMARK    3  A    between atoms: C_2  and  N_66
REMARK    4  A    between atoms: C_8  and  N_9
REMARK    5  A    between atoms: C_15  and  C_16
REMARK    6  A    between atoms: C_15  and  N_66
REMARK    7  A    between atoms: N_18  and  C_19
REMARK    8  A    between atoms: C_24  and  C_25
REMARK    9  A    between atoms: N_27  and  C_28
REMARK   10  A    between atoms: C_28  and  C_29
REMARK                            x       y       z     vdW  Elec       q    Type
REMARK                         _______ _______ _______ _____ _____    ______ ____
ROOT
ATOM      1  C   UNL     1      -1.266  -2.131   0.354  0.00  0.00    +0.201 C 
ATOM      2  O   UNL     1      -0.258  -2.748   0.624  0.00  0.00    -0.278 OA
ATOM      3  N   UNL     1      -1.229  -0.787   0.258  0.00  0.00    -0.286 N 
ATOM      4  H   UNL     1      -2.048  -0.288   0.116  0.00  0.00    +0.155 HD
ENDROOT
BRANCH   3   5
ATOM      5  C   UNL     1      -0.013  -0.116   0.363  0.00  0.00    +0.045 A 
ATOM      6  C   UNL     1       1.148  -0.692  -0.134  0.00  0.00    +0.024 A 
ATOM      7  C   UNL     1       2.351  -0.024  -0.030  0.00  0.00    +0.002 A 
ATOM      8  C   UNL     1       2.411   1.223   0.570  0.00  0.00    +0.001 A 
ATOM      9  C   UNL     1       1.269   1.811   1.069  0.00  0.00    +0.015 A 
ATOM     10  C   UNL     1       0.044   1.147   0.971  0.00  0.00    +0.058 A 
BRANCH  10  11
ATOM     11  C   UNL     1      -1.183   1.774   1.497  0.00  0.00    +0.246 C 
ATOM     12  O   UNL     1      -2.261   1.235   1.330  0.00  0.00    -0.270 OA
ATOM     13  N   UNL     1      -1.111   2.942   2.164  0.00  0.00    -0.304 N 
ATOM     14  H   UNL     1      -0.252   3.372   2.298  0.00  0.00    +0.149 HD
BRANCH  13  15
ATOM     15  C   UNL     1      -2.330   3.564   2.687  0.00  0.00    +0.179 C 
BRANCH  15  16
ATOM     16  C   UNL     1      -1.977   4.852   3.385  0.00  0.00    +0.122 A 
ATOM     17  C   UNL     1      -1.918   6.068   2.812  0.00  0.00    +0.046 A 
ATOM     18  C   UNL     1      -1.552   6.982   3.826  0.00  0.00    +0.041 A 
ATOM     19  C   UNL     1      -1.409   6.271   4.959  0.00  0.00    +0.195 A 
ATOM     20  O   UNL     1      -1.673   4.982   4.687  0.00  0.00    -0.466 OA
ENDBRANCH  15  16
ENDBRANCH  13  15
ENDBRANCH  10  11
ENDBRANCH   3   5
BRANCH   1  21
ATOM     21  C   UNL     1      -2.562  -2.867   0.125  0.00  0.00    +0.019 C 
BRANCH  21  23
ATOM     22  C   UNL     1      -1.992  -4.638   1.675  0.00  0.00    -0.095 C 
ATOM     23  N   UNL     1      -2.318  -4.317   0.269  0.00  0.00    +0.386 N 
ATOM     24  H   UNL     1      -1.524  -4.583  -0.325  0.00  0.00    -0.081 HD
BRANCH  23  25
ATOM     25  C   UNL     1      -3.513  -5.075  -0.158  0.00  0.00    -0.041 C 
BRANCH  25  26
ATOM     26  C   UNL     1      -3.190  -6.547  -0.135  0.00  0.00    -0.043 A 
ATOM     27  C   UNL     1      -3.697  -7.351   0.867  0.00  0.00    +0.003 A 
ATOM     28  C   UNL     1      -3.406  -8.703   0.885  0.00  0.00    +0.000 A 
ATOM     29  C   UNL     1      -2.596  -9.252  -0.092  0.00  0.00    +0.002 A 
ATOM     30  C   UNL     1      -2.081  -8.453  -1.094  0.00  0.00    +0.023 A 
ATOM     31  C   UNL     1      -2.377  -7.096  -1.119  0.00  0.00    +0.031 A 
BRANCH  31  32
ATOM     32  N   UNL     1      -1.857  -6.285  -2.130  0.00  0.00    -0.330 N 
ATOM     33  C   UNL     1      -2.460  -6.611  -3.428  0.00  0.00    +0.105 C 
ATOM     34  C   UNL     1      -1.978  -5.611  -4.482  0.00  0.00    +0.019 C 
ATOM     35  C   UNL     1      -0.451  -5.674  -4.577  0.00  0.00    +0.003 C 
ATOM     36  C   UNL     1       0.151  -5.378  -3.201  0.00  0.00    +0.019 C 
ATOM     37  C   UNL     1      -0.393  -6.385  -2.184  0.00  0.00    +0.105 C 
ENDBRANCH  31  32
ENDBRANCH  25  26
ENDBRANCH  23  25
ENDBRANCH  21  23
ENDBRANCH   1  21
TORSDOF 9
