REMARK  Name = ZINC09056419
REMARK  6 active torsions:
REMARK  status: ('A' for Active; 'I' for Inactive)
REMARK    1  A    between atoms: C_4  and  N_7
REMARK    2  A    between atoms: C_16  and  C_18
REMARK    3  A    between atoms: N_20  and  C_21
REMARK    4  A    between atoms: C_21  and  C_22
REMARK    5  A    between atoms: C_22  and  C_24
REMARK    6  A    between atoms: C_22  and  N_60
REMARK                            x       y       z     vdW  Elec       q    Type
REMARK                         _______ _______ _______ _____ _____    ______ ____
ROOT
ATOM      1  C   UNL     1      -1.218  -2.631   2.429  0.00  0.00    +0.265 C 
ATOM      2  O   UNL     1      -1.251  -2.032   3.487  0.00  0.00    -0.268 OA
ATOM      3  N   UNL     1      -1.321  -1.954   1.268  0.00  0.00    -0.311 N 
ATOM      4  H   UNL     1      -1.294  -2.432   0.424  0.00  0.00    +0.149 HD
ENDROOT
BRANCH   1  14
ATOM      5  N   UNL     1      -0.895  -6.021   1.184  0.00  0.00    -0.196 N 
ATOM      6  C   UNL     1      -0.779  -6.841   2.249  0.00  0.00    +0.280 A 
ATOM      7  O   UNL     1      -0.657  -8.043   2.099  0.00  0.00    -0.265 OA
ATOM      8  C   UNL     1      -0.804  -6.250   3.593  0.00  0.00    +0.051 A 
ATOM      9  C   UNL     1      -0.692  -7.009   4.754  0.00  0.00    +0.014 A 
ATOM     10  C   UNL     1      -0.725  -6.378   5.980  0.00  0.00    +0.001 A 
ATOM     11  C   UNL     1      -0.868  -4.999   6.064  0.00  0.00    +0.001 A 
ATOM     12  C   UNL     1      -0.980  -4.230   4.926  0.00  0.00    +0.011 A 
ATOM     13  C   UNL     1      -0.950  -4.846   3.679  0.00  0.00    +0.020 A 
ATOM     14  C   UNL     1      -1.063  -4.099   2.417  0.00  0.00    +0.154 A 
ATOM     15  N   UNL     1      -1.031  -4.753   1.281  0.00  0.00    -0.158 NA
BRANCH   5  19
ATOM     16  C   UNL     1      -0.823  -7.712  -2.623  0.00  0.00    +0.000 A 
ATOM     17  C   UNL     1      -1.817  -6.811  -2.287  0.00  0.00    +0.002 A 
ATOM     18  C   UNL     1      -1.844  -6.249  -1.026  0.00  0.00    +0.028 A 
ATOM     19  C   UNL     1      -0.871  -6.589  -0.095  0.00  0.00    +0.069 A 
ATOM     20  C   UNL     1       0.130  -7.490  -0.437  0.00  0.00    +0.028 A 
ATOM     21  C   UNL     1       0.147  -8.053  -1.698  0.00  0.00    +0.002 A 
ENDBRANCH   5  19
ENDBRANCH   1  14
BRANCH   3  22
ATOM     22  C   UNL     1      -1.474  -0.497   1.281  0.00  0.00    +0.094 C 
BRANCH  22  23
ATOM     23  C   UNL     1      -1.659   0.009  -0.152  0.00  0.00    -0.020 C 
BRANCH  23  24
ATOM     24  C   UNL     1      -0.444  -0.346  -0.970  0.00  0.00    -0.059 A 
ATOM     25  C   UNL     1       0.697   0.431  -0.885  0.00  0.00    +0.005 A 
ATOM     26  C   UNL     1       1.814   0.103  -1.630  0.00  0.00    +0.038 A 
ATOM     27  C   UNL     1       1.786  -0.996  -2.471  0.00  0.00    +0.123 A 
ATOM     28  C   UNL     1       0.641  -1.770  -2.560  0.00  0.00    +0.038 A 
ATOM     29  C   UNL     1      -0.472  -1.444  -1.809  0.00  0.00    +0.005 A 
ATOM     30  F   UNL     1       2.875  -1.313  -3.205  0.00  0.00    -0.205 F 
ENDBRANCH  23  24
BRANCH  23  36
ATOM     31  C   UNL     1      -2.976   1.855   0.700  0.00  0.00    -0.049 C 
ATOM     32  C   UNL     1      -3.082   3.381   0.734  0.00  0.00    +0.141 C 
ATOM     33  O   UNL     1      -3.197   3.877  -0.603  0.00  0.00    -0.383 OA
ATOM     34  C   UNL     1      -2.098   3.519  -1.445  0.00  0.00    +0.141 C 
ATOM     35  C   UNL     1      -1.982   1.993  -1.502  0.00  0.00    -0.049 C 
ATOM     36  N   UNL     1      -1.809   1.480  -0.127  0.00  0.00    +0.388 N 
ATOM     37  H   UNL     1      -0.963   1.895   0.281  0.00  0.00    -0.081 HD
ENDBRANCH  23  36
ENDBRANCH  22  23
ENDBRANCH   3  22
TORSDOF 6
