REMARK  Name = ZINC48287965
REMARK  13 active torsions:
REMARK  status: ('A' for Active; 'I' for Inactive)
REMARK    1  A    between atoms: C_1  and  C_2
REMARK    2  A    between atoms: C_5  and  N_8
REMARK    3  A    between atoms: N_8  and  S_9
REMARK    4  A    between atoms: S_9  and  C_12
REMARK    5  A    between atoms: C_15  and  N_21
REMARK    6  A    between atoms: C_16  and  N_18
REMARK    7  A    between atoms: N_21  and  C_22
REMARK    8  A    between atoms: C_22  and  C_23
REMARK    9  A    between atoms: N_26  and  C_29
REMARK   10  A    between atoms: C_29  and  C_30
REMARK   11  A    between atoms: C_30  and  N_31
REMARK   12  A    between atoms: N_31  and  C_32
REMARK   13  A    between atoms: N_31  and  C_33
REMARK                            x       y       z     vdW  Elec       q    Type
REMARK                         _______ _______ _______ _____ _____    ______ ____
ROOT
ATOM      1  C   UNL     1       3.143  -4.567   2.311  0.00  0.00    +0.108 A 
ATOM      2  C   UNL     1       3.621  -3.342   2.741  0.00  0.00    +0.030 A 
ATOM      3  C   UNL     1       3.470  -2.965   4.061  0.00  0.00    +0.027 A 
ATOM      4  C   UNL     1       2.837  -3.816   4.957  0.00  0.00    +0.058 A 
ATOM      5  C   UNL     1       2.358  -5.045   4.522  0.00  0.00    +0.149 A 
ATOM      6  C   UNL     1       2.507  -5.415   3.200  0.00  0.00    +0.063 A 
ENDROOT
BRANCH   1   7
ATOM      7  S   UNL     1       3.337  -5.044   0.626  0.00  0.00    +0.059 S 
ATOM      8  O   UNL     1       3.284  -6.464   0.598  0.00  0.00    -0.153 OA
ATOM      9  O   UNL     1       4.446  -4.313   0.122  0.00  0.00    -0.153 OA
BRANCH   7  10
ATOM     10  N   UNL     1       2.003  -4.504  -0.193  0.00  0.00    -0.187 NA
ATOM     11  H   UNL     1       1.386  -5.140  -0.588  0.00  0.00    +0.148 HD
BRANCH  10  16
ATOM     12  C   UNL     1      -0.349   0.680  -0.837  0.00  0.00    +0.007 C 
ATOM     13  C   UNL     1      -0.089  -0.822  -0.704  0.00  0.00    -0.014 C 
ATOM     14  C   UNL     1       0.861  -1.275  -1.815  0.00  0.00    +0.005 C 
ATOM     15  C   UNL     1       1.121  -2.777  -1.682  0.00  0.00    +0.020 C 
ATOM     16  C   UNL     1       1.754  -3.066  -0.320  0.00  0.00    +0.077 C 
ATOM     17  C   UNL     1       0.804  -2.613   0.791  0.00  0.00    +0.020 C 
ATOM     18  C   UNL     1       0.544  -1.111   0.658  0.00  0.00    +0.005 C 
ENDBRANCH  10  16
ENDBRANCH   7  10
ENDBRANCH   1   7
BRANCH   5  19
ATOM     19  N   UNL     1       1.683  -5.956   5.474  0.00  0.00    +0.058 N 
ATOM     20  O   UNL     1       2.082  -6.045   6.612  0.00  0.00    -0.126 OA
ATOM     21  O   UNL     1       0.733  -6.611   5.114  0.00  0.00    -0.126 OA
ENDBRANCH   5  19
BRANCH   4  22
ATOM     22  N   UNL     1       2.683  -3.438   6.293  0.00  0.00    -0.342 N 
ATOM     23  H   UNL     1       2.167  -3.993   6.898  0.00  0.00    +0.146 HD
BRANCH  22  24
ATOM     24  C   UNL     1       3.300  -2.202   6.779  0.00  0.00    +0.105 C 
BRANCH  24  25
ATOM     25  C   UNL     1       2.981  -2.023   8.265  0.00  0.00    +0.003 C 
ATOM     26  C   UNL     1       1.475  -1.809   8.443  0.00  0.00    -0.014 C 
ATOM     27  C   UNL     1       1.172  -1.552   9.920  0.00  0.00    -0.078 C 
ATOM     28  N   UNL     1       1.894  -0.355  10.370  0.00  0.00    +0.381 N 
ATOM     29  C   UNL     1       3.341  -0.580  10.270  0.00  0.00    -0.078 C 
ATOM     30  C   UNL     1       3.727  -0.799   8.806  0.00  0.00    -0.014 C 
ATOM     31  H   UNL     1       1.635   0.429   9.791  0.00  0.00    -0.082 HD
BRANCH  28  32
ATOM     32  C   UNL     1       1.540  -0.068  11.766  0.00  0.00    -0.063 C 
BRANCH  32  33
ATOM     33  C   UNL     1       2.193   1.247  12.197  0.00  0.00    +0.065 C 
BRANCH  33  34
ATOM     34  N   UNL     1       1.839   1.535  13.594  0.00  0.00    -0.310 NA
ATOM     35  C   UNL     1       2.425   0.539  14.501  0.00  0.00    +0.104 C 
ATOM     36  C   UNL     1       2.246   2.895  13.971  0.00  0.00    +0.104 C 
ENDBRANCH  33  34
ENDBRANCH  32  33
ENDBRANCH  28  32
ENDBRANCH  24  25
ENDBRANCH  22  24
ENDBRANCH   4  22
TORSDOF 10
