REMARK  Name = ZINC20762021
REMARK  13 active torsions:
REMARK  status: ('A' for Active; 'I' for Inactive)
REMARK    1  A    between atoms: C_1  and  O_2
REMARK    2  A    between atoms: O_2  and  C_3
REMARK    3  A    between atoms: C_5  and  C_11
REMARK    4  A    between atoms: C_7  and  O_9
REMARK    5  A    between atoms: O_9  and  C_10
REMARK    6  A    between atoms: N_24  and  C_25
REMARK    7  A    between atoms: C_25  and  C_27
REMARK    8  A    between atoms: C_25  and  C_31
REMARK    9  A    between atoms: C_27  and  C_28
REMARK   10  A    between atoms: C_28  and  S_29
REMARK   11  A    between atoms: S_29  and  C_30
REMARK   12  A    between atoms: C_31  and  O_33
REMARK   13  A    between atoms: O_33  and  C_34
REMARK                            x       y       z     vdW  Elec       q    Type
REMARK                         _______ _______ _______ _____ _____    ______ ____
ROOT
ATOM      1  C   UNL     1       1.384  -4.131   2.206  0.00  0.00    +0.156 C 
ATOM      2  C   UNL     1       2.699  -4.610   1.638  0.00  0.00    +0.062 A 
ATOM      3  C   UNL     1       3.697  -5.125   2.389  0.00  0.00    +0.040 A 
ATOM      4  N   UNL     1       4.713  -5.436   1.538  0.00  0.00    -0.349 N 
ATOM      5  H   UNL     1       5.570  -5.823   1.779  0.00  0.00    +0.166 HD
ATOM      6  C   UNL     1       4.303  -5.105   0.292  0.00  0.00    +0.171 A 
ATOM      7  N   UNL     1       3.095  -4.611   0.364  0.00  0.00    -0.348 N 
ATOM      8  C   UNL     1       3.644  -5.305   3.883  0.00  0.00    +0.074 C 
ATOM      9  C   UNL     1       2.516  -4.432   4.448  0.00  0.00    +0.116 C 
ATOM     10  N   UNL     1       1.319  -4.587   3.607  0.00  0.00    -0.273 N 
ATOM     11  C   UNL     1       0.191  -5.133   4.103  0.00  0.00    +0.304 C 
ATOM     12  O   UNL     1       0.122  -5.419   5.283  0.00  0.00    -0.253 OA
ATOM     13  N   UNL     1      -0.861  -5.361   3.292  0.00  0.00    -0.286 N 
ATOM     14  H   UNL     1      -0.782  -5.201   2.338  0.00  0.00    +0.151 HD
ATOM     15  H   UNL     1       2.570  -4.296  -0.389  0.00  0.00    +0.167 HD
ENDROOT
BRANCH   1  18
ATOM     16  C   UNL     1       0.192  -0.618   1.482  0.00  0.00    +0.124 A 
ATOM     17  C   UNL     1       0.254  -2.004   1.532  0.00  0.00    +0.051 A 
ATOM     18  C   UNL     1       1.319  -2.627   2.153  0.00  0.00    -0.014 A 
ATOM     19  C   UNL     1       2.325  -1.872   2.726  0.00  0.00    +0.051 A 
ATOM     20  C   UNL     1       2.268  -0.487   2.678  0.00  0.00    +0.124 A 
ATOM     21  C   UNL     1       1.203   0.141   2.050  0.00  0.00    +0.091 A 
BRANCH  16  23
ATOM     22  C   UNL     1      -0.852   1.423   0.852  0.00  0.00    +0.277 C 
ATOM     23  O   UNL     1      -0.857  -0.006   0.871  0.00  0.00    -0.495 OA
ENDBRANCH  16  23
BRANCH  20  24
ATOM     24  O   UNL     1       3.258   0.255   3.241  0.00  0.00    -0.495 OA
ATOM     25  C   UNL     1       3.134   1.676   3.154  0.00  0.00    +0.277 C 
ENDBRANCH  20  24
ENDBRANCH   1  18
BRANCH  13  26
ATOM     26  C   UNL     1      -2.124  -5.851   3.850  0.00  0.00    +0.184 C 
BRANCH  26  27
ATOM     27  C   UNL     1      -2.073  -7.352   3.967  0.00  0.00    +0.327 C 
ATOM     28  O   UNL     1      -1.083  -7.952   3.619  0.00  0.00    -0.249 OA
BRANCH  27  29
ATOM     29  O   UNL     1      -3.127  -8.024   4.457  0.00  0.00    -0.467 OA
ATOM     30  C   UNL     1      -3.009  -9.445   4.539  0.00  0.00    +0.280 C 
ENDBRANCH  27  29
ENDBRANCH  26  27
BRANCH  26  31
ATOM     31  C   UNL     1      -3.278  -5.450   2.929  0.00  0.00    +0.044 C 
BRANCH  31  32
ATOM     32  C   UNL     1      -3.409  -3.926   2.908  0.00  0.00    +0.071 C 
BRANCH  32  33
ATOM     33  S   UNL     1      -4.777  -3.450   1.816  0.00  0.00    -0.164 S 
ATOM     34  C   UNL     1      -4.798  -1.639   1.902  0.00  0.00    +0.084 C 
ENDBRANCH  32  33
ENDBRANCH  31  32
ENDBRANCH  26  31
ENDBRANCH  13  26
TORSDOF 9
