REMARK  Name = ZINC67014058
REMARK  3 active torsions:
REMARK  status: ('A' for Active; 'I' for Inactive)
REMARK    1  A    between atoms: C_3  and  C_6
REMARK    2  A    between atoms: C_6  and  N_7
REMARK    3  A    between atoms: C_14  and  C_17
REMARK                            x       y       z     vdW  Elec       q    Type
REMARK                         _______ _______ _______ _____ _____    ______ ____
ROOT
ATOM      1  N   UNL     1       4.101   0.611   1.347  0.00  0.00    -0.292 N 
ATOM      2  C   UNL     1       5.428   0.575   1.580  0.00  0.00    +0.303 C 
ATOM      3  O   UNL     1       6.205   0.465   0.652  0.00  0.00    -0.253 OA
ATOM      4  N   UNL     1       5.893   0.659   2.842  0.00  0.00    -0.281 N 
ATOM      5  C   UNL     1       4.971   0.671   3.989  0.00  0.00    +0.137 C 
ATOM      6  C   UNL     1       5.442  -0.382   4.999  0.00  0.00    +0.179 C 
ATOM      7  O   UNL     1       6.824  -0.168   5.293  0.00  0.00    -0.369 OA
ATOM      8  C   UNL     1       7.692  -0.315   4.166  0.00  0.00    +0.166 C 
ATOM      9  C   UNL     1       7.337   0.736   3.114  0.00  0.00    +0.145 C 
ATOM     10  H   UNL     1       3.478   0.625   2.090  0.00  0.00    +0.151 HD
ENDROOT
BRANCH   8  11
ATOM     11  C   UNL     1       9.122  -0.130   4.604  0.00  0.00    -0.015 A 
ATOM     12  C   UNL     1       9.426   0.774   5.604  0.00  0.00    +0.009 A 
ATOM     13  C   UNL     1      10.736   0.946   6.008  0.00  0.00    +0.041 A 
ATOM     14  C   UNL     1      11.746   0.212   5.410  0.00  0.00    +0.158 A 
ATOM     15  C   UNL     1      11.441  -0.695   4.407  0.00  0.00    +0.159 A 
ATOM     16  C   UNL     1      10.127  -0.868   4.008  0.00  0.00    +0.047 A 
ATOM     17  F   UNL     1      12.425  -1.412   3.822  0.00  0.00    -0.202 F 
ATOM     18  F   UNL     1      13.028   0.380   5.804  0.00  0.00    -0.202 F 
ENDBRANCH   8  11
BRANCH   1  19
ATOM     19  C   UNL     1       3.599   0.629  -0.030  0.00  0.00    +0.180 C 
BRANCH  19  22
ATOM     20  C   UNL     1      -0.013   1.358   0.007  0.00  0.00    +0.041 A 
ATOM     21  C   UNL     1       1.336   1.781  -0.004  0.00  0.00    +0.046 A 
ATOM     22  C   UNL     1       2.093   0.669  -0.015  0.00  0.00    +0.122 A 
ATOM     23  O   UNL     1       1.279  -0.399  -0.012  0.00  0.00    -0.466 OA
ATOM     24  C   UNL     1       0.000   0.013   0.002  0.00  0.00    +0.195 A 
ENDBRANCH  19  22
ENDBRANCH   1  19
TORSDOF 3
