REMARK  Name = ZINC36553493
REMARK  6 active torsions:
REMARK  status: ('A' for Active; 'I' for Inactive)
REMARK    1  A    between atoms: C_1  and  O_2
REMARK    2  A    between atoms: O_2  and  C_3
REMARK    3  A    between atoms: C_3  and  C_5
REMARK    4  A    between atoms: C_7  and  C_34
REMARK    5  A    between atoms: C_14  and  C_27
REMARK    6  A    between atoms: C_30  and  O_33
REMARK                            x       y       z     vdW  Elec       q    Type
REMARK                         _______ _______ _______ _____ _____    ______ ____
ROOT
ATOM      1  C   UNL     1       0.746  -2.278   0.998  0.00  0.00    +0.176 C 
ATOM      2  C   UNL     1       1.533  -2.547   2.285  0.00  0.00    +0.046 C 
ATOM      3  C   UNL     1       0.771  -1.926   3.458  0.00  0.00    +0.060 C 
ATOM      4  C   UNL     1      -0.616  -2.516   3.530  0.00  0.00    +0.016 C 
ATOM      5  C   UNL     1      -1.260  -2.920   2.412  0.00  0.00    +0.025 C 
ATOM      6  C   UNL     1      -0.647  -2.825   1.150  0.00  0.00    +0.176 C 
ATOM      7  O   UNL     1      -1.253  -3.192   0.162  0.00  0.00    -0.291 OA
ATOM      8  C   UNL     1      -2.657  -3.481   2.478  0.00  0.00    +0.086 C 
ATOM      9  C   UNL     1      -2.988  -3.962   3.861  0.00  0.00    -0.007 A 
ATOM     10  C   UNL     1      -4.048  -4.865   4.057  0.00  0.00    -0.012 A 
ATOM     11  C   UNL     1      -4.817  -5.327   2.974  0.00  0.00    +0.009 A 
ATOM     12  C   UNL     1      -5.832  -6.207   3.196  0.00  0.00    +0.001 A 
ATOM     13  C   UNL     1      -6.123  -6.657   4.483  0.00  0.00    +0.001 A 
ATOM     14  C   UNL     1      -5.402  -6.228   5.555  0.00  0.00    +0.008 A 
ATOM     15  C   UNL     1      -4.348  -5.318   5.366  0.00  0.00    -0.017 A 
ATOM     16  C   UNL     1      -3.588  -4.850   6.452  0.00  0.00    +0.010 A 
ATOM     17  C   UNL     1      -2.570  -3.975   6.239  0.00  0.00    +0.024 A 
ATOM     18  C   UNL     1      -2.262  -3.528   4.947  0.00  0.00    +0.036 A 
ATOM     19  N   UNL     1      -1.205  -2.637   4.755  0.00  0.00    -0.317 N 
ATOM     20  H   UNL     1      -0.886  -2.101   5.498  0.00  0.00    +0.152 HD
ENDROOT
BRANCH   2  21
ATOM     21  C   UNL     1       2.902  -1.926   2.179  0.00  0.00    -0.039 A 
ATOM     22  C   UNL     1       3.401  -1.173   3.226  0.00  0.00    +0.008 A 
ATOM     23  C   UNL     1       4.656  -0.602   3.135  0.00  0.00    +0.050 A 
ATOM     24  C   UNL     1       5.418  -0.783   1.992  0.00  0.00    +0.166 A 
ATOM     25  C   UNL     1       4.916  -1.541   0.937  0.00  0.00    +0.166 A 
ATOM     26  C   UNL     1       3.659  -2.115   1.038  0.00  0.00    +0.053 A 
ATOM     27  O   UNL     1       5.846  -1.570  -0.062  0.00  0.00    -0.453 OA
ATOM     28  C   UNL     1       6.751  -0.486   0.225  0.00  0.00    +0.466 C 
ATOM     29  O   UNL     1       6.663  -0.336   1.654  0.00  0.00    -0.453 OA
ENDBRANCH   2  21
BRANCH   8  30
ATOM     30  C   UNL     1      -3.638  -2.409   2.082  0.00  0.00    -0.035 A 
ATOM     31  C   UNL     1      -3.705  -1.232   2.806  0.00  0.00    +0.008 A 
ATOM     32  C   UNL     1      -4.604  -0.248   2.445  0.00  0.00    +0.046 A 
ATOM     33  C   UNL     1      -5.441  -0.440   1.355  0.00  0.00    +0.117 A 
ATOM     34  C   UNL     1      -5.372  -1.621   0.630  0.00  0.00    +0.046 A 
ATOM     35  C   UNL     1      -4.467  -2.600   0.992  0.00  0.00    +0.008 A 
BRANCH  33  36
ATOM     36  O   UNL     1      -6.327   0.526   0.998  0.00  0.00    -0.507 OA
ATOM     37  H   UNL     1      -5.976   1.167   0.365  0.00  0.00    +0.292 HD
ENDBRANCH  33  36
ENDBRANCH   8  30
BRANCH   1  38
ATOM     38  C   UNL     1       0.679  -0.794   0.748  0.00  0.00    +0.318 C 
ATOM     39  O   UNL     1       1.319  -0.036   1.438  0.00  0.00    -0.250 OA
BRANCH  38  41
ATOM     40  C   UNL     1      -0.105   1.104  -0.421  0.00  0.00    +0.280 C 
ATOM     41  O   UNL     1      -0.090  -0.313  -0.241  0.00  0.00    -0.467 OA
ENDBRANCH  38  41
ENDBRANCH   1  38
TORSDOF 5
