REMARK  Name = ZINC20758009
REMARK  8 active torsions:
REMARK  status: ('A' for Active; 'I' for Inactive)
REMARK    1  A    between atoms: C_1  and  C_2
REMARK    2  A    between atoms: C_2  and  C_4
REMARK    3  A    between atoms: C_2  and  N_12
REMARK    4  A    between atoms: C_4  and  C_5
REMARK    5  A    between atoms: C_5  and  C_6
REMARK    6  A    between atoms: C_15  and  C_22
REMARK    7  A    between atoms: C_28  and  O_34
REMARK    8  A    between atoms: O_34  and  C_35
REMARK                            x       y       z     vdW  Elec       q    Type
REMARK                         _______ _______ _______ _____ _____    ______ ____
ROOT
ATOM      1  N   UNL     1      -1.372  -0.511   0.012  0.00  0.00    -0.258 N 
ATOM      2  C   UNL     1      -1.805  -1.291  -0.998  0.00  0.00    +0.262 A 
ATOM      3  O   UNL     1      -1.058  -1.574  -1.918  0.00  0.00    -0.267 OA
ATOM      4  C   UNL     1      -3.125  -1.775  -0.984  0.00  0.00    +0.073 A 
ATOM      5  C   UNL     1      -3.941  -1.444   0.057  0.00  0.00    +0.260 A 
ATOM      6  N   UNL     1      -3.460  -0.648   1.066  0.00  0.00    -0.275 N 
ATOM      7  H   UNL     1      -4.036  -0.410   1.809  0.00  0.00    +0.173 HD
ATOM      8  C   UNL     1      -2.191  -0.200   1.034  0.00  0.00    +0.332 A 
ATOM      9  O   UNL     1      -1.781   0.501   1.939  0.00  0.00    -0.246 OA
ATOM     10  O   UNL     1      -5.213  -1.896   0.096  0.00  0.00    -0.267 OA
ENDROOT
BRANCH   4  11
ATOM     11  C   UNL     1      -3.631  -2.648  -2.103  0.00  0.00    +0.018 C 
ATOM     12  C   UNL     1      -3.650  -1.860  -3.391  0.00  0.00    +0.011 A 
ATOM     13  C   UNL     1      -3.234  -2.373  -4.572  0.00  0.00    -0.022 A 
ATOM     14  C   UNL     1      -3.393  -1.338  -5.569  0.00  0.00    +0.006 A 
ATOM     15  C   UNL     1      -3.130  -1.292  -6.942  0.00  0.00    +0.056 A 
ATOM     16  C   UNL     1      -3.413  -0.100  -7.593  0.00  0.00    +0.121 A 
ATOM     17  C   UNL     1      -3.932   0.998  -6.918  0.00  0.00    +0.047 A 
ATOM     18  C   UNL     1      -4.198   0.971  -5.560  0.00  0.00    +0.030 A 
ATOM     19  C   UNL     1      -3.923  -0.215  -4.883  0.00  0.00    +0.047 A 
ATOM     20  N   UNL     1      -4.065  -0.570  -3.569  0.00  0.00    -0.359 N 
ATOM     21  H   UNL     1      -4.409   0.007  -2.869  0.00  0.00    +0.166 HD
ATOM     22  C   UNL     1      -2.717  -3.782  -4.725  0.00  0.00    +0.018 C 
ATOM     23  C   UNL     1      -3.115  -4.567  -3.468  0.00  0.00    -0.076 C 
ATOM     24  N   UNL     1      -2.739  -3.806  -2.269  0.00  0.00    +0.388 N 
ATOM     25  H   UNL     1      -1.787  -3.483  -2.365  0.00  0.00    -0.084 HD
ATOM     26  H   UNL     1      -2.808  -4.400  -1.456  0.00  0.00    -0.084 HD
BRANCH  16  27
ATOM     27  O   UNL     1      -3.175  -0.004  -8.928  0.00  0.00    -0.495 OA
ATOM     28  C   UNL     1      -3.483   1.244  -9.553  0.00  0.00    +0.277 C 
ENDBRANCH  16  27
ENDBRANCH   4  11
BRANCH   1  30
ATOM     29  C   UNL     1      -0.019   1.526   0.010  0.00  0.00    +0.031 C 
ATOM     30  C   UNL     1       0.002  -0.004   0.002  0.00  0.00    +0.092 C 
BRANCH  30  31
ATOM     31  C   UNL     1       0.742  -0.511   1.242  0.00  0.00    +0.030 C 
BRANCH  31  32
ATOM     32  C   UNL     1       0.872  -2.034   1.171  0.00  0.00    +0.037 C 
BRANCH  32  33
ATOM     33  C   UNL     1       1.601  -2.533   2.392  0.00  0.00    -0.047 A 
ATOM     34  C   UNL     1       2.979  -2.641   2.378  0.00  0.00    +0.003 A 
ATOM     35  C   UNL     1       3.647  -3.099   3.498  0.00  0.00    +0.000 A 
ATOM     36  C   UNL     1       2.938  -3.448   4.632  0.00  0.00    +0.000 A 
ATOM     37  C   UNL     1       1.560  -3.340   4.646  0.00  0.00    +0.000 A 
ATOM     38  C   UNL     1       0.892  -2.878   3.527  0.00  0.00    +0.003 A 
ENDBRANCH  32  33
ENDBRANCH  31  32
ENDBRANCH  30  31
ENDBRANCH   1  30
TORSDOF 6
