REMARK  Name = ZINC40000256
REMARK  6 active torsions:
REMARK  status: ('A' for Active; 'I' for Inactive)
REMARK    1  A    between atoms: C_1  and  C_2
REMARK    2  A    between atoms: C_2  and  S_3
REMARK    3  A    between atoms: S_3  and  C_4
REMARK    4  A    between atoms: C_10  and  C_26
REMARK    5  A    between atoms: C_12  and  C_17
REMARK    6  A    between atoms: C_17  and  C_19
REMARK                            x       y       z     vdW  Elec       q    Type
REMARK                         _______ _______ _______ _____ _____    ______ ____
ROOT
ATOM      1  C   UNL     1      -1.702  -2.417   0.274  0.00  0.00    +0.160 A 
ATOM      2  N   UNL     1      -0.579  -3.104   0.126  0.00  0.00    -0.133 NA
ATOM      3  N   UNL     1      -0.571  -4.364   0.059  0.00  0.00    -0.125 NA
ATOM      4  C   UNL     1      -1.684  -5.076   0.132  0.00  0.00    +0.192 A 
ATOM      5  S   UNL     1      -2.884  -3.761   0.328  0.00  0.00    -0.024 S 
ATOM      6  N   UNL     1      -1.869  -6.452   0.078  0.00  0.00    -0.230 N 
ATOM      7  C   UNL     1      -0.813  -7.460  -0.074  0.00  0.00    +0.152 C 
ATOM      8  C   UNL     1      -1.508  -8.802  -0.077  0.00  0.00    +0.077 C 
ATOM      9  C   UNL     1      -2.833  -8.555   0.061  0.00  0.00    +0.250 C 
ATOM     10  C   UNL     1      -3.047  -7.097   0.162  0.00  0.00    +0.293 C 
ATOM     11  O   UNL     1      -4.128  -6.559   0.297  0.00  0.00    -0.266 OA
ATOM     12  O   UNL     1      -3.805  -9.495   0.105  0.00  0.00    -0.282 OA
ENDROOT
BRANCH   7  13
ATOM     13  C   UNL     1      -0.080  -7.251  -1.374  0.00  0.00    -0.022 A 
ATOM     14  C   UNL     1      -0.789  -6.980  -2.530  0.00  0.00    +0.007 A 
ATOM     15  C   UNL     1      -0.118  -6.788  -3.723  0.00  0.00    +0.020 A 
ATOM     16  C   UNL     1       1.263  -6.868  -3.760  0.00  0.00    +0.041 A 
ATOM     17  C   UNL     1       1.971  -7.140  -2.603  0.00  0.00    +0.020 A 
ATOM     18  C   UNL     1       1.300  -7.326  -1.410  0.00  0.00    +0.007 A 
ATOM     19 CL   UNL     1       2.107  -6.628  -5.259  0.00  0.00    -0.084 Cl
ENDBRANCH   7  13
BRANCH   8  20
ATOM     20  C   UNL     1      -0.872 -10.115  -0.205  0.00  0.00    +0.195 C 
ATOM     21  O   UNL     1      -1.085 -10.801  -1.188  0.00  0.00    -0.287 OA
BRANCH  20  22
ATOM     22  C   UNL     1       0.027 -10.608   0.859  0.00  0.00    +0.022 A 
ATOM     23  C   UNL     1       0.176  -9.882   2.043  0.00  0.00    +0.014 A 
ATOM     24  C   UNL     1       1.016 -10.346   3.032  0.00  0.00    +0.039 A 
ATOM     25  C   UNL     1       1.712 -11.532   2.853  0.00  0.00    +0.123 A 
ATOM     26  C   UNL     1       1.569 -12.257   1.680  0.00  0.00    +0.039 A 
ATOM     27  C   UNL     1       0.727 -11.805   0.686  0.00  0.00    +0.014 A 
ATOM     28  F   UNL     1       2.534 -11.982   3.826  0.00  0.00    -0.205 F 
ENDBRANCH  20  22
ENDBRANCH   8  20
BRANCH   1  29
ATOM     29  S   UNL     1      -1.959  -0.678   0.392  0.00  0.00    -0.097 S 
BRANCH  29  31
ATOM     30  C   UNL     1      -0.370   1.548   0.341  0.00  0.00    +0.016 C 
ATOM     31  C   UNL     1      -0.292   0.023   0.253  0.00  0.00    +0.073 C 
ENDBRANCH  29  31
ENDBRANCH   1  29
TORSDOF 5
