REMARK  Name = ZINC21603763
REMARK  10 active torsions:
REMARK  status: ('A' for Active; 'I' for Inactive)
REMARK    1  A    between atoms: C_1  and  C_2
REMARK    2  A    between atoms: C_2  and  C_4
REMARK    3  A    between atoms: C_2  and  S_15
REMARK    4  A    between atoms: N_6  and  C_7
REMARK    5  A    between atoms: C_10  and  O_13
REMARK    6  A    between atoms: O_13  and  C_14
REMARK    7  A    between atoms: S_15  and  C_16
REMARK    8  A    between atoms: C_19  and  C_28
REMARK    9  A    between atoms: N_20  and  C_21
REMARK   10  A    between atoms: C_21  and  C_22
REMARK                            x       y       z     vdW  Elec       q    Type
REMARK                         _______ _______ _______ _____ _____    ______ ____
ROOT
ATOM      1  C   UNL     1      -0.033   1.467   0.504  0.00  0.00    +0.193 A 
ATOM      2  N   UNL     1      -0.119   0.174   0.297  0.00  0.00    -0.122 NA
ATOM      3  N   UNL     1       1.044  -0.312   0.046  0.00  0.00    -0.128 NA
ATOM      4  C   UNL     1       1.946   0.642   0.076  0.00  0.00    +0.167 A 
ATOM      5  N   UNL     1       1.284   1.812   0.370  0.00  0.00    -0.300 N 
ENDROOT
BRANCH   4   6
ATOM      6  C   UNL     1       3.395   0.489  -0.161  0.00  0.00    +0.044 A 
ATOM      7  C   UNL     1       4.169   1.253  -0.974  0.00  0.00    +0.095 A 
ATOM      8  N   UNL     1       5.459   0.808  -0.932  0.00  0.00    -0.360 N 
ATOM      9  H   UNL     1       6.235   1.313  -1.526  0.00  0.00    +0.165 HD
ATOM     10  C   UNL     1       5.562  -0.276  -0.087  0.00  0.00    +0.047 A 
ATOM     11  C   UNL     1       4.281  -0.527   0.433  0.00  0.00    +0.010 A 
ATOM     12  C   UNL     1       4.084  -1.578   1.327  0.00  0.00    +0.011 A 
ATOM     13  C   UNL     1       5.150  -2.368   1.696  0.00  0.00    +0.001 A 
ATOM     14  C   UNL     1       6.416  -2.121   1.183  0.00  0.00    +0.002 A 
ATOM     15  C   UNL     1       6.625  -1.086   0.298  0.00  0.00    +0.026 A 
ENDBRANCH   4   6
BRANCH   1  16
ATOM     16  S   UNL     1      -1.366   2.558   0.876  0.00  0.00    -0.074 S 
BRANCH  16  18
ATOM     17  C   UNL     1      -2.564   0.384   2.017  0.00  0.00    +0.029 C 
ATOM     18  C   UNL     1      -2.743   1.383   0.872  0.00  0.00    +0.137 C 
BRANCH  18  19
ATOM     19  C   UNL     1      -4.040   2.128   1.054  0.00  0.00    +0.230 C 
ATOM     20  O   UNL     1      -4.037   3.245   1.528  0.00  0.00    -0.274 OA
ATOM     21  N   UNL     1      -5.204   1.554   0.690  0.00  0.00    -0.285 N 
ATOM     22  H   UNL     1      -5.217   0.511   0.340  0.00  0.00    +0.155 HD
BRANCH  21  23
ATOM     23  C   UNL     1      -6.397   2.285   0.758  0.00  0.00    +0.034 A 
ATOM     24  C   UNL     1      -7.589   1.643   1.065  0.00  0.00    +0.027 A 
ATOM     25  C   UNL     1      -8.764   2.365   1.138  0.00  0.00    +0.047 A 
ATOM     26  C   UNL     1      -8.755   3.731   0.892  0.00  0.00    +0.120 A 
ATOM     27  C   UNL     1      -7.565   4.372   0.579  0.00  0.00    +0.047 A 
ATOM     28  C   UNL     1      -6.389   3.652   0.512  0.00  0.00    +0.027 A 
BRANCH  26  29
ATOM     29  O   UNL     1      -9.913   4.440   0.958  0.00  0.00    -0.495 OA
ATOM     30  C   UNL     1     -11.100   3.716   1.285  0.00  0.00    +0.277 C 
ENDBRANCH  26  29
ENDBRANCH  21  23
ENDBRANCH  18  19
ENDBRANCH  16  18
ENDBRANCH   1  16
BRANCH   5  31
ATOM     31  C   UNL     1       1.868   3.148   0.511  0.00  0.00    +0.157 C 
BRANCH  31  32
ATOM     32  C   UNL     1       2.154   3.427   1.989  0.00  0.00    +0.138 C 
ATOM     33  C   UNL     1       2.657   4.876   2.161  0.00  0.00    +0.035 C 
ATOM     34  C   UNL     1       3.763   4.714   3.240  0.00  0.00    +0.031 C 
ATOM     35  C   UNL     1       4.325   3.316   2.879  0.00  0.00    +0.160 C 
ATOM     36  O   UNL     1       3.185   2.551   2.458  0.00  0.00    -0.375 OA
ENDBRANCH  31  32
ENDBRANCH   5  31
TORSDOF 8
