REMARK  Name = ZINC39060370
REMARK  4 active torsions:
REMARK  status: ('A' for Active; 'I' for Inactive)
REMARK    1  A    between atoms: C_5  and  C_11
REMARK    2  A    between atoms: C_7  and  O_10
REMARK    3  A    between atoms: C_11  and  C_12
REMARK    4  A    between atoms: C_12  and  O_13
REMARK                            x       y       z     vdW  Elec       q    Type
REMARK                         _______ _______ _______ _____ _____    ______ ____
ROOT
ATOM      1  C   UNL     1      -0.019   1.537   0.011  0.00  0.00    +0.005 C 
ATOM      2  C   UNL     1       1.365   2.142   0.001  0.00  0.00    +0.028 C 
ATOM      3  C   UNL     1       1.794   2.407  -1.461  0.00  0.00    +0.160 C 
ATOM      4  O   UNL     1       2.125   1.246  -2.094  0.00  0.00    -0.374 OA
ATOM      5  C   UNL     1       1.109   0.245  -2.242  0.00  0.00    +0.149 C 
ATOM      6  C   UNL     1       1.067  -0.551  -0.958  0.00  0.00    +0.143 C 
ATOM      7  C   UNL     1       0.002  -0.004   0.002  0.00  0.00    +0.034 C 
ENDROOT
BRANCH   6   8
ATOM      8  O   UNL     1       2.346  -0.484  -0.324  0.00  0.00    -0.389 OA
ATOM      9  H   UNL     1       2.398  -0.973   0.509  0.00  0.00    +0.210 HD
ENDBRANCH   6   8
BRANCH   5  10
ATOM     10  C   UNL     1       1.452  -0.675  -3.415  0.00  0.00    +0.062 C 
BRANCH  10  11
ATOM     11  C   UNL     1       1.418   0.126  -4.718  0.00  0.00    +0.158 C 
BRANCH  11  12
ATOM     12  O   UNL     1       1.739  -0.733  -5.814  0.00  0.00    -0.395 OA
ATOM     13  H   UNL     1       1.736  -0.292  -6.674  0.00  0.00    +0.209 HD
ENDBRANCH  11  12
ENDBRANCH  10  11
ENDBRANCH   5  10
TORSDOF 4
