REMARK  Name = ZINC08855439
REMARK  10 active torsions:
REMARK  status: ('A' for Active; 'I' for Inactive)
REMARK    1  A    between atoms: C_3  and  O_30
REMARK    2  A    between atoms: C_6  and  N_7
REMARK    3  A    between atoms: N_7  and  C_8
REMARK    4  A    between atoms: C_9  and  C_10
REMARK    5  A    between atoms: C_10  and  C_12
REMARK    6  A    between atoms: C_15  and  C_18
REMARK    7  A    between atoms: C_18  and  N_19
REMARK    8  A    between atoms: N_19  and  C_20
REMARK    9  A    between atoms: C_23  and  C_25
REMARK   10  A    between atoms: O_30  and  C_31
REMARK                            x       y       z     vdW  Elec       q    Type
REMARK                         _______ _______ _______ _____ _____    ______ ____
ROOT
ATOM      1  C   UNL     1      -2.534   9.708   0.076  0.00  0.00    +0.130 C 
ATOM      2  N   UNL     1      -1.498  10.478   0.071  0.00  0.00    -0.085 NA
ATOM      3  O   UNL     1      -1.835  11.852   0.074  0.00  0.00    -0.388 OA
ATOM      4  C   UNL     1      -3.209  11.963   0.496  0.00  0.00    +0.227 C 
ATOM      5  C   UNL     1      -3.775  10.580   0.086  0.00  0.00    +0.111 C 
ENDROOT
BRANCH   1   6
ATOM      6  C   UNL     1      -2.514   8.232   0.068  0.00  0.00    +0.205 C 
ATOM      7  O   UNL     1      -3.561   7.608   0.075  0.00  0.00    -0.286 OA
BRANCH   6   9
ATOM      8  C   UNL     1      -1.264   6.189   0.046  0.00  0.00    +0.076 C 
ATOM      9  C   UNL     1      -1.282   7.543   0.053  0.00  0.00    +0.068 C 
BRANCH   8  10
ATOM     10  N   UNL     1      -0.073   5.523   0.032  0.00  0.00    -0.320 N 
ATOM     11  H   UNL     1       0.760   6.019   0.026  0.00  0.00    +0.152 HD
BRANCH  10  17
ATOM     12  C   UNL     1       1.158   3.446   0.009  0.00  0.00    +0.027 A 
ATOM     13  C   UNL     1       1.176   2.065   0.002  0.00  0.00    +0.048 A 
ATOM     14  C   UNL     1      -0.016   1.355   0.009  0.00  0.00    +0.130 A 
ATOM     15  C   UNL     1      -1.227   2.032   0.019  0.00  0.00    +0.048 A 
ATOM     16  C   UNL     1      -1.247   3.413   0.031  0.00  0.00    +0.027 A 
ATOM     17  C   UNL     1      -0.054   4.124   0.024  0.00  0.00    +0.031 A 
BRANCH  14  18
ATOM     18  O   UNL     1       0.002  -0.004   0.002  0.00  0.00    -0.406 OA
BRANCH  18  19
ATOM     19  C   UNL     1      -1.262  -0.670   0.011  0.00  0.00    +0.575 C 
ATOM     20  F   UNL     1      -1.993  -0.298  -1.123  0.00  0.00    -0.133 F 
ATOM     21  F   UNL     1      -1.060  -2.054   0.001  0.00  0.00    -0.133 F 
ATOM     22  F   UNL     1      -1.971  -0.310   1.162  0.00  0.00    -0.133 F 
ENDBRANCH  18  19
ENDBRANCH  14  18
ENDBRANCH  10  17
ENDBRANCH   8  10
ENDBRANCH   6   9
ENDBRANCH   1   6
BRANCH   4  23
ATOM     23  C   UNL     1      -3.924  13.087  -0.256  0.00  0.00    +0.150 C 
BRANCH  23  24
ATOM     24  N   UNL     1      -3.268  14.364   0.036  0.00  0.00    -0.326 N 
ATOM     25  H   UNL     1      -2.501  14.391   0.630  0.00  0.00    +0.148 HD
BRANCH  24  26
ATOM     26  C   UNL     1      -3.743  15.538  -0.538  0.00  0.00    +0.115 A 
ATOM     27  C   UNL     1      -3.119  16.749  -0.252  0.00  0.00    +0.079 A 
ATOM     28  C   UNL     1      -3.600  17.908  -0.835  0.00  0.00    +0.037 A 
ATOM     29  C   UNL     1      -4.699  17.818  -1.679  0.00  0.00    +0.072 A 
ATOM     30  C   UNL     1      -5.273  16.585  -1.914  0.00  0.00    +0.096 A 
ATOM     31 CL   UNL     1      -1.752  16.803   0.816  0.00  0.00    -0.080 Cl
ATOM     32  N   UNL     1      -4.824  15.425  -1.363  0.00  0.00    -0.348 N 
ATOM     33  H   UNL     1      -5.271  14.521  -1.556  0.00  0.00    +0.167 HD
BRANCH  29  34
ATOM     34  C   UNL     1      -5.261  19.055  -2.332  0.00  0.00    +0.419 C 
ATOM     35  F   UNL     1      -6.357  18.706  -3.128  0.00  0.00    -0.166 F 
ATOM     36  F   UNL     1      -5.671  19.958  -1.345  0.00  0.00    -0.166 F 
ATOM     37  F   UNL     1      -4.277  19.650  -3.128  0.00  0.00    -0.166 F 
ENDBRANCH  29  34
ENDBRANCH  24  26
ENDBRANCH  23  24
ENDBRANCH   4  23
TORSDOF 10
