REMARK  Name = ZINC08642788
REMARK  6 active torsions:
REMARK  status: ('A' for Active; 'I' for Inactive)
REMARK    1  A    between atoms: C_1  and  N_2
REMARK    2  A    between atoms: C_3  and  C_18
REMARK    3  A    between atoms: N_7  and  N_8
REMARK    4  A    between atoms: C_9  and  C_10
REMARK    5  A    between atoms: C_13  and  O_17
REMARK    6  A    between atoms: C_15  and  O_16
REMARK                            x       y       z     vdW  Elec       q    Type
REMARK                         _______ _______ _______ _____ _____    ______ ____
ROOT
ATOM      1  C   UNL     1       9.817   4.730   1.378  0.00  0.00    +0.151 C 
ATOM      2  N   UNL     1       8.836   4.660   2.464  0.00  0.00    -0.321 N 
ATOM      3  C   UNL     1       9.137   5.143   3.707  0.00  0.00    +0.057 A 
ATOM      4  C   UNL     1       8.220   5.061   4.695  0.00  0.00    +0.075 A 
ATOM      5  S   UNL     1       6.847   4.277   3.866  0.00  0.00    -0.056 S 
ATOM      6  C   UNL     1       7.593   4.111   2.252  0.00  0.00    +0.195 A 
ATOM      7  N   UNL     1       7.086   3.592   1.146  0.00  0.00    -0.124 NA
ENDROOT
BRANCH   3   8
ATOM      8  C   UNL     1      10.461   5.746   3.970  0.00  0.00    -0.001 A 
ATOM      9  C   UNL     1      11.127   5.479   5.167  0.00  0.00    +0.011 A 
ATOM     10  C   UNL     1      12.365   6.040   5.405  0.00  0.00    +0.016 A 
ATOM     11  C   UNL     1      12.942   6.875   4.463  0.00  0.00    +0.018 A 
ATOM     12  C   UNL     1      12.284   7.147   3.275  0.00  0.00    +0.016 A 
ATOM     13  C   UNL     1      11.048   6.588   3.024  0.00  0.00    +0.011 A 
ATOM     14 BR   UNL     1      14.635   7.646   4.799  0.00  0.00    -0.050 Br
ENDBRANCH   3   8
BRANCH   7  15
ATOM     15  N   UNL     1       5.887   3.115   1.148  0.00  0.00    -0.154 NA
ATOM     16  C   UNL     1       5.386   2.603   0.055  0.00  0.00    +0.146 C 
BRANCH  16  17
ATOM     17  C   UNL     1       4.020   2.060   0.057  0.00  0.00    +0.036 A 
ATOM     18  C   UNL     1       3.481   1.510  -1.111  0.00  0.00    +0.016 A 
ATOM     19  C   UNL     1       2.199   1.003  -1.104  0.00  0.00    +0.046 A 
ATOM     20  C   UNL     1       1.440   1.035   0.060  0.00  0.00    +0.120 A 
ATOM     21  C   UNL     1       1.964   1.583   1.222  0.00  0.00    +0.091 A 
ATOM     22  C   UNL     1       3.250   2.091   1.231  0.00  0.00    +0.129 A 
BRANCH  22  23
ATOM     23  O   UNL     1       3.766   2.623   2.369  0.00  0.00    -0.506 OA
ATOM     24  H   UNL     1       3.599   3.571   2.471  0.00  0.00    +0.292 HD
ENDBRANCH  22  23
BRANCH  20  25
ATOM     25  O   UNL     1       0.178   0.532   0.058  0.00  0.00    -0.507 OA
ATOM     26  H   UNL     1       0.128  -0.406   0.285  0.00  0.00    +0.292 HD
ENDBRANCH  20  25
ENDBRANCH  16  17
ENDBRANCH   7  15
TORSDOF 5
