REMARK  Name = ZINC06964839
REMARK  7 active torsions:
REMARK  status: ('A' for Active; 'I' for Inactive)
REMARK    1  A    between atoms: C_1  and  C_2
REMARK    2  A    between atoms: C_2  and  O_3
REMARK    3  A    between atoms: O_3  and  C_4
REMARK    4  A    between atoms: C_8  and  N_10
REMARK    5  A    between atoms: C_11  and  C_13
REMARK    6  A    between atoms: C_14  and  C_28
REMARK    7  A    between atoms: C_19  and  C_21
REMARK                            x       y       z     vdW  Elec       q    Type
REMARK                         _______ _______ _______ _____ _____    ______ ____
ROOT
ATOM      1  C   UNL     1      -2.565   0.993   1.414  0.00  0.00    +0.056 C 
ATOM      2  C   UNL     1      -2.238  -0.175   2.002  0.00  0.00    +0.019 C 
ATOM      3  N   UNL     1      -2.087  -1.317   1.267  0.00  0.00    -0.273 N 
ATOM      4  C   UNL     1      -2.247  -1.371  -0.061  0.00  0.00    +0.304 C 
ATOM      5  O   UNL     1      -2.092  -2.434  -0.630  0.00  0.00    -0.252 OA
ATOM      6  N   UNL     1      -2.575  -0.285  -0.789  0.00  0.00    -0.288 N 
ATOM      7  C   UNL     1      -2.761   0.997  -0.089  0.00  0.00    +0.144 C 
ATOM      8  C   UNL     1      -2.034  -0.223   3.495  0.00  0.00    +0.061 C 
ATOM      9  H   UNL     1      -1.850  -2.134   1.733  0.00  0.00    +0.156 HD
ATOM     10  H   UNL     1      -2.686  -0.346  -1.750  0.00  0.00    +0.151 HD
ENDROOT
BRANCH   7  11
ATOM     11  C   UNL     1      -1.797   1.993  -0.680  0.00  0.00    +0.013 A 
ATOM     12  C   UNL     1      -0.541   2.154  -0.124  0.00  0.00    +0.008 A 
ATOM     13  C   UNL     1       0.345   3.063  -0.670  0.00  0.00    +0.001 A 
ATOM     14  C   UNL     1      -0.025   3.817  -1.768  0.00  0.00    +0.003 A 
ATOM     15  C   UNL     1      -1.281   3.662  -2.322  0.00  0.00    +0.039 A 
ATOM     16  C   UNL     1      -2.170   2.751  -1.776  0.00  0.00    +0.129 A 
ATOM     17  F   UNL     1      -3.399   2.599  -2.317  0.00  0.00    -0.205 F 
ENDBRANCH   7  11
BRANCH   1  19
ATOM     18  N   UNL     1      -3.167   3.304   1.586  0.00  0.00    -0.282 N 
ATOM     19  C   UNL     1      -2.721   2.177   2.176  0.00  0.00    +0.248 C 
ATOM     20  O   UNL     1      -2.453   2.177   3.364  0.00  0.00    -0.270 OA
ATOM     21  H   UNL     1      -3.384   3.304   0.641  0.00  0.00    +0.155 HD
BRANCH  18  26
ATOM     22  C   UNL     1      -3.254   6.869   2.494  0.00  0.00    +0.122 A 
ATOM     23  C   UNL     1      -3.616   6.788   3.831  0.00  0.00    +0.046 A 
ATOM     24  C   UNL     1      -3.829   5.555   4.418  0.00  0.00    +0.005 A 
ATOM     25  C   UNL     1      -3.685   4.399   3.675  0.00  0.00    +0.023 A 
ATOM     26  C   UNL     1      -3.317   4.474   2.337  0.00  0.00    +0.037 A 
ATOM     27  C   UNL     1      -3.104   5.712   1.746  0.00  0.00    +0.069 A 
BRANCH  22  28
ATOM     28  O   UNL     1      -3.047   8.082   1.918  0.00  0.00    -0.492 OA
BRANCH  28  30
ATOM     29  C   UNL     1      -2.945  10.497   1.931  0.00  0.00    +0.048 C 
ATOM     30  C   UNL     1      -3.219   9.232   2.748  0.00  0.00    +0.225 C 
ENDBRANCH  28  30
ENDBRANCH  22  28
ENDBRANCH  18  26
ENDBRANCH   1  19
TORSDOF 5
