REMARK  Name = ZINC16605229
REMARK  10 active torsions:
REMARK  status: ('A' for Active; 'I' for Inactive)
REMARK    1  A    between atoms: C_1  and  C_2
REMARK    2  A    between atoms: C_5  and  N_9
REMARK    3  A    between atoms: C_6  and  C_8
REMARK    4  A    between atoms: C_10  and  C_19
REMARK    5  A    between atoms: C_12  and  C_14
REMARK    6  A    between atoms: N_21  and  C_22
REMARK    7  A    between atoms: C_22  and  C_23
REMARK    8  A    between atoms: C_23  and  C_24
REMARK    9  A    between atoms: C_24  and  N_63
REMARK   10  A    between atoms: C_29  and  C_31
REMARK                            x       y       z     vdW  Elec       q    Type
REMARK                         _______ _______ _______ _____ _____    ______ ____
ROOT
ATOM      1  N   UNL     1      -8.550   4.888  -1.951  0.00  0.00    -0.227 N 
ATOM      2  C   UNL     1      -9.069   3.856  -1.215  0.00  0.00    +0.130 A 
ATOM      3  C   UNL     1     -10.400   4.138  -0.995  0.00  0.00    +0.063 A 
ATOM      4  C   UNL     1     -10.680   5.371  -1.606  0.00  0.00    +0.100 A 
ATOM      5  N   UNL     1      -9.576   5.814  -2.178  0.00  0.00    -0.165 NA
ENDROOT
BRANCH   1  10
ATOM      6  C   UNL     1      -3.193   5.331  -3.764  0.00  0.00    +0.044 C 
ATOM      7  C   UNL     1      -4.616   5.213  -3.282  0.00  0.00    -0.050 A 
ATOM      8  C   UNL     1      -4.897   5.304  -1.931  0.00  0.00    +0.005 A 
ATOM      9  C   UNL     1      -6.200   5.197  -1.487  0.00  0.00    +0.028 A 
ATOM     10  C   UNL     1      -7.229   4.997  -2.398  0.00  0.00    +0.069 A 
ATOM     11  C   UNL     1      -6.942   4.900  -3.754  0.00  0.00    -0.025 A 
ATOM     12  C   UNL     1      -5.638   5.014  -4.192  0.00  0.00    +0.008 A 
ATOM     13  C   UNL     1      -8.055   4.677  -4.746  0.00  0.00    +0.046 C 
ENDBRANCH   1  10
BRANCH   4  14
ATOM     14  C   UNL     1     -11.991   6.056  -1.612  0.00  0.00    +0.039 A 
ATOM     15  C   UNL     1     -12.337   7.251  -2.182  0.00  0.00    +0.018 A 
ATOM     16  C   UNL     1     -13.637   7.692  -2.059  0.00  0.00    +0.008 A 
ATOM     17  C   UNL     1     -14.529   6.936  -1.370  0.00  0.00    +0.046 A 
ATOM     18  S   UNL     1     -13.531   5.542  -0.871  0.00  0.00    -0.095 S 
ENDBRANCH   4  14
BRANCH   2  19
ATOM     19  C   UNL     1      -8.342   2.664  -0.750  0.00  0.00    +0.263 C 
ATOM     20  O   UNL     1      -8.891   1.865  -0.015  0.00  0.00    -0.269 OA
ATOM     21  N   UNL     1      -7.069   2.457  -1.139  0.00  0.00    -0.310 N 
ATOM     22  H   UNL     1      -6.608   3.128  -1.667  0.00  0.00    +0.149 HD
BRANCH  21  23
ATOM     23  C   UNL     1      -6.381   1.219  -0.766  0.00  0.00    +0.103 C 
BRANCH  23  24
ATOM     24  C   UNL     1      -4.958   1.236  -1.330  0.00  0.00    +0.000 C 
BRANCH  24  25
ATOM     25  C   UNL     1      -4.240  -0.057  -0.940  0.00  0.00    -0.077 C 
BRANCH  25  32
ATOM     26  C   UNL     1      -2.879  -0.281  -2.930  0.00  0.00    -0.078 C 
ATOM     27  C   UNL     1      -1.461  -0.113  -3.481  0.00  0.00    -0.019 C 
ATOM     28  C   UNL     1      -0.526  -1.105  -2.783  0.00  0.00    -0.003 C 
ATOM     29  C   UNL     1      -0.575  -0.865  -1.271  0.00  0.00    -0.016 C 
ATOM     30  C   UNL     1      -2.020  -1.011  -0.784  0.00  0.00    -0.072 C 
ATOM     31  C   UNL     1      -2.079  -0.752   0.722  0.00  0.00    -0.013 C 
ATOM     32  N   UNL     1      -2.864  -0.013  -1.476  0.00  0.00    +0.381 N 
ATOM     33  H   UNL     1      -2.473   0.922  -1.314  0.00  0.00    -0.081 HD
ENDBRANCH  25  32
ENDBRANCH  24  25
ENDBRANCH  23  24
ENDBRANCH  21  23
ENDBRANCH   2  19
TORSDOF 7
