REMARK  Name = ZINC40914612
REMARK  6 active torsions:
REMARK  status: ('A' for Active; 'I' for Inactive)
REMARK    1  A    between atoms: C_1  and  N_2
REMARK    2  A    between atoms: N_2  and  C_3
REMARK    3  A    between atoms: C_4  and  C_6
REMARK    4  A    between atoms: C_8  and  C_11
REMARK    5  A    between atoms: N_13  and  C_14
REMARK    6  A    between atoms: C_19  and  C_20
REMARK                            x       y       z     vdW  Elec       q    Type
REMARK                         _______ _______ _______ _____ _____    ______ ____
ROOT
ATOM      1  C   UNL     1      -1.448   0.553  -8.321  0.00  0.00    +0.046 A 
ATOM      2  C   UNL     1      -2.109  -0.653  -8.511  0.00  0.00    +0.025 A 
ATOM      3  C   UNL     1      -2.558  -1.006  -9.768  0.00  0.00    +0.022 A 
ATOM      4  C   UNL     1      -2.352  -0.162 -10.849  0.00  0.00    +0.042 A 
ATOM      5  C   UNL     1      -1.697   1.040 -10.679  0.00  0.00    +0.035 A 
ATOM      6  C   UNL     1      -1.243   1.413  -9.411  0.00  0.00    +0.060 A 
ATOM      7 CL   UNL     1      -2.921  -0.620 -12.423  0.00  0.00    -0.084 Cl
ENDROOT
BRANCH   6   8
ATOM      8  C   UNL     1      -0.548   2.699  -9.221  0.00  0.00    +0.251 C 
ATOM      9  O   UNL     1      -0.071   2.978  -8.138  0.00  0.00    -0.270 OA
ATOM     10  N   UNL     1      -0.441   3.566 -10.248  0.00  0.00    -0.266 N 
ATOM     11  C   UNL     1       0.122   4.824 -10.042  0.00  0.00    +0.125 A 
ATOM     12  C   UNL     1       0.134   5.751 -11.079  0.00  0.00    +0.045 A 
ATOM     13  C   UNL     1       0.696   6.996 -10.861  0.00  0.00    +0.025 A 
ATOM     14  C   UNL     1       1.229   7.273  -9.609  0.00  0.00    +0.059 A 
ATOM     15  C   UNL     1       1.183   6.304  -8.625  0.00  0.00    +0.132 A 
ATOM     16  N   UNL     1       0.636   5.127  -8.861  0.00  0.00    -0.239 NA
ATOM     17 CL   UNL     1       1.946   8.820  -9.283  0.00  0.00    -0.082 Cl
ATOM     18  H   UNL     1      -0.756   3.314 -11.130  0.00  0.00    +0.157 HD
ENDBRANCH   6   8
BRANCH   1  21
ATOM     19  C   UNL     1      -1.592   0.404  -5.957  0.00  0.00    +0.255 C 
ATOM     20  O   UNL     1      -2.589  -0.284  -6.071  0.00  0.00    -0.269 OA
ATOM     21  N   UNL     1      -0.995   0.911  -7.054  0.00  0.00    -0.280 N 
ATOM     22  H   UNL     1      -0.249   1.524  -6.961  0.00  0.00    +0.155 HD
BRANCH  19  25
ATOM     23  C   UNL     1      -0.767   0.686  -2.303  0.00  0.00    +0.020 A 
ATOM     24  C   UNL     1      -1.497   0.265  -3.404  0.00  0.00    +0.032 A 
ATOM     25  C   UNL     1      -1.041   0.683  -4.628  0.00  0.00    +0.075 A 
ATOM     26  S   UNL     1       0.392   1.649  -4.194  0.00  0.00    -0.091 S 
ATOM     27  C   UNL     1       0.339   1.483  -2.523  0.00  0.00    +0.057 A 
BRANCH  23  31
ATOM     28  C   UNL     1      -0.213   2.413  -0.105  0.00  0.00    +0.130 C 
ATOM     29  N   UNL     1      -0.894   1.137   0.126  0.00  0.00    -0.323 N 
ATOM     30  C   UNL     1      -1.288   0.753   1.484  0.00  0.00    +0.130 C 
ATOM     31  C   UNL     1      -1.165   0.298  -0.933  0.00  0.00    +0.100 C 
ATOM     32  N   UNL     1      -1.771  -0.838  -0.728  0.00  0.00    -0.386 N 
ATOM     33  H   UNL     1      -1.962  -1.428  -1.473  0.00  0.00    +0.157 HD
ATOM     34  H   UNL     1      -2.032  -1.092   0.171  0.00  0.00    +0.157 HD
ENDBRANCH  23  31
ENDBRANCH  19  25
ENDBRANCH   1  21
TORSDOF 4
