REMARK  Name = ZINC06610149
REMARK  3 active torsions:
REMARK  status: ('A' for Active; 'I' for Inactive)
REMARK    1  A    between atoms: C_1  and  C_2
REMARK    2  A    between atoms: C_9  and  C_11
REMARK    3  A    between atoms: C_15  and  C_24
REMARK                            x       y       z     vdW  Elec       q    Type
REMARK                         _______ _______ _______ _____ _____    ______ ____
ROOT
ATOM      1  C   UNL     1       2.376  -2.754  -0.318  0.00  0.00    +0.258 C 
ATOM      2  O   UNL     1       2.317  -3.962  -0.456  0.00  0.00    -0.269 OA
ATOM      3  N   UNL     1       1.336  -2.086   0.218  0.00  0.00    -0.260 N 
ATOM      4  C   UNL     1       1.437  -0.653   0.543  0.00  0.00    +0.168 C 
ATOM      5  C   UNL     1       0.759  -0.437   1.904  0.00  0.00    +0.276 C 
ATOM      6  O   UNL     1      -0.598  -0.877   1.818  0.00  0.00    -0.476 OA
ATOM      7  C   UNL     1      -0.832  -2.108   1.292  0.00  0.00    +0.143 A 
ATOM      8  C   UNL     1       0.117  -2.731   0.485  0.00  0.00    +0.079 A 
ATOM      9  C   UNL     1      -0.138  -3.984  -0.050  0.00  0.00    +0.027 A 
ATOM     10  C   UNL     1      -1.337  -4.617   0.221  0.00  0.00    +0.002 A 
ATOM     11  C   UNL     1      -2.280  -4.002   1.022  0.00  0.00    +0.004 A 
ATOM     12  C   UNL     1      -2.032  -2.751   1.557  0.00  0.00    +0.047 A 
ENDROOT
BRANCH   1  20
ATOM     13  C   UNL     1       9.282  -1.245  -3.040  0.00  0.00    +0.008 C 
ATOM     14  C   UNL     1       7.834  -0.882  -2.703  0.00  0.00    -0.009 C 
ATOM     15  C   UNL     1       7.817   0.354  -1.800  0.00  0.00    +0.009 C 
ATOM     16  C   UNL     1       6.374   0.867  -1.691  0.00  0.00    +0.043 C 
ATOM     17  C   UNL     1       5.481  -0.297  -1.388  0.00  0.00    -0.006 A 
ATOM     18  C   UNL     1       5.789  -1.623  -1.504  0.00  0.00    -0.036 A 
ATOM     19  C   UNL     1       4.797  -2.526  -1.157  0.00  0.00    +0.024 A 
ATOM     20  C   UNL     1       3.579  -2.027  -0.734  0.00  0.00    +0.075 A 
ATOM     21  S   UNL     1       3.856  -0.266  -0.820  0.00  0.00    -0.088 S 
ATOM     22  C   UNL     1       7.169  -2.059  -1.989  0.00  0.00    +0.039 C 
ENDBRANCH   1  20
BRANCH   5  23
ATOM     23  C   UNL     1       0.794   1.027   2.260  0.00  0.00    +0.253 C 
ATOM     24  O   UNL     1      -0.239   1.657   2.334  0.00  0.00    -0.272 OA
ATOM     25  N   UNL     1       1.974   1.636   2.494  0.00  0.00    -0.326 N 
ATOM     26  H   UNL     1       2.800   1.131   2.434  0.00  0.00    +0.145 HD
ATOM     27  H   UNL     1       1.996   2.578   2.723  0.00  0.00    +0.145 HD
ENDBRANCH   5  23
TORSDOF 2
