REMARK  Name = ZINC12832942
REMARK  8 active torsions:
REMARK  status: ('A' for Active; 'I' for Inactive)
REMARK    1  A    between atoms: C_1  and  C_2
REMARK    2  A    between atoms: C_7  and  C_15
REMARK    3  A    between atoms: C_13  and  C_14
REMARK    4  A    between atoms: C_15  and  N_66
REMARK    5  A    between atoms: C_16  and  C_17
REMARK    6  A    between atoms: C_16  and  N_66
REMARK    7  A    between atoms: N_21  and  C_22
REMARK    8  A    between atoms: C_28  and  N_66
REMARK                            x       y       z     vdW  Elec       q    Type
REMARK                         _______ _______ _______ _____ _____    ______ ____
ROOT
ATOM      1  N   UNL     1      -1.562  -1.207  -1.342  0.00  0.00    +0.389 N 
ATOM      2  H   UNL     1      -0.713  -1.539  -1.813  0.00  0.00    -0.080 HD
ENDROOT
BRANCH   1   3
ATOM      3  C   UNL     1      -1.910   0.131  -1.866  0.00  0.00    -0.068 C 
ATOM      4  C   UNL     1      -0.640   1.005  -1.914  0.00  0.00    -0.015 C 
ATOM      5  C   UNL     1      -1.140   2.423  -1.540  0.00  0.00    -0.002 C 
ATOM      6  C   UNL     1      -2.201   2.134  -0.449  0.00  0.00    -0.002 C 
ATOM      7  C   UNL     1      -2.902   0.848  -0.934  0.00  0.00    -0.015 C 
ENDBRANCH   1   3
BRANCH   1   8
ATOM      8  C   UNL     1      -2.663  -2.156  -1.609  0.00  0.00    -0.037 C 
BRANCH   8  15
ATOM      9  C   UNL     1      -2.030  -4.838  -9.095  0.00  0.00    +0.044 C 
ATOM     10  C   UNL     1      -2.020  -4.517  -7.622  0.00  0.00    -0.046 A 
ATOM     11  C   UNL     1      -1.347  -5.352  -6.742  0.00  0.00    +0.004 A 
ATOM     12  C   UNL     1      -1.325  -5.079  -5.403  0.00  0.00    +0.010 A 
ATOM     13  C   UNL     1      -1.988  -3.948  -4.916  0.00  0.00    -0.001 A 
ATOM     14  C   UNL     1      -1.986  -3.626  -3.488  0.00  0.00    +0.017 A 
ATOM     15  C   UNL     1      -2.645  -2.516  -3.073  0.00  0.00    +0.001 A 
ATOM     16  C   UNL     1      -3.321  -1.701  -4.006  0.00  0.00    +0.251 A 
ATOM     17  O   UNL     1      -3.912  -0.711  -3.611  0.00  0.00    -0.268 OA
ATOM     18  N   UNL     1      -3.324  -1.986  -5.320  0.00  0.00    -0.322 N 
ATOM     19  H   UNL     1      -3.795  -1.401  -5.934  0.00  0.00    +0.169 HD
ATOM     20  C   UNL     1      -2.672  -3.099  -5.806  0.00  0.00    +0.052 A 
ATOM     21  C   UNL     1      -2.679  -3.397  -7.164  0.00  0.00    -0.024 A 
ATOM     22  C   UNL     1      -3.406  -2.498  -8.132  0.00  0.00    +0.046 C 
ENDBRANCH   8  15
ENDBRANCH   1   8
BRANCH   1  23
ATOM     23  C   UNL     1      -1.305  -1.129   0.112  0.00  0.00    +0.001 C 
BRANCH  23  24
ATOM     24  C   UNL     1       0.042  -0.488   0.331  0.00  0.00    +0.135 A 
ATOM     25  N   UNL     1       0.272   0.766   0.634  0.00  0.00    -0.115 NA
ATOM     26  N   UNL     1       1.546   0.923   0.737  0.00  0.00    -0.023 NA
ATOM     27  N   UNL     1       2.136  -0.198   0.506  0.00  0.00    -0.044 NA
ATOM     28  N   UNL     1       1.242  -1.093   0.252  0.00  0.00    -0.228 N 
BRANCH  28  29
ATOM     29  C   UNL     1       1.487  -2.502  -0.064  0.00  0.00    +0.111 C 
ATOM     30  C   UNL     1       2.219  -3.167   1.104  0.00  0.00    +0.027 C 
ATOM     31  C   UNL     1       2.475  -4.639   0.774  0.00  0.00    +0.002 C 
ATOM     32  C   UNL     1       3.334  -4.737  -0.488  0.00  0.00    +0.000 C 
ATOM     33  C   UNL     1       2.601  -4.072  -1.656  0.00  0.00    +0.002 C 
ATOM     34  C   UNL     1       2.345  -2.600  -1.326  0.00  0.00    +0.027 C 
ENDBRANCH  28  29
ENDBRANCH  23  24
ENDBRANCH   1  23
TORSDOF 6
