REMARK  Name = ZINC17183204
REMARK  7 active torsions:
REMARK  status: ('A' for Active; 'I' for Inactive)
REMARK    1  A    between atoms: C_1  and  C_2
REMARK    2  A    between atoms: C_2  and  C_4
REMARK    3  A    between atoms: C_2  and  N_14
REMARK    4  A    between atoms: C_15  and  C_17
REMARK    5  A    between atoms: C_17  and  N_18
REMARK    6  A    between atoms: C_21  and  C_25
REMARK    7  A    between atoms: C_21  and  C_26
REMARK                            x       y       z     vdW  Elec       q    Type
REMARK                         _______ _______ _______ _____ _____    ______ ____
ROOT
ATOM      1  C   UNL     1      -2.482   0.853   0.018  0.00  0.00    +0.213 C 
ENDROOT
BRANCH   1   2
ATOM      2  N   UNL     1      -3.608   1.789   0.029  0.00  0.00    -0.215 N 
ATOM      3  C   UNL     1      -4.196   2.280  -1.081  0.00  0.00    +0.251 C 
ATOM      4  O   UNL     1      -3.902   2.039  -2.232  0.00  0.00    -0.272 OA
ATOM      5  C   UNL     1      -5.299   3.195  -0.590  0.00  0.00    +0.138 C 
ATOM      6  N   UNL     1      -5.196   3.107   0.877  0.00  0.00    -0.281 N 
ATOM      7  C   UNL     1      -4.185   2.260   1.141  0.00  0.00    +0.310 C 
ATOM      8  O   UNL     1      -3.832   1.958   2.264  0.00  0.00    -0.252 OA
ATOM      9  C   UNL     1      -5.057   4.631  -1.060  0.00  0.00    +0.047 C 
ATOM     10  H   UNL     1      -5.751   3.567   1.526  0.00  0.00    +0.152 HD
BRANCH   5  11
ATOM     11  C   UNL     1      -6.644   2.705  -1.060  0.00  0.00    +0.022 A 
ATOM     12  C   UNL     1      -7.618   2.367  -0.139  0.00  0.00    +0.047 A 
ATOM     13  C   UNL     1      -8.853   1.917  -0.571  0.00  0.00    +0.124 A 
ATOM     14  C   UNL     1      -9.114   1.805  -1.927  0.00  0.00    +0.041 A 
ATOM     15  C   UNL     1      -8.141   2.143  -2.848  0.00  0.00    +0.041 A 
ATOM     16  C   UNL     1      -6.906   2.597  -2.415  0.00  0.00    +0.129 A 
ATOM     17  F   UNL     1      -5.956   2.932  -3.316  0.00  0.00    -0.205 F 
ATOM     18  F   UNL     1      -9.805   1.587   0.329  0.00  0.00    -0.205 F 
ENDBRANCH   5  11
ENDBRANCH   1   2
BRANCH   1  20
ATOM     19  N   UNL     1      -0.011   0.966   0.007  0.00  0.00    -0.307 N 
ATOM     20  C   UNL     1      -1.187   1.624   0.017  0.00  0.00    +0.231 C 
ATOM     21  O   UNL     1      -1.204   2.837   0.023  0.00  0.00    -0.274 OA
ATOM     22  H   UNL     1       0.002  -0.004   0.002  0.00  0.00    +0.149 HD
BRANCH  19  24
ATOM     23  C   UNL     1       1.635   2.077   1.435  0.00  0.00    +0.033 C 
ATOM     24  C   UNL     1       1.248   1.716  -0.001  0.00  0.00    +0.100 C 
BRANCH  24  25
ATOM     25  C   UNL     1       2.332   0.870  -0.616  0.00  0.00    -0.027 A 
ATOM     26  C   UNL     1       2.403  -0.482  -0.333  0.00  0.00    +0.006 A 
ATOM     27  C   UNL     1       3.400  -1.249  -0.898  0.00  0.00    +0.004 A 
ATOM     28  C   UNL     1       4.335  -0.675  -1.749  0.00  0.00    -0.044 A 
ATOM     29  C   UNL     1       4.262   0.669  -2.035  0.00  0.00    -0.044 A 
ATOM     30  C   UNL     1       3.255   1.440  -1.468  0.00  0.00    +0.009 A 
ATOM     31  C   UNL     1       5.236   1.356  -2.957  0.00  0.00    +0.035 C 
ATOM     32  C   UNL     1       6.492   0.508  -3.140  0.00  0.00    +0.005 C 
ATOM     33  C   UNL     1       6.064  -0.912  -3.531  0.00  0.00    +0.005 C 
ATOM     34  C   UNL     1       5.406  -1.568  -2.319  0.00  0.00    +0.035 C 
ENDBRANCH  24  25
ENDBRANCH  19  24
ENDBRANCH   1  20
TORSDOF 5
