REMARK  Name = ZINC12372124
REMARK  14 active torsions:
REMARK  status: ('A' for Active; 'I' for Inactive)
REMARK    1  A    between atoms: C_1  and  C_2
REMARK    2  A    between atoms: C_3  and  C_31
REMARK    3  A    between atoms: C_4  and  O_30
REMARK    4  A    between atoms: C_5  and  C_7
REMARK    5  A    between atoms: C_7  and  C_8
REMARK    6  A    between atoms: C_7  and  C_19
REMARK    7  A    between atoms: C_9  and  O_18
REMARK    8  A    between atoms: C_10  and  C_14
REMARK    9  A    between atoms: C_11  and  C_13
REMARK   10  A    between atoms: C_14  and  O_16
REMARK   11  A    between atoms: O_16  and  C_17
REMARK   12  A    between atoms: C_19  and  C_21
REMARK   13  A    between atoms: C_31  and  O_33
REMARK   14  A    between atoms: O_33  and  C_34
REMARK                            x       y       z     vdW  Elec       q    Type
REMARK                         _______ _______ _______ _____ _____    ______ ____
ROOT
ATOM      1  C   UNL     1       1.375   6.658   2.251  0.00  0.00    +0.141 C 
ENDROOT
BRANCH   1   6
ATOM      2  C   UNL     1       5.668   9.989   0.752  0.00  0.00    +0.052 C 
ATOM      3  C   UNL     1       4.672   9.061   1.399  0.00  0.00    +0.005 A 
ATOM      4  C   UNL     1       4.744   8.457   2.639  0.00  0.00    +0.110 A 
ATOM      5  C   UNL     1       3.642   7.605   3.017  0.00  0.00    +0.142 A 
ATOM      6  C   UNL     1       2.636   7.473   2.126  0.00  0.00    +0.048 A 
ATOM      7  S   UNL     1       3.166   8.489   0.763  0.00  0.00    -0.093 S 
BRANCH   5   8
ATOM      8  O   UNL     1       3.618   6.963   4.218  0.00  0.00    -0.505 OA
ATOM      9  H   UNL     1       4.022   6.085   4.203  0.00  0.00    +0.292 HD
ENDBRANCH   5   8
BRANCH   4  10
ATOM     10  C   UNL     1       5.890   8.672   3.532  0.00  0.00    +0.343 C 
ATOM     11  O   UNL     1       6.855   7.934   3.471  0.00  0.00    -0.245 OA
BRANCH  10  12
ATOM     12  O   UNL     1       5.872   9.686   4.420  0.00  0.00    -0.464 OA
ATOM     13  C   UNL     1       7.039   9.839   5.271  0.00  0.00    +0.280 C 
ENDBRANCH  10  12
ENDBRANCH   4  10
ENDBRANCH   1   6
BRANCH   1  14
ATOM     14  C   UNL     1       1.324   5.637   1.143  0.00  0.00    +0.048 A 
ATOM     15  C   UNL     1       1.268   4.292   1.244  0.00  0.00    +0.142 A 
ATOM     16  C   UNL     1       1.232   3.544   0.009  0.00  0.00    +0.110 A 
ATOM     17  C   UNL     1       1.248   4.272  -1.165  0.00  0.00    +0.005 A 
ATOM     18  S   UNL     1       1.317   5.913  -0.616  0.00  0.00    -0.093 S 
ATOM     19  C   UNL     1       1.214   3.761  -2.582  0.00  0.00    +0.052 C 
BRANCH  16  20
ATOM     20  C   UNL     1       1.175   2.076   0.002  0.00  0.00    +0.343 C 
ATOM     21  O   UNL     1       2.204   1.428  -0.011  0.00  0.00    -0.245 OA
BRANCH  20  22
ATOM     22  O   UNL     1      -0.018   1.448   0.010  0.00  0.00    -0.464 OA
ATOM     23  C   UNL     1       0.002  -0.004   0.002  0.00  0.00    +0.280 C 
ENDBRANCH  20  22
ENDBRANCH  16  20
BRANCH  15  24
ATOM     24  O   UNL     1       1.250   3.668   2.454  0.00  0.00    -0.505 OA
ATOM     25  H   UNL     1       2.127   3.455   2.799  0.00  0.00    +0.292 HD
ENDBRANCH  15  24
ENDBRANCH   1  14
BRANCH   1  26
ATOM     26  C   UNL     1       0.177   7.567   2.151  0.00  0.00    +0.176 C 
ATOM     27  O   UNL     1      -0.376   7.727   1.084  0.00  0.00    -0.291 OA
BRANCH  26  28
ATOM     28  C   UNL     1      -0.320   8.261   3.347  0.00  0.00    +0.022 A 
ATOM     29  C   UNL     1       0.314   8.074   4.581  0.00  0.00    +0.015 A 
ATOM     30  C   UNL     1      -0.151   8.729   5.699  0.00  0.00    +0.050 A 
ATOM     31  C   UNL     1      -1.255   9.569   5.610  0.00  0.00    +0.166 A 
ATOM     32  C   UNL     1      -1.896   9.756   4.383  0.00  0.00    +0.167 A 
ATOM     33  C   UNL     1      -1.432   9.107   3.257  0.00  0.00    +0.061 A 
ATOM     34  O   UNL     1      -2.940  10.617   4.564  0.00  0.00    -0.453 OA
ATOM     35  C   UNL     1      -3.181  10.633   5.983  0.00  0.00    +0.466 C 
ATOM     36  O   UNL     1      -1.899  10.313   6.553  0.00  0.00    -0.453 OA
ENDBRANCH  26  28
ENDBRANCH   1  26
TORSDOF 10
