REMARK  Name = ZINC59831543
REMARK  11 active torsions:
REMARK  status: ('A' for Active; 'I' for Inactive)
REMARK    1  A    between atoms: C_1  and  C_2
REMARK    2  A    between atoms: C_3  and  C_11
REMARK    3  A    between atoms: C_4  and  C_10
REMARK    4  A    between atoms: N_5  and  C_7
REMARK    5  A    between atoms: C_7  and  C_8
REMARK    6  A    between atoms: N_12  and  N_13
REMARK    7  A    between atoms: C_16  and  S_19
REMARK    8  A    between atoms: S_19  and  C_20
REMARK    9  A    between atoms: C_20  and  C_21
REMARK   10  A    between atoms: N_23  and  C_24
REMARK   11  A    between atoms: N_23  and  C_30
REMARK                            x       y       z     vdW  Elec       q    Type
REMARK                         _______ _______ _______ _____ _____    ______ ____
ROOT
ATOM      1  N   UNL     1      -0.594   1.345  -4.255  0.00  0.00    -0.205 N 
ATOM      2  C   UNL     1      -0.434   2.694  -4.513  0.00  0.00    +0.232 A 
ATOM      3  N   UNL     1      -0.627   3.674  -3.655  0.00  0.00    -0.186 NA
ATOM      4  C   UNL     1      -0.378   4.847  -4.248  0.00  0.00    +0.211 A 
ATOM      5  N   UNL     1      -0.024   4.628  -5.492  0.00  0.00    -0.144 NA
ATOM      6  N   UNL     1      -0.047   3.238  -5.687  0.00  0.00    -0.245 N 
ATOM      7  H   UNL     1      -0.422   0.695  -4.954  0.00  0.00    +0.177 HD
ATOM      8  H   UNL     1       0.170   2.762  -6.504  0.00  0.00    +0.192 HD
ENDROOT
BRANCH   1  10
ATOM      9  C   UNL     1      -1.152  -0.347  -2.743  0.00  0.00    +0.141 C 
ATOM     10  N   UNL     1      -1.002   0.918  -2.985  0.00  0.00    -0.187 NA
BRANCH   9  13
ATOM     11  C   UNL     1      -1.785   1.533  -0.269  0.00  0.00    +0.068 C 
ATOM     12  C   UNL     1      -1.867   0.028  -0.296  0.00  0.00    +0.069 A 
ATOM     13  C   UNL     1      -1.583  -0.797  -1.405  0.00  0.00    +0.038 A 
ATOM     14  C   UNL     1      -1.782  -2.101  -1.006  0.00  0.00    +0.045 A 
ATOM     15  N   UNL     1      -2.169  -2.073   0.285  0.00  0.00    -0.264 N 
ATOM     16  N   UNL     1      -2.209  -0.738   0.704  0.00  0.00    -0.175 NA
ATOM     17  C   UNL     1      -1.599  -3.332  -1.856  0.00  0.00    +0.066 C 
BRANCH  15  18
ATOM     18  C   UNL     1      -2.489  -3.241   1.110  0.00  0.00    +0.170 C 
BRANCH  18  19
ATOM     19  C   UNL     1      -1.240  -3.723   1.802  0.00  0.00    -0.012 C 
ATOM     20  C   UNL     1      -1.222  -3.851   3.106  0.00  0.00    +0.006 C 
ENDBRANCH  18  19
ENDBRANCH  15  18
ENDBRANCH   9  13
ENDBRANCH   1  10
BRANCH   4  21
ATOM     21  S   UNL     1      -0.507   6.429  -3.484  0.00  0.00    -0.075 S 
BRANCH  21  22
ATOM     22  C   UNL     1      -0.045   7.590  -4.798  0.00  0.00    +0.173 C 
BRANCH  22  23
ATOM     23  C   UNL     1      -0.115   9.000  -4.269  0.00  0.00    +0.226 C 
ATOM     24  O   UNL     1      -0.234   9.196  -3.079  0.00  0.00    -0.275 OA
ATOM     25  N   UNL     1      -0.045  10.043  -5.120  0.00  0.00    -0.295 N 
BRANCH  25  26
ATOM     26  C   UNL     1       0.041  11.409  -4.599  0.00  0.00    +0.076 C 
ATOM     27  C   UNL     1       1.299  11.549  -3.739  0.00  0.00    +0.022 C 
ATOM     28  C   UNL     1       1.389  12.976  -3.195  0.00  0.00    +0.002 C 
ATOM     29  C   UNL     1       0.153  13.276  -2.344  0.00  0.00    +0.000 C 
ATOM     30  C   UNL     1      -1.104  13.136  -3.203  0.00  0.00    +0.002 C 
ATOM     31  C   UNL     1      -1.194  11.709  -3.748  0.00  0.00    +0.022 C 
ENDBRANCH  25  26
BRANCH  25  32
ATOM     32  C   UNL     1      -0.055   9.810  -6.567  0.00  0.00    +0.076 C 
ATOM     33  C   UNL     1      -1.407   9.226  -6.980  0.00  0.00    +0.022 C 
ATOM     34  C   UNL     1      -1.417   8.982  -8.491  0.00  0.00    +0.002 C 
ATOM     35  C   UNL     1      -0.304   7.999  -8.857  0.00  0.00    +0.000 C 
ATOM     36  C   UNL     1       1.049   8.584  -8.443  0.00  0.00    +0.002 C 
ATOM     37  C   UNL     1       1.059   8.827  -6.933  0.00  0.00    +0.022 C 
ENDBRANCH  25  32
ENDBRANCH  22  23
ENDBRANCH  21  22
ENDBRANCH   4  21
TORSDOF 9
