REMARK  Name = ZINC20192073
REMARK  7 active torsions:
REMARK  status: ('A' for Active; 'I' for Inactive)
REMARK    1  A    between atoms: C_1  and  C_2
REMARK    2  A    between atoms: C_2  and  C_3
REMARK    3  A    between atoms: C_6  and  C_9
REMARK    4  A    between atoms: C_15  and  C_33
REMARK    5  A    between atoms: C_16  and  C_25
REMARK    6  A    between atoms: C_28  and  C_31
REMARK    7  A    between atoms: C_31  and  C_32
REMARK                            x       y       z     vdW  Elec       q    Type
REMARK                         _______ _______ _______ _____ _____    ______ ____
ROOT
ATOM      1  C   UNL     1       4.211   2.935  -0.023  0.00  0.00    +0.041 C 
ATOM      2  C   UNL     1       4.425   1.640  -0.366  0.00  0.00    +0.138 A 
ATOM      3  C   UNL     1       5.688   1.037  -0.815  0.00  0.00    +0.363 A 
ATOM      4  O   UNL     1       6.755   1.603  -0.954  0.00  0.00    -0.243 OA
ATOM      5  O   UNL     1       5.433  -0.265  -1.042  0.00  0.00    -0.403 OA
ATOM      6  C   UNL     1       4.133  -0.536  -0.780  0.00  0.00    +0.227 A 
ATOM      7  C   UNL     1       3.473  -1.732  -0.885  0.00  0.00    +0.103 C 
ATOM      8  C   UNL     1       2.003  -1.779  -0.528  0.00  0.00    +0.119 C 
ATOM      9  C   UNL     1       1.368  -0.484  -0.081  0.00  0.00    +0.119 A 
ATOM     10  C   UNL     1       2.134   0.622  -0.024  0.00  0.00    +0.235 A 
ATOM     11  O   UNL     1       1.335   1.629   0.400  0.00  0.00    -0.408 OA
ATOM     12  C   UNL     1       0.104   1.125   0.593  0.00  0.00    +0.287 A 
ATOM     13  N   UNL     1       0.123  -0.153   0.302  0.00  0.00    -0.197 NA
ATOM     14  N   UNL     1      -1.001   1.839   1.021  0.00  0.00    -0.313 N 
ATOM     15  N   UNL     1       3.488   0.594  -0.367  0.00  0.00    -0.241 N 
ATOM     16  H   UNL     1      -1.968   1.330   1.148  0.00  0.00    +0.147 HD
ATOM     17  H   UNL     1      -0.913   2.914   1.235  0.00  0.00    +0.147 HD
ENDROOT
BRANCH   1  21
ATOM     18  C   UNL     1       7.480   5.618   0.280  0.00  0.00    -0.048 A 
ATOM     19  C   UNL     1       7.599   4.330   0.773  0.00  0.00    +0.004 A 
ATOM     20  C   UNL     1       6.541   3.451   0.678  0.00  0.00    +0.008 A 
ATOM     21  C   UNL     1       5.344   3.865   0.082  0.00  0.00    -0.023 A 
ATOM     22  C   UNL     1       5.234   5.167  -0.418  0.00  0.00    +0.008 A 
ATOM     23  C   UNL     1       6.300   6.035  -0.311  0.00  0.00    +0.004 A 
BRANCH  18  25
ATOM     24  C   UNL     1       9.520   6.449  -0.858  0.00  0.00    +0.009 C 
ATOM     25  C   UNL     1       8.642   6.572   0.388  0.00  0.00    +0.032 C 
ENDBRANCH  18  25
ENDBRANCH   1  21
BRANCH   8  26
ATOM     26  C   UNL     1       1.823  -2.791   0.574  0.00  0.00    -0.033 A 
ATOM     27  C   UNL     1       2.357  -2.551   1.826  0.00  0.00    +0.005 A 
ATOM     28  C   UNL     1       2.187  -3.477   2.839  0.00  0.00    +0.004 A 
ATOM     29  C   UNL     1       1.492  -4.647   2.596  0.00  0.00    -0.048 A 
ATOM     30  C   UNL     1       0.962  -4.888   1.343  0.00  0.00    +0.004 A 
ATOM     31  C   UNL     1       1.127  -3.960   0.331  0.00  0.00    +0.005 A 
BRANCH  29  32
ATOM     32  C   UNL     1       1.311  -5.659   3.698  0.00  0.00    +0.032 C 
ATOM     33  C   UNL     1       2.478  -6.649   3.677  0.00  0.00    +0.009 C 
ENDBRANCH  29  32
ENDBRANCH   8  26
BRANCH   7  34
ATOM     34  C   UNL     1       4.160  -2.912  -1.319  0.00  0.00    +0.101 C 
ATOM     35  N   UNL     1       4.704  -3.847  -1.664  0.00  0.00    -0.191 NA
ENDBRANCH   7  34
TORSDOF 5
