REMARK  Name = ZINC39689138
REMARK  5 active torsions:
REMARK  status: ('A' for Active; 'I' for Inactive)
REMARK    1  A    between atoms: C_4  and  C_7
REMARK    2  A    between atoms: C_11  and  C_20
REMARK    3  A    between atoms: N_22  and  C_23
REMARK    4  A    between atoms: C_23  and  C_24
REMARK    5  A    between atoms: N_27  and  C_30
REMARK                            x       y       z     vdW  Elec       q    Type
REMARK                         _______ _______ _______ _____ _____    ______ ____
ROOT
ATOM      1  C   UNL     1       3.693  -0.684  -0.038  0.00  0.00    +0.247 C 
ATOM      2  O   UNL     1       4.732  -0.063  -0.153  0.00  0.00    -0.270 OA
ATOM      3  N   UNL     1       3.719  -2.028   0.057  0.00  0.00    -0.296 N 
ATOM      4  C   UNL     1       2.566  -2.960   0.074  0.00  0.00    +0.121 C 
ATOM      5  C   UNL     1       3.027  -4.167  -0.773  0.00  0.00    +0.100 C 
ATOM      6  C   UNL     1       4.563  -4.130  -0.706  0.00  0.00    -0.004 C 
ATOM      7  C   UNL     1       4.906  -2.910   0.161  0.00  0.00    +0.115 C 
ATOM      8  C   UNL     1       5.149  -3.957  -2.104  0.00  0.00    -0.010 C 
ATOM      9  C   UNL     1       6.678  -3.980  -2.018  0.00  0.00    -0.082 C 
ATOM     10  N   UNL     1       7.118  -5.253  -1.435  0.00  0.00    +0.379 N 
ATOM     11  C   UNL     1       6.627  -5.369  -0.056  0.00  0.00    -0.082 C 
ATOM     12  C   UNL     1       5.096  -5.405  -0.059  0.00  0.00    -0.010 C 
ATOM     13  H   UNL     1       6.755  -6.017  -1.985  0.00  0.00    -0.086 HD
ATOM     14  H   UNL     1       8.126  -5.291  -1.435  0.00  0.00    -0.086 HD
ENDROOT
BRANCH   1  18
ATOM     15  C   UNL     1      -0.017   1.382   0.065  0.00  0.00    +0.000 A 
ATOM     16  C   UNL     1       1.078   1.962  -0.552  0.00  0.00    +0.001 A 
ATOM     17  C   UNL     1       2.285   1.296  -0.589  0.00  0.00    +0.013 A 
ATOM     18  C   UNL     1       2.402   0.035  -0.002  0.00  0.00    +0.037 A 
ATOM     19  C   UNL     1       1.294  -0.544   0.619  0.00  0.00    +0.013 A 
ATOM     20  C   UNL     1       0.092   0.133   0.649  0.00  0.00    +0.001 A 
ENDBRANCH   1  18
BRANCH   5  21
ATOM     21  C   UNL     1       2.505  -5.452  -0.183  0.00  0.00    +0.218 C 
ATOM     22  O   UNL     1       2.237  -5.511   0.998  0.00  0.00    -0.275 OA
ATOM     23  N   UNL     1       2.337  -6.534  -0.968  0.00  0.00    -0.315 N 
ATOM     24  H   UNL     1       2.551  -6.486  -1.913  0.00  0.00    +0.149 HD
BRANCH  23  25
ATOM     25  C   UNL     1       1.829  -7.783  -0.394  0.00  0.00    +0.107 C 
BRANCH  25  26
ATOM     26  C   UNL     1       1.733  -8.846  -1.491  0.00  0.00    +0.003 C 
ATOM     27  C   UNL     1       0.679  -8.426  -2.520  0.00  0.00    -0.014 C 
ATOM     28  C   UNL     1       0.531  -9.529  -3.570  0.00  0.00    -0.078 C 
ATOM     29  N   UNL     1       0.111 -10.776  -2.919  0.00  0.00    +0.382 N 
ATOM     30  C   UNL     1       1.150 -11.223  -1.983  0.00  0.00    -0.078 C 
ATOM     31  C   UNL     1       1.322 -10.185  -0.872  0.00  0.00    -0.014 C 
ATOM     32  H   UNL     1      -0.749 -10.618  -2.415  0.00  0.00    -0.081 HD
BRANCH  29  33
ATOM     33  C   UNL     1      -0.105 -11.811  -3.939  0.00  0.00    -0.069 C 
ATOM     34  C   UNL     1      -1.250 -11.391  -4.883  0.00  0.00    -0.015 C 
ATOM     35  C   UNL     1      -1.993 -12.714  -5.191  0.00  0.00    -0.002 C 
ATOM     36  C   UNL     1      -1.943 -13.458  -3.833  0.00  0.00    -0.002 C 
ATOM     37  C   UNL     1      -0.545 -13.125  -3.271  0.00  0.00    -0.015 C 
ENDBRANCH  29  33
ENDBRANCH  25  26
ENDBRANCH  23  25
ENDBRANCH   5  21
TORSDOF 5
