REMARK  Name = ZINC09793158
REMARK  11 active torsions:
REMARK  status: ('A' for Active; 'I' for Inactive)
REMARK    1  A    between atoms: C_1  and  C_2
REMARK    2  A    between atoms: C_2  and  N_3
REMARK    3  A    between atoms: N_3  and  C_4
REMARK    4  A    between atoms: C_4  and  C_5
REMARK    5  A    between atoms: N_7  and  C_8
REMARK    6  A    between atoms: C_8  and  C_9
REMARK    7  A    between atoms: C_8  and  C_10
REMARK    8  A    between atoms: C_8  and  C_11
REMARK    9  A    between atoms: N_14  and  N_15
REMARK   10  A    between atoms: C_16  and  C_18
REMARK   11  A    between atoms: C_25  and  C_28
REMARK                            x       y       z     vdW  Elec       q    Type
REMARK                         _______ _______ _______ _____ _____    ______ ____
ROOT
ATOM      1  N   UNL     1       4.162   8.173  -1.090  0.00  0.00    -0.276 N 
ATOM      2  C   UNL     1       5.430   7.731  -0.979  0.00  0.00    +0.319 C 
ATOM      3  O   UNL     1       6.357   8.509  -1.100  0.00  0.00    -0.251 OA
ATOM      4  N   UNL     1       5.672   6.428  -0.733  0.00  0.00    -0.218 N 
ATOM      5  H   UNL     1       4.937   5.795  -0.709  0.00  0.00    +0.174 HD
ENDROOT
BRANCH   4   6
ATOM      6  N   UNL     1       6.983   5.988  -0.513  0.00  0.00    -0.229 N 
ATOM      7  C   UNL     1       7.215   4.706  -0.168  0.00  0.00    +0.267 C 
ATOM      8  O   UNL     1       6.285   3.931  -0.047  0.00  0.00    -0.268 OA
ATOM      9  H   UNL     1       7.725   6.606  -0.610  0.00  0.00    +0.173 HD
BRANCH   7  10
ATOM     10  C   UNL     1       8.588   4.246   0.062  0.00  0.00    +0.076 A 
ATOM     11  C   UNL     1       9.037   2.988   0.419  0.00  0.00    +0.024 A 
ATOM     12  C   UNL     1      10.400   2.801   0.579  0.00  0.00    -0.036 A 
ATOM     13  C   UNL     1      11.199   3.889   0.368  0.00  0.00    -0.006 A 
ATOM     14  S   UNL     1      10.115   5.162  -0.045  0.00  0.00    -0.088 S 
ATOM     15  C   UNL     1      12.691   3.948   0.477  0.00  0.00    +0.043 C 
ATOM     16  C   UNL     1      13.172   2.696   1.224  0.00  0.00    +0.009 C 
ATOM     17  C   UNL     1      12.496   1.467   0.611  0.00  0.00    -0.009 C 
ATOM     18  C   UNL     1      11.009   1.457   0.970  0.00  0.00    +0.039 C 
ATOM     19  C   UNL     1      13.157   0.199   1.154  0.00  0.00    +0.008 C 
ENDBRANCH   7  10
ENDBRANCH   4   6
BRANCH   1  21
ATOM     20  C   UNL     1       2.752   7.214   0.664  0.00  0.00    +0.024 C 
ATOM     21  C   UNL     1       3.044   7.260  -0.838  0.00  0.00    +0.106 C 
ENDBRANCH   1  21
BRANCH   1  22
ATOM     22  C   UNL     1       3.900   9.565  -1.462  0.00  0.00    +0.205 C 
BRANCH  22  23
ATOM     23  C   UNL     1       3.802   9.674  -2.962  0.00  0.00    +0.231 C 
ATOM     24  O   UNL     1       3.937   8.685  -3.652  0.00  0.00    -0.274 OA
ATOM     25  N   UNL     1       3.564  10.869  -3.537  0.00  0.00    -0.309 N 
ATOM     26  H   UNL     1       3.456  11.660  -2.986  0.00  0.00    +0.149 HD
BRANCH  25  27
ATOM     27  C   UNL     1       3.469  10.975  -4.995  0.00  0.00    +0.026 C 
ATOM     28  C   UNL     1       2.327  10.090  -5.497  0.00  0.00    +0.031 C 
ATOM     29  C   UNL     1       3.196  12.429  -5.385  0.00  0.00    +0.031 C 
ATOM     30  C   UNL     1       4.785  10.516  -5.627  0.00  0.00    +0.031 C 
ENDBRANCH  25  27
ENDBRANCH  22  23
ENDBRANCH   1  22
TORSDOF 6
