REMARK  Name = ZINC06689824
REMARK  8 active torsions:
REMARK  status: ('A' for Active; 'I' for Inactive)
REMARK    1  A    between atoms: C_2  and  C_3
REMARK    2  A    between atoms: C_3  and  N_4
REMARK    3  A    between atoms: N_4  and  C_5
REMARK    4  A    between atoms: C_5  and  C_6
REMARK    5  A    between atoms: N_10  and  C_11
REMARK    6  A    between atoms: C_11  and  C_12
REMARK    7  A    between atoms: C_17  and  C_18
REMARK    8  A    between atoms: C_22  and  C_24
REMARK                            x       y       z     vdW  Elec       q    Type
REMARK                         _______ _______ _______ _____ _____    ______ ____
ROOT
ATOM      1  C   UNL     1       0.049   4.199   1.364  0.00  0.00    +0.127 A 
ATOM      2  N   UNL     1       1.183   4.362   0.740  0.00  0.00    -0.239 NA
ATOM      3  C   UNL     1       0.965   5.012  -0.412  0.00  0.00    +0.130 A 
ATOM      4  C   UNL     1      -0.355   5.268  -0.503  0.00  0.00    +0.107 A 
ATOM      5  N   UNL     1      -0.936   4.752   0.624  0.00  0.00    -0.329 N 
ENDROOT
BRANCH   1   6
ATOM      6  C   UNL     1      -0.132   3.512   2.694  0.00  0.00    +0.182 C 
BRANCH   6   7
ATOM      7  N   UNL     1      -0.202   2.063   2.489  0.00  0.00    -0.290 N 
ATOM      8  C   UNL     1      -1.400   1.454   2.389  0.00  0.00    +0.219 C 
ATOM      9  O   UNL     1      -2.416   2.115   2.372  0.00  0.00    -0.275 OA
BRANCH   8  10
ATOM     10  C   UNL     1      -1.476  -0.049   2.297  0.00  0.00    +0.075 C 
ATOM     11  C   UNL     1      -1.494  -0.488   0.819  0.00  0.00    +0.013 C 
ATOM     12  C   UNL     1      -2.462  -1.696   0.793  0.00  0.00    +0.001 C 
ATOM     13  C   UNL     1      -3.562  -1.274   1.799  0.00  0.00    +0.001 C 
ATOM     14  C   UNL     1      -2.791  -0.549   2.921  0.00  0.00    +0.013 C 
ENDBRANCH   8  10
BRANCH   7  15
ATOM     15  C   UNL     1       1.031   1.276   2.394  0.00  0.00    +0.135 C 
BRANCH  15  17
ATOM     16  C   UNL     1       1.816   0.226   0.335  0.00  0.00    +0.005 C 
ATOM     17  C   UNL     1       1.556   1.334   0.983  0.00  0.00    -0.016 C 
ENDBRANCH  15  17
ENDBRANCH   7  15
ENDBRANCH   6   7
ENDBRANCH   1   6
BRANCH   5  18
ATOM     18  C   UNL     1      -2.360   4.793   0.964  0.00  0.00    +0.158 C 
BRANCH  18  19
ATOM     19  C   UNL     1      -2.608   5.899   1.957  0.00  0.00    -0.016 A 
ATOM     20  C   UNL     1      -1.578   6.748   2.317  0.00  0.00    +0.006 A 
ATOM     21  C   UNL     1      -1.806   7.763   3.228  0.00  0.00    +0.000 A 
ATOM     22  C   UNL     1      -3.063   7.929   3.779  0.00  0.00    +0.001 A 
ATOM     23  C   UNL     1      -4.093   7.080   3.418  0.00  0.00    +0.013 A 
ATOM     24  C   UNL     1      -3.866   6.068   2.504  0.00  0.00    +0.060 A 
BRANCH  24  25
ATOM     25  C   UNL     1      -4.990   5.146   2.107  0.00  0.00    +0.418 C 
ATOM     26  F   UNL     1      -6.177   5.569   2.715  0.00  0.00    -0.166 F 
ATOM     27  F   UNL     1      -5.144   5.171   0.716  0.00  0.00    -0.166 F 
ATOM     28  F   UNL     1      -4.693   3.843   2.520  0.00  0.00    -0.166 F 
ENDBRANCH  24  25
ENDBRANCH  18  19
ENDBRANCH   5  18
TORSDOF 8
