REMARK  Name = ZINC36635875
REMARK  5 active torsions:
REMARK  status: ('A' for Active; 'I' for Inactive)
REMARK    1  A    between atoms: C_1  and  C_2
REMARK    2  A    between atoms: C_5  and  C_25
REMARK    3  A    between atoms: C_6  and  N_8
REMARK    4  A    between atoms: N_8  and  C_9
REMARK    5  A    between atoms: N_14  and  C_17
REMARK                            x       y       z     vdW  Elec       q    Type
REMARK                         _______ _______ _______ _____ _____    ______ ____
ROOT
ATOM      1  C   UNL     1       0.048  -2.074   3.664  0.00  0.00    +0.166 C 
ATOM      2  C   UNL     1       0.626  -2.955   4.790  0.00  0.00    +0.128 C 
ATOM      3  C   UNL     1      -0.526  -3.089   5.763  0.00  0.00    +0.229 C 
ATOM      4  O   UNL     1      -0.498  -3.711   6.803  0.00  0.00    -0.275 OA
ATOM      5  N   UNL     1      -1.580  -2.411   5.292  0.00  0.00    -0.207 N 
ATOM      6  C   UNL     1      -1.369  -1.798   4.117  0.00  0.00    +0.247 C 
ATOM      7  O   UNL     1      -2.182  -1.132   3.513  0.00  0.00    -0.273 OA
ENDROOT
BRANCH   5   8
ATOM      8  C   UNL     1      -2.805  -2.346   5.972  0.00  0.00    +0.062 A 
ATOM      9  C   UNL     1      -3.041  -1.325   6.883  0.00  0.00    +0.027 A 
ATOM     10  C   UNL     1      -4.248  -1.262   7.552  0.00  0.00    +0.022 A 
ATOM     11  C   UNL     1      -5.223  -2.215   7.314  0.00  0.00    +0.042 A 
ATOM     12  C   UNL     1      -4.992  -3.234   6.407  0.00  0.00    +0.042 A 
ATOM     13  C   UNL     1      -3.787  -3.298   5.731  0.00  0.00    +0.064 A 
ATOM     14 CL   UNL     1      -3.500  -4.572   4.587  0.00  0.00    -0.082 Cl
ATOM     15 CL   UNL     1      -6.739  -2.133   8.156  0.00  0.00    -0.083 Cl
ENDBRANCH   5   8
BRANCH   1  16
ATOM     16  N   UNL     1       0.051  -2.796   2.390  0.00  0.00    -0.332 N 
ATOM     17  H   UNL     1       0.064  -3.766   2.383  0.00  0.00    +0.147 HD
BRANCH  16  23
ATOM     18  C   UNL     1      -0.018   1.503   0.010  0.00  0.00    +0.044 C 
ATOM     19  C   UNL     1       0.002  -0.004   0.002  0.00  0.00    -0.049 A 
ATOM     20  C   UNL     1       0.006  -0.688  -1.200  0.00  0.00    +0.004 A 
ATOM     21  C   UNL     1       0.024  -2.071  -1.212  0.00  0.00    +0.005 A 
ATOM     22  C   UNL     1       0.039  -2.773  -0.023  0.00  0.00    -0.030 A 
ATOM     23  C   UNL     1       0.036  -2.089   1.186  0.00  0.00    +0.031 A 
ATOM     24  C   UNL     1       0.023  -0.700   1.194  0.00  0.00    +0.026 A 
ATOM     25  C   UNL     1       0.059  -4.280  -0.037  0.00  0.00    +0.045 C 
ENDBRANCH  16  23
ENDBRANCH   1  16
TORSDOF 3
