REMARK  Name = ZINC15903489
REMARK  5 active torsions:
REMARK  status: ('A' for Active; 'I' for Inactive)
REMARK    1  A    between atoms: C_4  and  C_7
REMARK    2  A    between atoms: C_7  and  N_8
REMARK    3  A    between atoms: C_17  and  C_19
REMARK    4  A    between atoms: N_21  and  N_22
REMARK    5  A    between atoms: C_23  and  C_25
REMARK                            x       y       z     vdW  Elec       q    Type
REMARK                         _______ _______ _______ _____ _____    ______ ____
ROOT
ATOM      1  N   UNL     1       1.197  -0.630  -0.013  0.00  0.00    -0.224 N 
ATOM      2  C   UNL     1       0.002  -0.004   0.002  0.00  0.00    +0.275 A 
ATOM      3  O   UNL     1      -1.035  -0.641   0.008  0.00  0.00    -0.266 OA
ATOM      4  C   UNL     1      -0.018   1.465   0.010  0.00  0.00    +0.050 A 
ATOM      5  C   UNL     1      -1.196   2.205   0.031  0.00  0.00    +0.014 A 
ATOM      6  C   UNL     1      -1.129   3.582   0.033  0.00  0.00    +0.001 A 
ATOM      7  C   UNL     1       0.098   4.233   0.025  0.00  0.00    +0.001 A 
ATOM      8  C   UNL     1       1.277   3.518   0.009  0.00  0.00    +0.011 A 
ATOM      9  C   UNL     1       1.231   2.128   0.002  0.00  0.00    +0.020 A 
ATOM     10  C   UNL     1       2.442   1.291  -0.014  0.00  0.00    +0.155 A 
ATOM     11  N   UNL     1       2.318  -0.014  -0.020  0.00  0.00    -0.163 NA
ENDROOT
BRANCH  10  12
ATOM     12  C   UNL     1       3.780   1.914  -0.022  0.00  0.00    +0.281 C 
ATOM     13  O   UNL     1       3.888   3.125  -0.017  0.00  0.00    -0.267 OA
ATOM     14  N   UNL     1       4.884   1.140  -0.036  0.00  0.00    -0.229 N 
ATOM     15  H   UNL     1       4.798   0.174  -0.040  0.00  0.00    +0.173 HD
BRANCH  14  16
ATOM     16  N   UNL     1       6.154   1.731  -0.044  0.00  0.00    -0.229 N 
ATOM     17  C   UNL     1       7.257   0.957  -0.058  0.00  0.00    +0.278 C 
ATOM     18  O   UNL     1       7.150  -0.254  -0.063  0.00  0.00    -0.267 OA
ATOM     19  H   UNL     1       6.239   2.697  -0.040  0.00  0.00    +0.173 HD
BRANCH  17  20
ATOM     20  C   UNL     1       8.602   1.582  -0.066  0.00  0.00    +0.127 A 
ATOM     21  C   UNL     1       9.739   0.761  -0.081  0.00  0.00    +0.034 A 
ATOM     22  C   UNL     1      10.982   1.325  -0.088  0.00  0.00    +0.012 A 
ATOM     23  C   UNL     1      11.078   2.729  -0.082  0.00  0.00    +0.000 A 
ATOM     24  C   UNL     1      12.324   3.375  -0.090  0.00  0.00    +0.010 A 
ATOM     25  C   UNL     1      12.377   4.736  -0.084  0.00  0.00    +0.001 A 
ATOM     26  C   UNL     1      11.210   5.498  -0.069  0.00  0.00    +0.002 A 
ATOM     27  C   UNL     1       9.986   4.907  -0.061  0.00  0.00    +0.028 A 
ATOM     28  C   UNL     1       9.888   3.502  -0.067  0.00  0.00    +0.072 A 
ATOM     29  N   UNL     1       8.700   2.897  -0.066  0.00  0.00    -0.242 NA
ENDBRANCH  17  20
ENDBRANCH  14  16
ENDBRANCH  10  12
BRANCH   1  30
ATOM     30  C   UNL     1       1.211  -2.095  -0.021  0.00  0.00    +0.182 C 
BRANCH  30  34
ATOM     31  C   UNL     1       1.187  -3.498  -4.055  0.00  0.00    +0.000 A 
ATOM     32  C   UNL     1       2.388  -3.259  -3.414  0.00  0.00    +0.000 A 
ATOM     33  C   UNL     1       2.396  -2.805  -2.108  0.00  0.00    +0.005 A 
ATOM     34  C   UNL     1       1.203  -2.590  -1.444  0.00  0.00    -0.026 A 
ATOM     35  C   UNL     1       0.002  -2.834  -2.084  0.00  0.00    +0.005 A 
ATOM     36  C   UNL     1      -0.006  -3.283  -3.391  0.00  0.00    +0.000 A 
ENDBRANCH  30  34
ENDBRANCH   1  30
TORSDOF 5
