REMARK  Name = ZINC02768276
REMARK  12 active torsions:
REMARK  status: ('A' for Active; 'I' for Inactive)
REMARK    1  A    between atoms: C_1  and  O_2
REMARK    2  A    between atoms: O_2  and  C_3
REMARK    3  A    between atoms: C_6  and  O_9
REMARK    4  A    between atoms: O_9  and  C_10
REMARK    5  A    between atoms: C_10  and  C_11
REMARK    6  A    between atoms: C_14  and  C_19
REMARK    7  A    between atoms: C_16  and  O_17
REMARK    8  A    between atoms: O_17  and  C_18
REMARK    9  A    between atoms: C_29  and  N_35
REMARK   10  A    between atoms: C_30  and  C_31
REMARK   11  A    between atoms: C_31  and  O_33
REMARK   12  A    between atoms: O_33  and  C_34
REMARK                            x       y       z     vdW  Elec       q    Type
REMARK                         _______ _______ _______ _____ _____    ______ ____
ROOT
ATOM      1  C   UNL     1       0.282   5.107   3.756  0.00  0.00    +0.031 A 
ATOM      2  C   UNL     1       1.402   4.316   3.588  0.00  0.00    +0.011 A 
ATOM      3  C   UNL     1       1.687   3.775   2.348  0.00  0.00    +0.005 A 
ATOM      4  C   UNL     1       0.853   4.024   1.274  0.00  0.00    -0.032 A 
ATOM      5  C   UNL     1      -0.266   4.818   1.436  0.00  0.00    +0.050 A 
ATOM      6  C   UNL     1      -0.557   5.357   2.681  0.00  0.00    +0.127 A 
ENDROOT
BRANCH   4   7
ATOM      7  C   UNL     1       1.167   3.433  -0.077  0.00  0.00    +0.098 C 
ATOM      8  C   UNL     1       2.510   3.942  -0.542  0.00  0.00    +0.045 C 
ATOM      9  C   UNL     1       3.605   3.165  -0.454  0.00  0.00    +0.115 C 
ATOM     10  C   UNL     1       4.947   3.668  -0.932  0.00  0.00    +0.075 C 
ATOM     11  C   UNL     1       5.027   5.184  -0.741  0.00  0.00    +0.016 C 
ATOM     12  C   UNL     1       3.885   5.833  -1.529  0.00  0.00    +0.080 C 
ATOM     13  C   UNL     1       2.579   5.248  -1.066  0.00  0.00    +0.163 C 
ATOM     14  O   UNL     1       1.566   5.913  -1.145  0.00  0.00    -0.292 OA
ATOM     15  O   UNL     1       3.544   1.923   0.062  0.00  0.00    -0.446 OA
ATOM     16  C   UNL     1       2.373   1.269   0.095  0.00  0.00    +0.195 C 
ATOM     17  C   UNL     1       1.191   1.934   0.028  0.00  0.00    +0.105 C 
BRANCH  16  18
ATOM     18  N   UNL     1       2.370  -0.097   0.191  0.00  0.00    -0.329 N 
ATOM     19  H   UNL     1       1.536  -0.586   0.119  0.00  0.00    +0.145 HD
ATOM     20  H   UNL     1       3.203  -0.575   0.331  0.00  0.00    +0.145 HD
ENDBRANCH  16  18
BRANCH  17  21
ATOM     21  C   UNL     1      -0.016   1.218   0.063  0.00  0.00    +0.341 C 
ATOM     22  O   UNL     1      -0.635   1.017  -0.966  0.00  0.00    -0.245 OA
BRANCH  21  23
ATOM     23  O   UNL     1      -0.493   0.755   1.239  0.00  0.00    -0.465 OA
ATOM     24  C   UNL     1      -1.729   0.040   1.202  0.00  0.00    +0.280 C 
ENDBRANCH  21  23
ENDBRANCH  17  21
ENDBRANCH   4   7
BRANCH   6  25
ATOM     25  O   UNL     1      -1.660   6.135   2.844  0.00  0.00    -0.495 OA
ATOM     26  C   UNL     1      -2.478   6.351   1.693  0.00  0.00    +0.277 C 
ENDBRANCH   6  25
BRANCH   1  27
ATOM     27  C   UNL     1      -0.029   5.696   5.108  0.00  0.00    +0.268 C 
BRANCH  27  28
ATOM     28  O   UNL     1       0.975   5.296   6.044  0.00  0.00    -0.487 OA
BRANCH  28  32
ATOM     29  C   UNL     1       0.574   6.662   9.919  0.00  0.00    +0.120 A 
ATOM     30  C   UNL     1       1.647   5.853   9.576  0.00  0.00    +0.049 A 
ATOM     31  C   UNL     1       1.781   5.396   8.280  0.00  0.00    +0.049 A 
ATOM     32  C   UNL     1       0.843   5.746   7.320  0.00  0.00    +0.121 A 
ATOM     33  C   UNL     1      -0.228   6.560   7.662  0.00  0.00    +0.049 A 
ATOM     34  C   UNL     1      -0.364   7.013   8.960  0.00  0.00    +0.049 A 
BRANCH  29  36
ATOM     35  C   UNL     1      -0.686   7.941  11.477  0.00  0.00    +0.277 C 
ATOM     36  O   UNL     1       0.442   7.112  11.195  0.00  0.00    -0.495 OA
ENDBRANCH  29  36
ENDBRANCH  28  32
ENDBRANCH  27  28
ENDBRANCH   1  27
TORSDOF 9
