REMARK  Name = ZINC16537969
REMARK  10 active torsions:
REMARK  status: ('A' for Active; 'I' for Inactive)
REMARK    1  A    between atoms: C_1  and  C_2
REMARK    2  A    between atoms: C_2  and  C_3
REMARK    3  A    between atoms: C_2  and  C_4
REMARK    4  A    between atoms: C_2  and  C_5
REMARK    5  A    between atoms: C_7  and  N_10
REMARK    6  A    between atoms: C_11  and  C_13
REMARK    7  A    between atoms: C_13  and  O_14
REMARK    8  A    between atoms: O_14  and  C_15
REMARK    9  A    between atoms: C_15  and  C_17
REMARK   10  A    between atoms: C_18  and  C_22
REMARK                            x       y       z     vdW  Elec       q    Type
REMARK                         _______ _______ _______ _____ _____    ______ ____
ROOT
ATOM      1  C   UNL     1       3.836  -3.111  -0.053  0.00  0.00    +0.328 C 
ENDROOT
BRANCH   1   3
ATOM      2  N   UNL     1       1.890  -1.584  -0.025  0.00  0.00    -0.251 N 
ATOM      3  C   UNL     1       3.229  -1.731  -0.039  0.00  0.00    +0.257 C 
ATOM      4  O   UNL     1       3.947  -0.753  -0.040  0.00  0.00    -0.272 OA
ATOM      5  H   UNL     1       1.316  -2.366  -0.025  0.00  0.00    +0.158 HD
BRANCH   2   8
ATOM      6  C   UNL     1      -0.017   1.405   0.010  0.00  0.00    +0.091 A 
ATOM      7  C   UNL     1       0.002  -0.004   0.002  0.00  0.00    +0.092 A 
ATOM      8  C   UNL     1       1.331  -0.314  -0.012  0.00  0.00    +0.224 A 
ATOM      9  O   UNL     1       1.990   0.855  -0.012  0.00  0.00    -0.339 OA
ATOM     10  N   UNL     1       1.227   1.793   0.000  0.00  0.00    -0.081 NA
BRANCH   6  12
ATOM     11  C   UNL     1      -1.862   2.280   1.417  0.00  0.00    +0.017 C 
ATOM     12  C   UNL     1      -1.237   2.290   0.021  0.00  0.00    +0.008 C 
ATOM     13  C   UNL     1      -0.834   3.719  -0.347  0.00  0.00    +0.017 C 
ATOM     14  C   UNL     1      -2.254   1.769  -0.997  0.00  0.00    +0.017 C 
ENDBRANCH   6  12
ENDBRANCH   2   8
ENDBRANCH   1   3
BRANCH   1  15
ATOM     15  O   UNL     1       5.261  -3.004  -0.065  0.00  0.00    -0.450 OA
BRANCH  15  16
ATOM     16  C   UNL     1       5.962  -4.158  -0.079  0.00  0.00    +0.376 C 
ATOM     17  O   UNL     1       5.377  -5.225  -0.080  0.00  0.00    -0.241 OA
BRANCH  16  18
ATOM     18  C   UNL     1       7.422  -4.126  -0.092  0.00  0.00    +0.219 A 
ATOM     19  C   UNL     1       8.267  -5.228  -0.101  0.00  0.00    +0.034 A 
ATOM     20  C   UNL     1       9.585  -4.715  -0.117  0.00  0.00    +0.050 A 
ATOM     21  C   UNL     1       9.487  -3.370  -0.107  0.00  0.00    +0.196 A 
ATOM     22  O   UNL     1       8.195  -3.019  -0.093  0.00  0.00    -0.456 OA
BRANCH  19  23
ATOM     23  C   UNL     1       7.868  -6.655  -0.099  0.00  0.00    -0.014 A 
ATOM     24  C   UNL     1       6.946  -7.122   0.838  0.00  0.00    +0.008 A 
ATOM     25  C   UNL     1       6.573  -8.450   0.831  0.00  0.00    +0.001 A 
ATOM     26  C   UNL     1       7.122  -9.321  -0.094  0.00  0.00    +0.000 A 
ATOM     27  C   UNL     1       8.041  -8.865  -1.021  0.00  0.00    +0.001 A 
ATOM     28  C   UNL     1       8.417  -7.537  -1.029  0.00  0.00    +0.008 A 
ENDBRANCH  19  23
ENDBRANCH  16  18
ENDBRANCH  15  16
ENDBRANCH   1  15
TORSDOF 7
