REMARK  Name = ZINC39657731
REMARK  8 active torsions:
REMARK  status: ('A' for Active; 'I' for Inactive)
REMARK    1  A    between atoms: C_4  and  S_30
REMARK    2  A    between atoms: C_5  and  C_7
REMARK    3  A    between atoms: C_7  and  N_8
REMARK    4  A    between atoms: C_9  and  C_11
REMARK    5  A    between atoms: C_22  and  C_24
REMARK    6  A    between atoms: S_30  and  C_31
REMARK    7  A    between atoms: C_36  and  C_37
REMARK    8  A    between atoms: C_37  and  O_38
REMARK                            x       y       z     vdW  Elec       q    Type
REMARK                         _______ _______ _______ _____ _____    ______ ____
ROOT
ATOM      1  N   UNL     1       0.280  -3.945   1.230  0.00  0.00    -0.311 N 
ATOM      2  C   UNL     1       1.593  -3.985   1.530  0.00  0.00    +0.218 C 
ATOM      3  O   UNL     1       2.418  -3.726   0.679  0.00  0.00    -0.275 OA
ATOM      4  H   UNL     1      -0.380  -4.152   1.911  0.00  0.00    +0.149 HD
ENDROOT
BRANCH   2   5
ATOM      5  C   UNL     1       2.037  -4.352   2.922  0.00  0.00    +0.100 C 
ATOM      6  C   UNL     1       3.369  -3.647   3.266  0.00  0.00    +0.121 C 
ATOM      7  N   UNL     1       4.127  -4.643   4.058  0.00  0.00    -0.295 N 
ATOM      8  C   UNL     1       3.844  -5.937   3.392  0.00  0.00    +0.115 C 
ATOM      9  C   UNL     1       2.353  -5.855   3.006  0.00  0.00    -0.004 C 
ATOM     10  C   UNL     1       2.122  -6.519   1.652  0.00  0.00    -0.010 C 
ATOM     11  C   UNL     1       2.387  -8.022   1.774  0.00  0.00    -0.082 C 
ATOM     12  N   UNL     1       1.490  -8.598   2.783  0.00  0.00    +0.379 N 
ATOM     13  C   UNL     1       1.782  -8.020   4.101  0.00  0.00    -0.082 C 
ATOM     14  C   UNL     1       1.493  -6.517   4.077  0.00  0.00    -0.010 C 
ATOM     15  C   UNL     1       4.899  -4.423   5.141  0.00  0.00    +0.265 C 
ATOM     16  O   UNL     1       5.526  -5.339   5.636  0.00  0.00    -0.268 OA
ATOM     17  H   UNL     1       0.533  -8.398   2.535  0.00  0.00    -0.086 HD
ATOM     18  H   UNL     1       1.623  -9.598   2.819  0.00  0.00    -0.086 HD
BRANCH  15  19
ATOM     19  C   UNL     1       4.983  -3.065   5.727  0.00  0.00    +0.126 A 
ATOM     20  C   UNL     1       5.683  -2.868   6.915  0.00  0.00    +0.033 A 
ATOM     21  C   UNL     1       5.753  -1.592   7.452  0.00  0.00    +0.004 A 
ATOM     22  C   UNL     1       5.121  -0.557   6.780  0.00  0.00    +0.020 A 
ATOM     23  C   UNL     1       4.443  -0.826   5.602  0.00  0.00    +0.111 A 
ATOM     24  N   UNL     1       4.397  -2.046   5.112  0.00  0.00    -0.250 NA
ENDBRANCH  15  19
ENDBRANCH   2   5
BRANCH   1  25
ATOM     25  C   UNL     1      -0.152  -3.589  -0.124  0.00  0.00    +0.140 C 
BRANCH  25  30
ATOM     26  C   UNL     1      -3.684  -4.737  -0.804  0.00  0.00    +0.000 A 
ATOM     27  C   UNL     1      -4.423  -3.670  -0.326  0.00  0.00    +0.001 A 
ATOM     28  C   UNL     1      -3.784  -2.574   0.218  0.00  0.00    +0.015 A 
ATOM     29  C   UNL     1      -2.397  -2.543   0.286  0.00  0.00    +0.017 A 
ATOM     30  C   UNL     1      -1.657  -3.617  -0.195  0.00  0.00    -0.017 A 
ATOM     31  C   UNL     1      -2.303  -4.710  -0.738  0.00  0.00    +0.006 A 
BRANCH  29  32
ATOM     32  S   UNL     1      -1.577  -1.147   0.980  0.00  0.00    -0.089 S 
BRANCH  32  33
ATOM     33  C   UNL     1      -2.878   0.002   1.288  0.00  0.00    +0.018 A 
ATOM     34  C   UNL     1      -3.350   0.188   2.581  0.00  0.00    +0.015 A 
ATOM     35  C   UNL     1      -4.369   1.089   2.819  0.00  0.00    +0.001 A 
ATOM     36  C   UNL     1      -4.920   1.805   1.771  0.00  0.00    +0.000 A 
ATOM     37  C   UNL     1      -4.452   1.622   0.483  0.00  0.00    +0.007 A 
ATOM     38  C   UNL     1      -3.429   0.727   0.238  0.00  0.00    -0.008 A 
BRANCH  38  39
ATOM     39  C   UNL     1      -2.916   0.532  -1.165  0.00  0.00    +0.192 C 
BRANCH  39  40
ATOM     40  O   UNL     1      -3.637   1.383  -2.058  0.00  0.00    -0.390 OA
ATOM     41  H   UNL     1      -3.358   1.311  -2.982  0.00  0.00    +0.210 HD
ENDBRANCH  39  40
ENDBRANCH  38  39
ENDBRANCH  32  33
ENDBRANCH  29  32
ENDBRANCH  25  30
ENDBRANCH   1  25
TORSDOF 8
