REMARK  Name = ZINC21123419
REMARK  16 active torsions:
REMARK  status: ('A' for Active; 'I' for Inactive)
REMARK    1  A    between atoms: C_1  and  C_2
REMARK    2  A    between atoms: C_2  and  C_3
REMARK    3  A    between atoms: C_3  and  C_4
REMARK    4  A    between atoms: C_4  and  N_5
REMARK    5  A    between atoms: N_5  and  C_6
REMARK    6  A    between atoms: C_7  and  N_19
REMARK    7  A    between atoms: N_8  and  C_15
REMARK    8  A    between atoms: C_15  and  C_16
REMARK    9  A    between atoms: C_16  and  C_17
REMARK   10  A    between atoms: C_16  and  C_18
REMARK   11  A    between atoms: C_20  and  C_22
REMARK   12  A    between atoms: C_22  and  S_23
REMARK   13  A    between atoms: S_23  and  C_24
REMARK   14  A    between atoms: C_27  and  C_30
REMARK   15  A    between atoms: N_28  and  C_29
REMARK   16  A    between atoms: C_35  and  C_36
REMARK                            x       y       z     vdW  Elec       q    Type
REMARK                         _______ _______ _______ _____ _____    ______ ____
ROOT
ATOM      1  N   UNL     1      -5.954   4.274   0.134  0.00  0.00    -0.264 N 
ATOM      2  C   UNL     1      -5.134   3.203   0.151  0.00  0.00    +0.230 C 
ATOM      3  O   UNL     1      -5.598   2.083   0.099  0.00  0.00    -0.274 OA
ENDROOT
BRANCH   1   4
ATOM      4  C   UNL     1      -7.353   4.093   0.163  0.00  0.00    +0.140 A 
ATOM      5  C   UNL     1      -8.006   3.505  -0.901  0.00  0.00    +0.127 A 
ATOM      6  N   UNL     1      -9.370   3.342  -0.845  0.00  0.00    -0.280 N 
ATOM      7  C   UNL     1     -10.060   3.750   0.236  0.00  0.00    +0.331 A 
ATOM      8  O   UNL     1     -11.266   3.597   0.267  0.00  0.00    -0.246 OA
ATOM      9  N   UNL     1      -9.441   4.325   1.282  0.00  0.00    -0.273 N 
ATOM     10  H   UNL     1     -10.025   4.655   2.153  0.00  0.00    +0.173 HD
ATOM     11  C   UNL     1      -8.105   4.503   1.279  0.00  0.00    +0.277 A 
ATOM     12  O   UNL     1      -7.553   5.020   2.235  0.00  0.00    -0.266 OA
BRANCH   5  13
ATOM     13  N   UNL     1      -7.301   3.088  -2.005  0.00  0.00    -0.343 N 
ATOM     14  H   UNL     1      -7.828   2.621  -2.850  0.00  0.00    +0.144 HD
ATOM     15  H   UNL     1      -6.210   3.223  -2.044  0.00  0.00    +0.144 HD
ENDBRANCH   5  13
BRANCH   6  16
ATOM     16  C   UNL     1     -10.076   2.719  -1.967  0.00  0.00    +0.131 C 
BRANCH  16  17
ATOM     17  C   UNL     1     -10.142   1.205  -1.752  0.00  0.00    +0.003 C 
ATOM     18  C   UNL     1     -10.986   0.569  -2.858  0.00  0.00    +0.009 C 
ATOM     19  C   UNL     1      -8.727   0.623  -1.790  0.00  0.00    +0.009 C 
ENDBRANCH  16  17
ENDBRANCH   6  16
ENDBRANCH   1   4
BRANCH   1  20
ATOM     20  C   UNL     1      -5.391   5.626   0.087  0.00  0.00    +0.114 C 
BRANCH  20  21
ATOM     21  C   UNL     1      -5.312   6.094  -1.368  0.00  0.00    +0.019 C 
BRANCH  21  23
ATOM     22  C   UNL     1      -4.645   7.975  -2.872  0.00  0.00    +0.004 C 
ATOM     23  C   UNL     1      -4.724   7.506  -1.417  0.00  0.00    -0.002 C 
ENDBRANCH  21  23
ENDBRANCH  20  21
ENDBRANCH   1  20
BRANCH   2  24
ATOM     24  C   UNL     1      -3.642   3.397   0.234  0.00  0.00    +0.173 C 
BRANCH  24  25
ATOM     25  S   UNL     1      -2.823   1.783   0.238  0.00  0.00    -0.077 S 
BRANCH  25  26
ATOM     26  C   UNL     1      -1.139   2.294   0.339  0.00  0.00    +0.192 A 
ATOM     27  N   UNL     1      -0.703   3.533   0.395  0.00  0.00    -0.122 NA
ATOM     28  N   UNL     1       0.581   3.546   0.456  0.00  0.00    -0.128 NA
ATOM     29  C   UNL     1       1.042   2.317   0.448  0.00  0.00    +0.165 A 
ATOM     30  N   UNL     1      -0.045   1.478   0.377  0.00  0.00    -0.305 N 
ATOM     31  C   UNL     1      -0.033   0.013   0.342  0.00  0.00    +0.153 C 
BRANCH  29  32
ATOM     32  C   UNL     1       2.463   1.912   0.505  0.00  0.00    +0.022 A 
ATOM     33  C   UNL     1       2.873   0.917   1.395  0.00  0.00    +0.012 A 
ATOM     34  C   UNL     1       4.199   0.543   1.443  0.00  0.00    +0.001 A 
ATOM     35  C   UNL     1       5.123   1.151   0.611  0.00  0.00    +0.000 A 
ATOM     36  C   UNL     1       4.724   2.138  -0.273  0.00  0.00    +0.004 A 
ATOM     37  C   UNL     1       3.399   2.518  -0.334  0.00  0.00    -0.040 A 
ATOM     38  C   UNL     1       2.964   3.588  -1.302  0.00  0.00    +0.044 C 
ENDBRANCH  29  32
ENDBRANCH  25  26
ENDBRANCH  24  25
ENDBRANCH   2  24
TORSDOF 11
