REMARK  Name = ZINC04535000
REMARK  7 active torsions:
REMARK  status: ('A' for Active; 'I' for Inactive)
REMARK    1  A    between atoms: C_1  and  C_2
REMARK    2  A    between atoms: C_2  and  C_20
REMARK    3  A    between atoms: N_3  and  N_4
REMARK    4  A    between atoms: C_5  and  C_7
REMARK    5  A    between atoms: C_7  and  C_8
REMARK    6  A    between atoms: C_7  and  C_14
REMARK    7  A    between atoms: C_22  and  N_25
REMARK                            x       y       z     vdW  Elec       q    Type
REMARK                         _______ _______ _______ _____ _____    ______ ____
ROOT
ATOM      1  N   UNL     1       1.197   2.176   0.766  0.00  0.00    -0.206 N 
ATOM      2  C   UNL     1       0.234   1.242   0.632  0.00  0.00    +0.244 C 
ATOM      3  O   UNL     1       0.500   0.074   0.785  0.00  0.00    -0.273 OA
ATOM      4  H   UNL     1       0.984   3.114   0.643  0.00  0.00    +0.177 HD
ENDROOT
BRANCH   1   7
ATOM      5  C   UNL     1       4.772   2.347   1.493  0.00  0.00    +0.068 C 
ATOM      6  C   UNL     1       3.334   2.752   1.301  0.00  0.00    +0.070 C 
ATOM      7  N   UNL     1       2.403   1.821   1.057  0.00  0.00    -0.184 NA
BRANCH   6   8
ATOM      8  C   UNL     1       2.975   4.083   1.377  0.00  0.00    +0.037 A 
ATOM      9  C   UNL     1       3.737   5.283   0.953  0.00  0.00    +0.050 A 
ATOM     10  C   UNL     1       3.131   6.452   1.152  0.00  0.00    +0.134 A 
ATOM     11  C   UNL     1       1.849   6.480   1.732  0.00  0.00    +0.078 A 
ATOM     12  S   UNL     1       1.471   4.811   2.004  0.00  0.00    -0.093 S 
BRANCH  10  13
ATOM     13  N   UNL     1       3.800   7.714   0.765  0.00  0.00    +0.057 N 
ATOM     14  O   UNL     1       5.000   7.683   0.222  0.00  0.00    -0.126 OA
ATOM     15  O   UNL     1       3.197   8.868   0.963  0.00  0.00    -0.126 OA
ENDBRANCH  10  13
ENDBRANCH   6   8
ENDBRANCH   1   7
BRANCH   2  16
ATOM     16  C   UNL     1      -1.173   1.655   0.285  0.00  0.00    +0.136 C 
BRANCH  16  17
ATOM     17  C   UNL     1      -2.047   0.431   0.189  0.00  0.00    -0.031 A 
ATOM     18  C   UNL     1      -2.118  -0.452   1.250  0.00  0.00    +0.005 A 
ATOM     19  C   UNL     1      -2.923  -1.573   1.163  0.00  0.00    +0.000 A 
ATOM     20  C   UNL     1      -3.649  -1.814   0.013  0.00  0.00    +0.000 A 
ATOM     21  C   UNL     1      -3.574  -0.934  -1.050  0.00  0.00    +0.000 A 
ATOM     22  C   UNL     1      -2.773   0.189  -0.962  0.00  0.00    +0.005 A 
ENDBRANCH  16  17
BRANCH  16  23
ATOM     23  C   UNL     1      -1.706   2.570   1.358  0.00  0.00    -0.031 A 
ATOM     24  C   UNL     1      -1.607   2.208   2.688  0.00  0.00    +0.005 A 
ATOM     25  C   UNL     1      -2.092   3.049   3.672  0.00  0.00    +0.000 A 
ATOM     26  C   UNL     1      -2.685   4.249   3.325  0.00  0.00    +0.000 A 
ATOM     27  C   UNL     1      -2.789   4.609   1.994  0.00  0.00    +0.000 A 
ATOM     28  C   UNL     1      -2.300   3.770   1.011  0.00  0.00    +0.005 A 
ENDBRANCH  16  23
ENDBRANCH   2  16
TORSDOF 6
