REMARK  Name = ZINC12635583
REMARK  13 active torsions:
REMARK  status: ('A' for Active; 'I' for Inactive)
REMARK    1  A    between atoms: C_1  and  C_2
REMARK    2  A    between atoms: C_2  and  N_70
REMARK    3  A    between atoms: C_6  and  C_8
REMARK    4  A    between atoms: C_8  and  N_9
REMARK    5  A    between atoms: N_9  and  C_10
REMARK    6  A    between atoms: N_9  and  C_25
REMARK    7  A    between atoms: C_10  and  C_11
REMARK    8  A    between atoms: C_16  and  C_24
REMARK    9  A    between atoms: C_17  and  C_23
REMARK   10  A    between atoms: C_25  and  N_27
REMARK   11  A    between atoms: N_27  and  C_28
REMARK   12  A    between atoms: C_30  and  C_35
REMARK   13  A    between atoms: C_33  and  C_34
REMARK                            x       y       z     vdW  Elec       q    Type
REMARK                         _______ _______ _______ _____ _____    ______ ____
ROOT
ATOM      1  N   UNL     1      -3.192   3.918  -1.521  0.00  0.00    -0.309 N 
ENDROOT
BRANCH   1   2
ATOM      2  C   UNL     1      -3.870   2.960  -2.186  0.00  0.00    +0.137 C 
ATOM      3  S   UNL     1      -4.704   1.744  -1.317  0.00  0.00    -0.018 S 
BRANCH   2   4
ATOM      4  N   UNL     1      -3.890   2.961  -3.533  0.00  0.00    -0.297 N 
ATOM      5  H   UNL     1      -3.355   3.603  -4.026  0.00  0.00    +0.154 HD
BRANCH   4   6
ATOM      6  C   UNL     1      -4.683   2.036  -4.221  0.00  0.00    +0.036 A 
ATOM      7  C   UNL     1      -4.730   0.713  -3.803  0.00  0.00    +0.027 A 
ATOM      8  C   UNL     1      -5.517  -0.197  -4.481  0.00  0.00    -0.049 A 
ATOM      9  C   UNL     1      -6.250   0.207  -5.583  0.00  0.00    +0.004 A 
ATOM     10  C   UNL     1      -6.202   1.523  -6.005  0.00  0.00    +0.005 A 
ATOM     11  C   UNL     1      -5.420   2.439  -5.327  0.00  0.00    -0.029 A 
ATOM     12  C   UNL     1      -5.367   3.872  -5.788  0.00  0.00    +0.045 C 
ATOM     13  C   UNL     1      -5.574  -1.632  -4.025  0.00  0.00    +0.044 C 
ENDBRANCH   4   6
ENDBRANCH   2   4
ENDBRANCH   1   2
BRANCH   1  14
ATOM     14  C   UNL     1      -2.566   5.017  -2.259  0.00  0.00    +0.092 C 
BRANCH  14  18
ATOM     15  C   UNL     1       0.351   3.534  -3.974  0.00  0.00    -0.078 C 
ATOM     16  C   UNL     1       0.511   5.024  -4.344  0.00  0.00    -0.020 C 
ATOM     17  C   UNL     1      -0.443   5.777  -3.394  0.00  0.00    -0.016 C 
ATOM     18  C   UNL     1      -1.098   4.679  -2.530  0.00  0.00    -0.051 C 
ATOM     19  N   UNL     1      -0.971   3.472  -3.354  0.00  0.00    +0.382 N 
ATOM     20  H   UNL     1      -1.698   3.463  -4.079  0.00  0.00    -0.081 HD
BRANCH  19  22
ATOM     21  C   UNL     1      -1.199   1.003  -3.398  0.00  0.00    -0.017 C 
ATOM     22  C   UNL     1      -1.107   2.244  -2.507  0.00  0.00    -0.082 C 
ENDBRANCH  19  22
ENDBRANCH  14  18
ENDBRANCH   1  14
BRANCH   1  23
ATOM     23  C   UNL     1      -3.083   3.859  -0.062  0.00  0.00    +0.147 C 
BRANCH  23  24
ATOM     24  C   UNL     1      -1.787   3.189   0.318  0.00  0.00    +0.035 A 
ATOM     25  C   UNL     1      -1.760   1.854   0.552  0.00  0.00    +0.020 A 
ATOM     26  C   UNL     1      -0.485   1.234   0.919  0.00  0.00    -0.001 A 
ATOM     27  C   UNL     1      -0.395  -0.138   1.173  0.00  0.00    +0.010 A 
ATOM     28  C   UNL     1       0.809  -0.686   1.513  0.00  0.00    +0.004 A 
ATOM     29  C   UNL     1       1.945   0.107   1.609  0.00  0.00    -0.046 A 
ATOM     30  C   UNL     1       1.879   1.462   1.364  0.00  0.00    -0.024 A 
ATOM     31  C   UNL     1       0.663   2.042   1.016  0.00  0.00    +0.052 A 
ATOM     32  N   UNL     1       0.568   3.394   0.765  0.00  0.00    -0.322 N 
ATOM     33  H   UNL     1       1.361   3.950   0.833  0.00  0.00    +0.169 HD
ATOM     34  C   UNL     1      -0.608   3.956   0.435  0.00  0.00    +0.254 A 
ATOM     35  O   UNL     1      -0.656   5.156   0.226  0.00  0.00    -0.268 OA
ATOM     36  C   UNL     1       3.119   2.311   1.471  0.00  0.00    +0.046 C 
ATOM     37  C   UNL     1       3.263  -0.519   1.985  0.00  0.00    +0.044 C 
ENDBRANCH  23  24
ENDBRANCH   1  23
TORSDOF 8
