REMARK  Name = ZINC14309318
REMARK  2 active torsions:
REMARK  status: ('A' for Active; 'I' for Inactive)
REMARK    1  A    between atoms: N_7  and  C_11
REMARK    2  A    between atoms: C_11  and  N_12
REMARK                            x       y       z     vdW  Elec       q    Type
REMARK                         _______ _______ _______ _____ _____    ______ ____
ROOT
ATOM      1  C   UNL     1      -0.017   1.377   0.010  0.00  0.00    +0.002 A 
ATOM      2  C   UNL     1       1.170   2.089   0.002  0.00  0.00    +0.004 A 
ATOM      3  C   UNL     1       2.381   1.425  -0.013  0.00  0.00    +0.048 A 
ATOM      4  C   UNL     1       2.410   0.040  -0.021  0.00  0.00    +0.154 A 
ATOM      5  C   UNL     1       1.214  -0.677  -0.013  0.00  0.00    +0.089 A 
ATOM      6  C   UNL     1       0.002  -0.004   0.002  0.00  0.00    +0.029 A 
ATOM      7  N   UNL     1       1.558  -2.028  -0.024  0.00  0.00    -0.289 N 
ATOM      8  C   UNL     1       2.904  -2.103  -0.037  0.00  0.00    +0.250 A 
ATOM      9  S   UNL     1       3.813  -3.554  -0.054  0.00  0.00    +0.009 S 
ATOM     10  O   UNL     1       3.421  -0.864  -0.035  0.00  0.00    -0.431 OA
ENDROOT
BRANCH   7  11
ATOM     11  C   UNL     1       0.627  -3.159  -0.021  0.00  0.00    +0.213 C 
BRANCH  11  12
ATOM     12  N   UNL     1       0.303  -3.530  -1.405  0.00  0.00    -0.280 NA
ATOM     13  C   UNL     1      -1.017  -4.172  -1.482  0.00  0.00    +0.091 C 
ATOM     14  C   UNL     1      -1.486  -4.164  -2.947  0.00  0.00    +0.058 C 
ATOM     15  C   UNL     1      -0.345  -4.626  -3.793  0.00  0.00    -0.005 A 
ATOM     16  C   UNL     1       0.958  -4.739  -3.411  0.00  0.00    -0.023 A 
ATOM     17  C   UNL     1       1.852  -5.198  -4.375  0.00  0.00    +0.013 A 
ATOM     18  C   UNL     1       1.410  -5.502  -5.618  0.00  0.00    +0.046 A 
ATOM     19  S   UNL     1      -0.337  -5.148  -5.485  0.00  0.00    -0.101 S 
ATOM     20  C   UNL     1       1.359  -4.367  -1.986  0.00  0.00    +0.122 C 
ENDBRANCH  11  12
ENDBRANCH   7  11
TORSDOF 2
