REMARK  Name = ZINC04885826
REMARK  9 active torsions:
REMARK  status: ('A' for Active; 'I' for Inactive)
REMARK    1  A    between atoms: C_1  and  C_2
REMARK    2  A    between atoms: C_3  and  C_28
REMARK    3  A    between atoms: C_11  and  O_14
REMARK    4  A    between atoms: O_14  and  C_15
REMARK    5  A    between atoms: N_19  and  C_20
REMARK    6  A    between atoms: C_24  and  O_26
REMARK    7  A    between atoms: O_26  and  C_27
REMARK    8  A    between atoms: C_28  and  O_30
REMARK    9  A    between atoms: O_30  and  C_31
REMARK                            x       y       z     vdW  Elec       q    Type
REMARK                         _______ _______ _______ _____ _____    ______ ____
ROOT
ATOM      1  C   UNL     1      -2.242  -3.823   0.168  0.00  0.00    +0.080 C 
ATOM      2  C   UNL     1      -1.180  -2.725   0.252  0.00  0.00    +0.196 C 
ATOM      3  C   UNL     1       0.077  -3.171  -0.508  0.00  0.00    +0.185 C 
ATOM      4  C   UNL     1       1.144  -2.096  -0.286  0.00  0.00    +0.125 C 
ATOM      5  C   UNL     1       0.562  -0.753  -0.673  0.00  0.00    +0.019 A 
ATOM      6  C   UNL     1       1.420   0.274  -1.026  0.00  0.00    +0.009 A 
ATOM      7  C   UNL     1       0.917   1.510  -1.384  0.00  0.00    +0.004 A 
ATOM      8  C   UNL     1      -0.449   1.724  -1.391  0.00  0.00    +0.049 A 
ATOM      9  C   UNL     1      -1.312   0.700  -1.043  0.00  0.00    +0.162 A 
ATOM     10  C   UNL     1      -0.805  -0.550  -0.681  0.00  0.00    +0.170 A 
ATOM     11  O   UNL     1      -1.681  -1.535  -0.352  0.00  0.00    -0.463 OA
ATOM     12  N   UNL     1       1.422  -2.042   1.159  0.00  0.00    -0.318 N 
ATOM     13  C   UNL     1       0.419  -2.208   2.037  0.00  0.00    +0.141 C 
ATOM     14  S   UNL     1       0.753  -2.052   3.709  0.00  0.00    -0.018 S 
ATOM     15  N   UNL     1      -0.835  -2.491   1.652  0.00  0.00    -0.243 N 
ATOM     16  H   UNL     1       2.326  -1.888   1.475  0.00  0.00    +0.148 HD
ENDROOT
BRANCH  15  17
ATOM     17  C   UNL     1      -1.841  -2.564   2.620  0.00  0.00    +0.043 A 
ATOM     18  C   UNL     1      -2.044  -3.744   3.325  0.00  0.00    +0.024 A 
ATOM     19  C   UNL     1      -3.038  -3.816   4.281  0.00  0.00    +0.005 A 
ATOM     20  C   UNL     1      -3.833  -2.715   4.540  0.00  0.00    +0.046 A 
ATOM     21  C   UNL     1      -3.635  -1.534   3.839  0.00  0.00    +0.122 A 
ATOM     22  C   UNL     1      -2.635  -1.456   2.882  0.00  0.00    +0.069 A 
BRANCH  21  23
ATOM     23  O   UNL     1      -4.417  -0.452   4.094  0.00  0.00    -0.495 OA
ATOM     24  C   UNL     1      -5.424  -0.602   5.097  0.00  0.00    +0.277 C 
ENDBRANCH  21  23
ENDBRANCH  15  17
BRANCH   9  25
ATOM     25  O   UNL     1      -2.655   0.909  -1.058  0.00  0.00    -0.491 OA
ATOM     26  C   UNL     1      -3.105   2.211  -1.438  0.00  0.00    +0.277 C 
ENDBRANCH   9  25
BRANCH   3  27
ATOM     27  C   UNL     1      -0.226  -3.288  -1.980  0.00  0.00    +0.318 C 
ATOM     28  O   UNL     1      -1.335  -3.040  -2.390  0.00  0.00    -0.250 OA
BRANCH  27  29
ATOM     29  O   UNL     1       0.737  -3.667  -2.835  0.00  0.00    -0.468 OA
ATOM     30  C   UNL     1       0.375  -3.758  -4.238  0.00  0.00    +0.280 C 
ENDBRANCH  27  29
ENDBRANCH   3  27
TORSDOF 5
