REMARK  Name = ZINC66362598
REMARK  8 active torsions:
REMARK  status: ('A' for Active; 'I' for Inactive)
REMARK    1  A    between atoms: C_1  and  C_2
REMARK    2  A    between atoms: C_2  and  C_4
REMARK    3  A    between atoms: C_2  and  C_19
REMARK    4  A    between atoms: C_4  and  C_5
REMARK    5  A    between atoms: C_5  and  C_6
REMARK    6  A    between atoms: N_8  and  C_9
REMARK    7  A    between atoms: C_19  and  C_20
REMARK    8  A    between atoms: N_22  and  C_23
REMARK                            x       y       z     vdW  Elec       q    Type
REMARK                         _______ _______ _______ _____ _____    ______ ____
ROOT
ATOM      1  C   UNL     1       0.990   1.754   0.112  0.00  0.00    +0.008 C 
ATOM      2  C   UNL     1       1.031   0.225   0.102  0.00  0.00    -0.005 C 
ENDROOT
BRANCH   2   3
ATOM      3  C   UNL     1      -0.397  -0.324   0.097  0.00  0.00    +0.013 C 
BRANCH   3   4
ATOM      4  C   UNL     1      -1.091   0.071  -1.208  0.00  0.00    +0.096 C 
BRANCH   4   5
ATOM      5  C   UNL     1      -2.498  -0.469  -1.213  0.00  0.00    +0.217 C 
ATOM      6  O   UNL     1      -2.906  -1.107  -0.266  0.00  0.00    -0.275 OA
ATOM      7  N   UNL     1      -3.303  -0.242  -2.270  0.00  0.00    -0.285 N 
ATOM      8  H   UNL     1      -3.000   0.322  -2.998  0.00  0.00    +0.155 HD
BRANCH   7   9
ATOM      9  C   UNL     1      -4.575  -0.821  -2.316  0.00  0.00    +0.043 A 
ATOM     10  C   UNL     1      -5.306  -0.990  -1.154  0.00  0.00    +0.024 A 
ATOM     11  C   UNL     1      -6.568  -1.564  -1.198  0.00  0.00    +0.004 A 
ATOM     12  C   UNL     1      -7.113  -1.974  -2.395  0.00  0.00    +0.026 A 
ATOM     13  C   UNL     1      -6.398  -1.814  -3.579  0.00  0.00    +0.048 A 
ATOM     14  C   UNL     1      -5.121  -1.228  -3.541  0.00  0.00    +0.021 A 
ATOM     15  C   UNL     1      -4.647  -1.198  -4.926  0.00  0.00    +0.029 A 
ATOM     16  C   UNL     1      -5.616  -1.734  -5.684  0.00  0.00    +0.083 A 
ATOM     17  N   UNL     1      -6.668  -2.115  -4.895  0.00  0.00    -0.361 N 
ATOM     18  H   UNL     1      -7.485  -2.528  -5.216  0.00  0.00    +0.165 HD
ENDBRANCH   7   9
ENDBRANCH   4   5
ENDBRANCH   3   4
ENDBRANCH   2   3
BRANCH   2  19
ATOM     19  C   UNL     1       1.765  -0.274   1.348  0.00  0.00    +0.099 C 
BRANCH  19  20
ATOM     20  C   UNL     1       3.206   0.163   1.292  0.00  0.00    +0.217 C 
ATOM     21  O   UNL     1       3.607   0.811   0.347  0.00  0.00    -0.275 OA
ATOM     22  N   UNL     1       4.049  -0.165   2.290  0.00  0.00    -0.285 N 
ATOM     23  H   UNL     1       3.746  -0.736   3.013  0.00  0.00    +0.155 HD
BRANCH  22  24
ATOM     24  C   UNL     1       5.361   0.319   2.285  0.00  0.00    +0.043 A 
ATOM     25  C   UNL     1       6.037   0.486   1.089  0.00  0.00    +0.024 A 
ATOM     26  C   UNL     1       7.338   0.966   1.082  0.00  0.00    +0.004 A 
ATOM     27  C   UNL     1       7.978   1.284   2.261  0.00  0.00    +0.026 A 
ATOM     28  C   UNL     1       7.319   1.126   3.476  0.00  0.00    +0.048 A 
ATOM     29  C   UNL     1       5.998   0.645   3.490  0.00  0.00    +0.021 A 
ATOM     30  C   UNL     1       5.596   0.601   4.897  0.00  0.00    +0.029 A 
ATOM     31  C   UNL     1       6.640   1.040   5.617  0.00  0.00    +0.083 A 
ATOM     32  N   UNL     1       7.682   1.351   4.785  0.00  0.00    -0.361 N 
ATOM     33  H   UNL     1       8.544   1.689   5.074  0.00  0.00    +0.165 HD
ENDBRANCH  22  24
ENDBRANCH  19  20
ENDBRANCH   2  19
TORSDOF 7
