REMARK  Name = ZINC21203729
REMARK  11 active torsions:
REMARK  status: ('A' for Active; 'I' for Inactive)
REMARK    1  A    between atoms: C_1  and  C_2
REMARK    2  A    between atoms: C_2  and  O_3
REMARK    3  A    between atoms: O_3  and  C_4
REMARK    4  A    between atoms: C_4  and  C_6
REMARK    5  A    between atoms: C_7  and  C_13
REMARK    6  A    between atoms: C_13  and  S_14
REMARK    7  A    between atoms: S_14  and  C_15
REMARK    8  A    between atoms: N_25  and  C_26
REMARK    9  A    between atoms: C_31  and  C_32
REMARK   10  A    between atoms: C_32  and  C_33
REMARK   11  A    between atoms: C_32  and  C_34
REMARK                            x       y       z     vdW  Elec       q    Type
REMARK                         _______ _______ _______ _____ _____    ______ ____
ROOT
ATOM      1  C   UNL     1       6.022  -1.030  -1.758  0.00  0.00    +0.177 A 
ATOM      2  N   UNL     1       6.338  -1.587  -0.615  0.00  0.00    -0.223 NA
ATOM      3  C   UNL     1       7.517  -2.229  -0.442  0.00  0.00    +0.079 A 
ATOM      4  C   UNL     1       7.854  -2.828   0.775  0.00  0.00    +0.028 A 
ATOM      5  C   UNL     1       9.058  -3.461   0.907  0.00  0.00    +0.002 A 
ATOM      6  C   UNL     1       9.954  -3.519  -0.152  0.00  0.00    +0.001 A 
ATOM      7  C   UNL     1       9.653  -2.943  -1.356  0.00  0.00    +0.015 A 
ATOM      8  C   UNL     1       8.432  -2.291  -1.518  0.00  0.00    +0.065 A 
ATOM      9  C   UNL     1       8.055  -1.654  -2.787  0.00  0.00    +0.267 A 
ATOM     10  O   UNL     1       8.801  -1.673  -3.749  0.00  0.00    -0.267 OA
ATOM     11  N   UNL     1       6.849  -1.044  -2.848  0.00  0.00    -0.255 N 
ENDROOT
BRANCH  11  12
ATOM     12  C   UNL     1       6.444  -0.422  -4.035  0.00  0.00    +0.055 A 
ATOM     13  C   UNL     1       6.739   0.917  -4.255  0.00  0.00    +0.026 A 
ATOM     14  C   UNL     1       6.343   1.526  -5.430  0.00  0.00    +0.002 A 
ATOM     15  C   UNL     1       5.643   0.807  -6.381  0.00  0.00    +0.000 A 
ATOM     16  C   UNL     1       5.343  -0.524  -6.163  0.00  0.00    +0.006 A 
ATOM     17  C   UNL     1       5.741  -1.141  -4.993  0.00  0.00    -0.021 A 
BRANCH  17  18
ATOM     18  C   UNL     1       5.412  -2.592  -4.755  0.00  0.00    +0.015 C 
ATOM     19  C   UNL     1       3.894  -2.781  -4.774  0.00  0.00    +0.012 C 
ATOM     20  C   UNL     1       6.046  -3.445  -5.856  0.00  0.00    +0.012 C 
ENDBRANCH  17  18
ENDBRANCH  11  12
BRANCH   1  21
ATOM     21  S   UNL     1       4.463  -0.221  -1.896  0.00  0.00    -0.081 S 
BRANCH  21  22
ATOM     22  C   UNL     1       3.815  -0.501  -0.230  0.00  0.00    +0.128 C 
BRANCH  22  24
ATOM     23  C   UNL     1       1.354  -0.668  -0.125  0.00  0.00    +0.071 C 
ATOM     24  C   UNL     1       2.449   0.123  -0.111  0.00  0.00    +0.034 C 
ATOM     25  N   UNL     1       2.337   1.479   0.010  0.00  0.00    -0.272 N 
ATOM     26  C   UNL     1       1.167   2.121   0.120  0.00  0.00    +0.304 C 
ATOM     27  O   UNL     1       1.169   3.332   0.223  0.00  0.00    -0.253 OA
ATOM     28  N   UNL     1      -0.012   1.468   0.122  0.00  0.00    -0.295 N 
ATOM     29  C   UNL     1      -0.001   0.001  -0.003  0.00  0.00    +0.150 C 
ATOM     30  H   UNL     1       3.241   2.106   0.020  0.00  0.00    +0.156 HD
ATOM     31  H   UNL     1      -0.968   2.005   0.213  0.00  0.00    +0.151 HD
BRANCH  23  32
ATOM     32  C   UNL     1       1.468  -2.072  -0.250  0.00  0.00    +0.338 C 
ATOM     33  O   UNL     1       1.276  -2.605  -1.327  0.00  0.00    -0.245 OA
BRANCH  32  34
ATOM     34  O   UNL     1       1.790  -2.821   0.825  0.00  0.00    -0.462 OA
BRANCH  34  36
ATOM     35  C   UNL     1       2.259  -4.909   1.948  0.00  0.00    +0.048 C 
ATOM     36  C   UNL     1       1.888  -4.233   0.627  0.00  0.00    +0.229 C 
ENDBRANCH  34  36
ENDBRANCH  32  34
ENDBRANCH  23  32
ENDBRANCH  22  24
ENDBRANCH  21  22
ENDBRANCH   1  21
TORSDOF 8
