REMARK  Name = ZINC23748905
REMARK  6 active torsions:
REMARK  status: ('A' for Active; 'I' for Inactive)
REMARK    1  A    between atoms: C_1  and  C_2
REMARK    2  A    between atoms: C_7  and  C_8
REMARK    3  A    between atoms: C_8  and  C_10
REMARK    4  A    between atoms: C_8  and  N_20
REMARK    5  A    between atoms: C_16  and  C_18
REMARK    6  A    between atoms: C_23  and  C_26
REMARK                            x       y       z     vdW  Elec       q    Type
REMARK                         _______ _______ _______ _____ _____    ______ ____
ROOT
ATOM      1  C   UNL     1       5.247   2.833  -0.034  0.00  0.00    +0.006 C 
ENDROOT
BRANCH   1   2
ATOM      2  C   UNL     1       3.794   2.579   0.275  0.00  0.00    +0.050 A 
ATOM      3  C   UNL     1       3.212   1.471   0.751  0.00  0.00    +0.282 A 
ATOM      4  N   UNL     1       1.856   1.431   0.970  0.00  0.00    -0.170 N 
ATOM      5  C   UNL     1       1.145   2.556   0.683  0.00  0.00    +0.199 A 
ATOM      6  S   UNL     1       2.395   3.676   0.102  0.00  0.00    -0.050 S 
ATOM      7  N   UNL     1      -0.118   2.354   0.944  0.00  0.00    -0.205 NA
ATOM      8  C   UNL     1      -0.280   1.115   1.403  0.00  0.00    +0.150 A 
ATOM      9  N   UNL     1       0.879   0.514   1.438  0.00  0.00    -0.147 NA
ATOM     10  C   UNL     1      -1.593   0.501   1.815  0.00  0.00    +0.090 C 
ATOM     11  O   UNL     1       3.971   0.375   1.020  0.00  0.00    -0.265 OA
ENDBRANCH   1   2
BRANCH   1  12
ATOM     12  N   UNL     1       5.698   4.030   0.687  0.00  0.00    +0.387 N 
ATOM     13  C   UNL     1       5.354   3.948   2.112  0.00  0.00    -0.077 C 
ATOM     14  C   UNL     1       5.706   5.268   2.801  0.00  0.00    -0.015 C 
ATOM     15  C   UNL     1       7.203   5.542   2.634  0.00  0.00    -0.018 C 
ATOM     16  C   UNL     1       7.544   5.575   1.141  0.00  0.00    -0.015 C 
ATOM     17  C   UNL     1       7.138   4.245   0.501  0.00  0.00    -0.077 C 
ATOM     18  C   UNL     1       7.551   6.890   3.268  0.00  0.00    +0.007 C 
ATOM     19  H   UNL     1       5.172   4.899   0.265  0.00  0.00    -0.080 HD
ENDBRANCH   1  12
BRANCH   1  26
ATOM     20  C   UNL     1       5.668   0.569  -1.778  0.00  0.00    +0.044 C 
ATOM     21  C   UNL     1       5.617   1.962  -2.351  0.00  0.00    -0.049 A 
ATOM     22  C   UNL     1       5.768   2.157  -3.711  0.00  0.00    +0.003 A 
ATOM     23  C   UNL     1       5.727   3.435  -4.235  0.00  0.00    +0.000 A 
ATOM     24  C   UNL     1       5.530   4.519  -3.400  0.00  0.00    +0.000 A 
ATOM     25  C   UNL     1       5.375   4.324  -2.040  0.00  0.00    +0.002 A 
ATOM     26  C   UNL     1       5.416   3.045  -1.516  0.00  0.00    -0.053 A 
ENDBRANCH   1  26
TORSDOF 3
