REMARK  Name = ZINC42362349
REMARK  7 active torsions:
REMARK  status: ('A' for Active; 'I' for Inactive)
REMARK    1  A    between atoms: C_1  and  N_2
REMARK    2  A    between atoms: N_2  and  C_3
REMARK    3  A    between atoms: N_2  and  C_14
REMARK    4  A    between atoms: C_3  and  C_4
REMARK    5  A    between atoms: C_7  and  C_11
REMARK    6  A    between atoms: C_11  and  N_13
REMARK    7  A    between atoms: C_14  and  C_15
REMARK                            x       y       z     vdW  Elec       q    Type
REMARK                         _______ _______ _______ _____ _____    ______ ____
ROOT
ATOM      1  C   UNL     1      -2.067  -0.116  -1.267  0.00  0.00    -0.029 A 
ATOM      2  C   UNL     1      -2.918   0.975  -1.280  0.00  0.00    +0.005 A 
ATOM      3  C   UNL     1      -3.555   1.343  -2.447  0.00  0.00    +0.010 A 
ATOM      4  C   UNL     1      -3.339   0.614  -3.618  0.00  0.00    +0.006 A 
ATOM      5  C   UNL     1      -2.479  -0.486  -3.600  0.00  0.00    +0.048 A 
ATOM      6  C   UNL     1      -1.844  -0.842  -2.425  0.00  0.00    +0.125 A 
ATOM      7  F   UNL     1      -1.007  -1.903  -2.406  0.00  0.00    -0.205 F 
ENDROOT
BRANCH   4   8
ATOM      8  C   UNL     1      -4.017   1.003  -4.870  0.00  0.00    +0.077 C 
ATOM      9  S   UNL     1      -4.299   2.657  -5.212  0.00  0.00    -0.035 S 
BRANCH   8  10
ATOM     10  N   UNL     1      -4.415   0.057  -5.744  0.00  0.00    -0.352 N 
ATOM     11  H   UNL     1      -4.256  -0.880  -5.550  0.00  0.00    +0.143 HD
ATOM     12  H   UNL     1      -4.861   0.313  -6.566  0.00  0.00    +0.143 HD
ENDBRANCH   8  10
ENDBRANCH   4   8
BRANCH   1  13
ATOM     13  C   UNL     1      -1.376  -0.512   0.012  0.00  0.00    -0.040 C 
BRANCH  13  15
ATOM     14  C   UNL     1      -0.018   1.465   0.010  0.00  0.00    -0.095 C 
ATOM     15  N   UNL     1       0.002  -0.004   0.002  0.00  0.00    +0.383 N 
ATOM     16  H   UNL     1       0.474  -0.330  -0.828  0.00  0.00    -0.081 HD
BRANCH  15  17
ATOM     17  C   UNL     1       0.713  -0.491   1.192  0.00  0.00    -0.042 C 
BRANCH  17  18
ATOM     18  C   UNL     1       2.158  -0.072   1.120  0.00  0.00    -0.056 A 
ATOM     19  C   UNL     1       3.095  -0.886   0.511  0.00  0.00    +0.024 A 
ATOM     20  C   UNL     1       4.388  -0.479   0.463  0.00  0.00    +0.055 A 
ATOM     21  S   UNL     1       4.309   1.098   1.297  0.00  0.00    -0.090 S 
ATOM     22  C   UNL     1       2.559   1.111   1.647  0.00  0.00    +0.048 A 
ATOM     23 BR   UNL     1       5.885  -1.355  -0.289  0.00  0.00    -0.043 Br
ENDBRANCH  17  18
ENDBRANCH  15  17
ENDBRANCH  13  15
ENDBRANCH   1  13
TORSDOF 6
