REMARK  Name = ZINC08264273
REMARK  8 active torsions:
REMARK  status: ('A' for Active; 'I' for Inactive)
REMARK    1  A    between atoms: C_1  and  C_2
REMARK    2  A    between atoms: C_5  and  C_8
REMARK    3  A    between atoms: C_8  and  C_10
REMARK    4  A    between atoms: C_8  and  N_50
REMARK    5  A    between atoms: C_16  and  C_17
REMARK    6  A    between atoms: C_16  and  N_50
REMARK    7  A    between atoms: N_22  and  C_23
REMARK    8  A    between atoms: C_23  and  C_24
REMARK                            x       y       z     vdW  Elec       q    Type
REMARK                         _______ _______ _______ _____ _____    ______ ____
ROOT
ATOM      1  N   UNL     1      -0.716   1.979   1.219  0.00  0.00    +0.392 N 
ATOM      2  H   UNL     1      -1.481   1.332   1.446  0.00  0.00    -0.084 HD
ATOM      3  H   UNL     1      -1.101   2.914   1.042  0.00  0.00    -0.084 HD
ENDROOT
BRANCH   1   4
ATOM      4  C   UNL     1      -0.018   1.503   0.010  0.00  0.00    -0.009 C 
BRANCH   4   9
ATOM      5  C   UNL     1      -2.813   3.417  -4.671  0.00  0.00    +0.044 C 
ATOM      6  C   UNL     1      -2.084   2.917  -3.450  0.00  0.00    -0.050 A 
ATOM      7  C   UNL     1      -0.702   2.902  -3.429  0.00  0.00    +0.003 A 
ATOM      8  C   UNL     1      -0.034   2.444  -2.309  0.00  0.00    +0.002 A 
ATOM      9  C   UNL     1      -0.747   2.002  -1.211  0.00  0.00    -0.057 A 
ATOM     10  C   UNL     1      -2.129   2.013  -1.234  0.00  0.00    +0.002 A 
ATOM     11  C   UNL     1      -2.798   2.475  -2.352  0.00  0.00    +0.003 A 
ENDBRANCH   4   9
BRANCH   4  12
ATOM     12  C   UNL     1       0.002  -0.004   0.002  0.00  0.00    -0.057 A 
ATOM     13  C   UNL     1      -1.107  -0.713   0.424  0.00  0.00    +0.002 A 
ATOM     14  C   UNL     1      -1.090  -2.095   0.412  0.00  0.00    +0.000 A 
ATOM     15  C   UNL     1       0.040  -2.768  -0.012  0.00  0.00    +0.000 A 
ATOM     16  C   UNL     1       1.151  -2.060  -0.429  0.00  0.00    +0.000 A 
ATOM     17  C   UNL     1       1.132  -0.678  -0.422  0.00  0.00    +0.002 A 
ENDBRANCH   4  12
ENDBRANCH   1   4
BRANCH   1  18
ATOM     18  C   UNL     1       0.219   2.046   2.358  0.00  0.00    +0.017 C 
BRANCH  18  19
ATOM     19  C   UNL     1      -0.520   2.534   3.577  0.00  0.00    +0.203 C 
ATOM     20  O   UNL     1      -1.701   2.799   3.504  0.00  0.00    -0.277 OA
ATOM     21  N   UNL     1       0.131   2.677   4.748  0.00  0.00    -0.242 N 
ATOM     22  C   UNL     1      -0.530   3.114   5.838  0.00  0.00    +0.306 C 
ATOM     23  O   UNL     1      -1.714   3.380   5.765  0.00  0.00    -0.252 OA
ATOM     24  N   UNL     1       0.121   3.257   7.009  0.00  0.00    -0.292 N 
ATOM     25  H   UNL     1       1.076   2.466   4.806  0.00  0.00    +0.159 HD
ATOM     26  H   UNL     1       1.066   3.046   7.067  0.00  0.00    +0.151 HD
BRANCH  24  27
ATOM     27  C   UNL     1      -0.598   3.732   8.194  0.00  0.00    +0.180 C 
BRANCH  27  28
ATOM     28  C   UNL     1       0.351   3.803   9.362  0.00  0.00    +0.122 A 
ATOM     29  C   UNL     1       1.094   4.870   9.709  0.00  0.00    +0.046 A 
ATOM     30  C   UNL     1       1.832   4.500  10.857  0.00  0.00    +0.041 A 
ATOM     31  C   UNL     1       1.496   3.229  11.143  0.00  0.00    +0.195 A 
ATOM     32  O   UNL     1       0.595   2.814  10.237  0.00  0.00    -0.466 OA
ENDBRANCH  27  28
ENDBRANCH  24  27
ENDBRANCH  18  19
ENDBRANCH   1  18
TORSDOF 7
