REMARK  Name = ZINC35022404
REMARK  20 active torsions:
REMARK  status: ('A' for Active; 'I' for Inactive)
REMARK    1  A    between atoms: C_1  and  C_2
REMARK    2  A    between atoms: C_2  and  C_3
REMARK    3  A    between atoms: C_3  and  C_4
REMARK    4  A    between atoms: C_4  and  C_5
REMARK    5  A    between atoms: C_5  and  O_6
REMARK    6  A    between atoms: O_6  and  C_7
REMARK    7  A    between atoms: C_10  and  C_13
REMARK    8  A    between atoms: C_15  and  C_16
REMARK    9  A    between atoms: C_16  and  C_17
REMARK   10  A    between atoms: C_20  and  O_24
REMARK   11  A    between atoms: C_21  and  C_23
REMARK   12  A    between atoms: O_24  and  C_25
REMARK   13  A    between atoms: C_25  and  C_26
REMARK   14  A    between atoms: C_26  and  C_27
REMARK   15  A    between atoms: C_26  and  C_28
REMARK   16  A    between atoms: N_34  and  C_35
REMARK   17  A    between atoms: C_35  and  C_36
REMARK   18  A    between atoms: C_36  and  C_37
REMARK   19  A    between atoms: C_37  and  O_38
REMARK   20  A    between atoms: O_38  and  C_39
REMARK                            x       y       z     vdW  Elec       q    Type
REMARK                         _______ _______ _______ _____ _____    ______ ____
ROOT
ATOM      1  C   UNL     1       4.095  -6.507   6.746  0.00  0.00    +0.145 C 
ATOM      2  C   UNL     1       5.425  -7.082   6.318  0.00  0.00    +0.076 C 
ATOM      3  C   UNL     1       5.361  -8.416   6.532  0.00  0.00    +0.249 C 
ATOM      4  O   UNL     1       6.353  -9.300   6.277  0.00  0.00    -0.282 OA
ATOM      5  C   UNL     1       4.034  -8.755   7.088  0.00  0.00    +0.288 C 
ATOM      6  O   UNL     1       3.669  -9.875   7.388  0.00  0.00    -0.266 OA
ATOM      7  N   UNL     1       3.291  -7.641   7.215  0.00  0.00    -0.283 N 
ENDROOT
BRANCH   1  11
ATOM      8  C   UNL     1       2.175  -4.616   3.429  0.00  0.00    +0.121 A 
ATOM      9  C   UNL     1       2.690  -3.849   4.464  0.00  0.00    +0.046 A 
ATOM     10  C   UNL     1       3.310  -4.462   5.535  0.00  0.00    +0.009 A 
ATOM     11  C   UNL     1       3.418  -5.840   5.577  0.00  0.00    -0.022 A 
ATOM     12  C   UNL     1       2.906  -6.607   4.546  0.00  0.00    +0.009 A 
ATOM     13  C   UNL     1       2.280  -5.999   3.476  0.00  0.00    +0.046 A 
BRANCH   8  14
ATOM     14  O   UNL     1       1.565  -4.015   2.374  0.00  0.00    -0.492 OA
BRANCH  14  15
ATOM     15  C   UNL     1       1.493  -2.588   2.393  0.00  0.00    +0.229 C 
BRANCH  15  16
ATOM     16  C   UNL     1       0.777  -2.096   1.134  0.00  0.00    +0.041 C 
BRANCH  16  17
ATOM     17  C   UNL     1       0.701  -0.569   1.154  0.00  0.00    +0.003 C 
BRANCH  17  19
ATOM     18  C   UNL     1      -0.092   1.451  -0.086  0.00  0.00    +0.004 C 
ATOM     19  C   UNL     1      -0.015  -0.077  -0.106  0.00  0.00    -0.003 C 
ENDBRANCH  17  19
ENDBRANCH  16  17
ENDBRANCH  15  16
ENDBRANCH  14  15
ENDBRANCH   8  14
ENDBRANCH   1  11
BRANCH   2  20
ATOM     20  C   UNL     1       6.566  -6.337   5.775  0.00  0.00    +0.195 C 
ATOM     21  O   UNL     1       6.924  -6.524   4.627  0.00  0.00    -0.287 OA
BRANCH  20  22
ATOM     22  C   UNL     1       7.279  -5.361   6.621  0.00  0.00    +0.023 A 
ATOM     23  C   UNL     1       6.949  -5.231   7.974  0.00  0.00    +0.015 A 
ATOM     24  C   UNL     1       7.618  -4.320   8.759  0.00  0.00    +0.046 A 
ATOM     25  C   UNL     1       8.620  -3.528   8.210  0.00  0.00    +0.123 A 
ATOM     26  C   UNL     1       8.951  -3.653   6.865  0.00  0.00    -0.008 A 
ATOM     27  C   UNL     1       8.292  -4.566   6.074  0.00  0.00    +0.018 A 
ATOM     28  C   UNL     1      10.038  -2.792   6.274  0.00  0.00    +0.047 C 
BRANCH  25  29
ATOM     29  O   UNL     1       9.277  -2.631   8.987  0.00  0.00    -0.491 OA
BRANCH  29  30
ATOM     30  C   UNL     1       8.886  -2.554  10.360  0.00  0.00    +0.232 C 
BRANCH  30  31
ATOM     31  C   UNL     1       9.731  -1.495  11.072  0.00  0.00    +0.020 C 
ATOM     32  C   UNL     1       9.230  -1.324  12.507  0.00  0.00    +0.010 C 
ATOM     33  C   UNL     1      11.195  -1.940  11.092  0.00  0.00    +0.010 C 
ENDBRANCH  30  31
ENDBRANCH  29  30
ENDBRANCH  25  29
ENDBRANCH  20  22
ENDBRANCH   2  20
BRANCH   7  34
ATOM     34  C   UNL     1       1.921  -7.572   7.731  0.00  0.00    +0.111 C 
BRANCH  34  35
ATOM     35  C   UNL     1       0.932  -7.737   6.575  0.00  0.00    +0.047 C 
BRANCH  35  36
ATOM     36  C   UNL     1      -0.498  -7.666   7.114  0.00  0.00    +0.161 C 
BRANCH  36  37
ATOM     37  O   UNL     1      -1.422  -7.820   6.035  0.00  0.00    -0.383 OA
ATOM     38  C   UNL     1      -2.793  -7.768   6.431  0.00  0.00    +0.193 C 
ENDBRANCH  36  37
ENDBRANCH  35  36
ENDBRANCH  34  35
ENDBRANCH   7  34
TORSDOF 15
