REMARK  Name = ZINC16637533
REMARK  7 active torsions:
REMARK  status: ('A' for Active; 'I' for Inactive)
REMARK    1  A    between atoms: C_1  and  C_2
REMARK    2  A    between atoms: C_2  and  C_3
REMARK    3  A    between atoms: C_3  and  C_4
REMARK    4  A    between atoms: C_7  and  C_9
REMARK    5  A    between atoms: C_7  and  O_13
REMARK    6  A    between atoms: C_14  and  C_16
REMARK    7  A    between atoms: C_19  and  N_22
REMARK                            x       y       z     vdW  Elec       q    Type
REMARK                         _______ _______ _______ _____ _____    ______ ____
ROOT
ATOM      1  C   UNL     1      -0.784   1.582   1.207  0.00  0.00    +0.042 C 
ATOM      2  N   UNL     1      -1.785   2.265   0.818  0.00  0.00    -0.183 NA
ATOM      3  N   UNL     1      -1.921   2.357  -0.565  0.00  0.00    -0.148 N 
ATOM      4  C   UNL     1      -0.825   1.605  -1.198  0.00  0.00    +0.257 C 
ATOM      5  C   UNL     1      -0.029   1.060   0.006  0.00  0.00    +0.118 C 
ATOM      6  C   UNL     1      -2.894   3.024  -1.217  0.00  0.00    +0.269 C 
ATOM      7  O   UNL     1      -2.859   3.121  -2.428  0.00  0.00    -0.268 OA
ENDROOT
BRANCH   6   8
ATOM      8  C   UNL     1      -4.005   3.636  -0.459  0.00  0.00    +0.039 A 
ATOM      9  C   UNL     1      -3.994   3.621   0.937  0.00  0.00    +0.015 A 
ATOM     10  C   UNL     1      -5.032   4.198   1.639  0.00  0.00    +0.033 A 
ATOM     11  C   UNL     1      -6.087   4.784   0.962  0.00  0.00    +0.126 A 
ATOM     12  C   UNL     1      -6.107   4.798  -0.421  0.00  0.00    +0.033 A 
ATOM     13  C   UNL     1      -5.074   4.228  -1.135  0.00  0.00    +0.015 A 
BRANCH  11  14
ATOM     14  N   UNL     1      -7.200   5.397   1.722  0.00  0.00    +0.056 N 
ATOM     15  O   UNL     1      -8.131   5.912   1.129  0.00  0.00    -0.126 OA
ATOM     16  O   UNL     1      -7.185   5.386   2.939  0.00  0.00    -0.126 OA
ENDBRANCH  11  14
ENDBRANCH   6   8
BRANCH   4  17
ATOM     17  C   UNL     1      -1.377   0.456  -2.044  0.00  0.00    +0.438 C 
ATOM     18  F   UNL     1      -2.224  -0.335  -1.261  0.00  0.00    -0.166 F 
ATOM     19  F   UNL     1      -2.093   0.977  -3.127  0.00  0.00    -0.166 F 
ATOM     20  F   UNL     1      -0.317  -0.325  -2.518  0.00  0.00    -0.166 F 
ENDBRANCH   4  17
BRANCH   4  21
ATOM     21  O   UNL     1      -0.009   2.468  -1.993  0.00  0.00    -0.363 OA
ATOM     22  H   UNL     1      -0.463   2.837  -2.763  0.00  0.00    +0.212 HD
ENDBRANCH   4  21
BRANCH   1  23
ATOM     23  C   UNL     1      -0.409   1.328   2.644  0.00  0.00    +0.052 C 
BRANCH  23  25
ATOM     24  C   UNL     1      -1.034   1.763   5.024  0.00  0.00    +0.004 C 
ATOM     25  C   UNL     1      -1.415   2.021   3.565  0.00  0.00    +0.002 C 
ENDBRANCH  23  25
ENDBRANCH   1  23
TORSDOF 6
