REMARK  Name = ZINC35483989
REMARK  15 active torsions:
REMARK  status: ('A' for Active; 'I' for Inactive)
REMARK    1  A    between atoms: C_1  and  C_2
REMARK    2  A    between atoms: C_9  and  C_12
REMARK    3  A    between atoms: C_10  and  C_11
REMARK    4  A    between atoms: C_12  and  C_13
REMARK    5  A    between atoms: C_14  and  C_27
REMARK    6  A    between atoms: N_16  and  C_21
REMARK    7  A    between atoms: C_21  and  C_22
REMARK    8  A    between atoms: C_22  and  C_23
REMARK    9  A    between atoms: C_23  and  N_24
REMARK   10  A    between atoms: N_24  and  C_25
REMARK   11  A    between atoms: N_24  and  C_26
REMARK   12  A    between atoms: C_30  and  C_33
REMARK   13  A    between atoms: C_33  and  C_34
REMARK   14  A    between atoms: C_33  and  C_35
REMARK   15  A    between atoms: C_33  and  C_36
REMARK                            x       y       z     vdW  Elec       q    Type
REMARK                         _______ _______ _______ _____ _____    ______ ____
ROOT
ATOM      1  C   UNL     1      -0.330  -0.111   5.530  0.00  0.00    +0.078 C 
ATOM      2  C   UNL     1      -0.562   1.238   4.889  0.00  0.00    +0.145 C 
ATOM      3  N   UNL     1      -0.396   2.232   5.957  0.00  0.00    -0.284 N 
ATOM      4  C   UNL     1      -0.102   1.573   7.093  0.00  0.00    +0.288 C 
ATOM      5  O   UNL     1       0.098   2.097   8.171  0.00  0.00    -0.266 OA
ATOM      6  C   UNL     1      -0.065   0.118   6.837  0.00  0.00    +0.249 C 
ATOM      7  O   UNL     1       0.195  -0.834   7.763  0.00  0.00    -0.282 OA
ENDROOT
BRANCH   2   8
ATOM      8  C   UNL     1      -1.958   1.311   4.326  0.00  0.00    -0.022 A 
ATOM      9  C   UNL     1      -3.043   1.398   5.178  0.00  0.00    +0.006 A 
ATOM     10  C   UNL     1      -4.323   1.465   4.661  0.00  0.00    +0.004 A 
ATOM     11  C   UNL     1      -4.518   1.446   3.293  0.00  0.00    -0.042 A 
ATOM     12  C   UNL     1      -3.433   1.360   2.441  0.00  0.00    +0.004 A 
ATOM     13  C   UNL     1      -2.152   1.298   2.958  0.00  0.00    +0.006 A 
BRANCH  11  14
ATOM     14  C   UNL     1      -5.914   1.518   2.729  0.00  0.00    -0.013 C 
ATOM     15  C   UNL     1      -6.579   2.821   3.179  0.00  0.00    +0.015 C 
ATOM     16  C   UNL     1      -5.850   1.480   1.201  0.00  0.00    +0.015 C 
ATOM     17  C   UNL     1      -6.731   0.328   3.236  0.00  0.00    +0.015 C 
ENDBRANCH  11  14
ENDBRANCH   2   8
BRANCH   1  18
ATOM     18  C   UNL     1      -0.388  -1.416   4.865  0.00  0.00    +0.215 C 
ATOM     19  O   UNL     1      -0.470  -1.478   3.652  0.00  0.00    -0.285 OA
BRANCH  18  28
ATOM     20  C   UNL     1      -0.432  -3.784   9.894  0.00  0.00    +0.047 C 
ATOM     21  C   UNL     1      -0.341  -4.619   8.643  0.00  0.00    -0.008 A 
ATOM     22  C   UNL     1      -0.273  -5.973   8.726  0.00  0.00    +0.008 A 
ATOM     23  C   UNL     1      -0.187  -6.740   7.551  0.00  0.00    +0.018 A 
ATOM     24  C   UNL     1      -0.173  -6.138   6.344  0.00  0.00    +0.093 A 
ATOM     25  N   UNL     1      -0.240  -4.776   6.244  0.00  0.00    -0.303 N 
ATOM     26  C   UNL     1      -0.331  -4.001   7.373  0.00  0.00    +0.141 A 
ATOM     27  N   UNL     1      -0.389  -2.731   7.009  0.00  0.00    -0.224 NA
ATOM     28  C   UNL     1      -0.346  -2.655   5.666  0.00  0.00    +0.133 A 
ATOM     29  C   UNL     1      -0.243  -3.937   5.172  0.00  0.00    +0.051 A 
ATOM     30  C   UNL     1      -0.166  -4.335   3.720  0.00  0.00    +0.066 C 
ENDBRANCH  18  28
ENDBRANCH   1  18
BRANCH   3  31
ATOM     31  C   UNL     1      -0.525   3.684   5.811  0.00  0.00    +0.107 C 
BRANCH  31  32
ATOM     32  C   UNL     1      -1.977   4.094   6.067  0.00  0.00    +0.000 C 
BRANCH  32  33
ATOM     33  C   UNL     1      -2.112   5.611   5.915  0.00  0.00    -0.078 C 
BRANCH  33  34
ATOM     34  N   UNL     1      -3.506   6.005   6.161  0.00  0.00    +0.376 N 
ATOM     35  C   UNL     1      -3.855   5.722   7.560  0.00  0.00    -0.097 C 
ATOM     36  C   UNL     1      -3.662   7.442   5.898  0.00  0.00    -0.097 C 
ATOM     37  H   UNL     1      -4.116   5.483   5.550  0.00  0.00    -0.083 HD
ENDBRANCH  33  34
ENDBRANCH  32  33
ENDBRANCH  31  32
ENDBRANCH   3  31
TORSDOF 8
