REMARK  Name = ZINC08712864
REMARK  8 active torsions:
REMARK  status: ('A' for Active; 'I' for Inactive)
REMARK    1  A    between atoms: N_11  and  C_12
REMARK    2  A    between atoms: C_12  and  C_13
REMARK    3  A    between atoms: N_15  and  C_16
REMARK    4  A    between atoms: N_15  and  C_24
REMARK    5  A    between atoms: C_16  and  C_17
REMARK    6  A    between atoms: C_24  and  C_26
REMARK    7  A    between atoms: C_24  and  C_33
REMARK    8  A    between atoms: N_35  and  C_36
REMARK                            x       y       z     vdW  Elec       q    Type
REMARK                         _______ _______ _______ _____ _____    ______ ____
ROOT
ATOM      1  C   UNL     1       0.736   5.375  -2.003  0.00  0.00    +0.234 C 
ATOM      2  O   UNL     1       0.552   4.633  -2.944  0.00  0.00    -0.274 OA
ATOM      3  N   UNL     1       1.800   6.203  -1.997  0.00  0.00    -0.284 N 
ENDROOT
BRANCH   1   4
ATOM      4  C   UNL     1      -0.223   5.373  -0.842  0.00  0.00    +0.210 C 
BRANCH   4  15
ATOM      5  C   UNL     1      -5.020   5.244  -2.977  0.00  0.00    +0.001 A 
ATOM      6  C   UNL     1      -4.158   6.319  -2.841  0.00  0.00    +0.002 A 
ATOM      7  C   UNL     1      -2.921   6.160  -2.244  0.00  0.00    +0.024 A 
ATOM      8  C   UNL     1      -2.527   4.915  -1.773  0.00  0.00    +0.048 A 
ATOM      9  C   UNL     1      -3.401   3.825  -1.918  0.00  0.00    +0.048 A 
ATOM     10  C   UNL     1      -4.649   3.997  -2.516  0.00  0.00    +0.014 A 
ATOM     11  C   UNL     1      -2.719   2.657  -1.328  0.00  0.00    +0.250 C 
ATOM     12  O   UNL     1      -3.135   1.520  -1.248  0.00  0.00    -0.282 OA
ATOM     13  C   UNL     1      -1.397   3.184  -0.855  0.00  0.00    +0.292 C 
ATOM     14  O   UNL     1      -0.523   2.542  -0.310  0.00  0.00    -0.266 OA
ATOM     15  N   UNL     1      -1.356   4.495  -1.146  0.00  0.00    -0.255 N 
ENDBRANCH   4  15
ENDBRANCH   1   4
BRANCH   3  16
ATOM     16  C   UNL     1       2.087   7.018  -0.814  0.00  0.00    +0.143 C 
BRANCH  16  17
ATOM     17  C   UNL     1       3.058   6.286   0.076  0.00  0.00    -0.030 A 
ATOM     18  C   UNL     1       2.601   5.309   0.940  0.00  0.00    +0.008 A 
ATOM     19  C   UNL     1       3.491   4.633   1.754  0.00  0.00    +0.038 A 
ATOM     20  C   UNL     1       4.840   4.943   1.710  0.00  0.00    +0.123 A 
ATOM     21  C   UNL     1       5.296   5.926   0.848  0.00  0.00    +0.038 A 
ATOM     22  C   UNL     1       4.405   6.596   0.032  0.00  0.00    +0.008 A 
ATOM     23  F   UNL     1       5.710   4.287   2.509  0.00  0.00    -0.205 F 
ENDBRANCH  16  17
ENDBRANCH   3  16
BRANCH   3  24
ATOM     24  C   UNL     1       2.669   6.288  -3.174  0.00  0.00    +0.166 C 
BRANCH  24  25
ATOM     25  C   UNL     1       4.081   5.835  -2.799  0.00  0.00    +0.023 C 
ATOM     26  C   UNL     1       4.978   5.857  -4.043  0.00  0.00    +0.010 C 
ATOM     27  C   UNL     1       6.417   5.574  -3.608  0.00  0.00    +0.027 C 
ATOM     28  C   UNL     1       6.462   4.359  -2.728  0.00  0.00    -0.031 C 
ATOM     29  C   UNL     1       5.427   3.853  -2.138  0.00  0.00    -0.031 C 
ATOM     30  C   UNL     1       4.036   4.404  -2.260  0.00  0.00    +0.032 C 
ENDBRANCH  24  25
BRANCH  24  31
ATOM     31  C   UNL     1       2.712   7.712  -3.665  0.00  0.00    +0.238 C 
ATOM     32  O   UNL     1       2.395   8.619  -2.924  0.00  0.00    -0.273 OA
ATOM     33  N   UNL     1       3.103   7.979  -4.927  0.00  0.00    -0.284 N 
ATOM     34  H   UNL     1       3.281   7.251  -5.543  0.00  0.00    +0.155 HD
BRANCH  33  35
ATOM     35  C   UNL     1       3.253   9.306  -5.348  0.00  0.00    +0.037 A 
ATOM     36  C   UNL     1       2.974   9.653  -6.663  0.00  0.00    +0.027 A 
ATOM     37  C   UNL     1       3.118  10.963  -7.079  0.00  0.00    +0.051 A 
ATOM     38  C   UNL     1       3.549  11.932  -6.188  0.00  0.00    +0.166 A 
ATOM     39  C   UNL     1       3.835  11.586  -4.870  0.00  0.00    +0.168 A 
ATOM     40  C   UNL     1       3.687  10.274  -4.452  0.00  0.00    +0.072 A 
ATOM     41  O   UNL     1       4.237  12.707  -4.202  0.00  0.00    -0.453 OA
ATOM     42  C   UNL     1       4.586  13.659  -5.224  0.00  0.00    +0.466 C 
ATOM     43  O   UNL     1       3.772  13.270  -6.346  0.00  0.00    -0.453 OA
ENDBRANCH  33  35
ENDBRANCH  24  31
ENDBRANCH   3  24
TORSDOF 8
