REMARK  Name = ZINC35106497
REMARK  14 active torsions:
REMARK  status: ('A' for Active; 'I' for Inactive)
REMARK    1  A    between atoms: C_1  and  C_2
REMARK    2  A    between atoms: N_8  and  C_9
REMARK    3  A    between atoms: C_9  and  C_10
REMARK    4  A    between atoms: C_10  and  C_11
REMARK    5  A    between atoms: C_11  and  N_12
REMARK    6  A    between atoms: N_12  and  C_13
REMARK    7  A    between atoms: C_13  and  C_14
REMARK    8  A    between atoms: N_25  and  C_26
REMARK    9  A    between atoms: C_27  and  C_35
REMARK   10  A    between atoms: C_31  and  C_32
REMARK   11  A    between atoms: C_32  and  C_33
REMARK   12  A    between atoms: C_32  and  C_34
REMARK   13  A    between atoms: C_35  and  C_36
REMARK   14  A    between atoms: C_35  and  C_37
REMARK                            x       y       z     vdW  Elec       q    Type
REMARK                         _______ _______ _______ _____ _____    ______ ____
ROOT
ATOM      1  N   UNL     1       0.162   0.698   7.666  0.00  0.00    -0.281 N 
ATOM      2  C   UNL     1       0.426  -0.617   7.797  0.00  0.00    +0.307 C 
ATOM      3  O   UNL     1       0.767  -1.268   6.828  0.00  0.00    -0.252 OA
ATOM      4  N   UNL     1       0.314  -1.210   9.002  0.00  0.00    -0.269 N 
ATOM      5  H   UNL     1       0.093  -0.681   9.784  0.00  0.00    +0.156 HD
ENDROOT
BRANCH   4   6
ATOM      6  C   UNL     1       0.515  -2.590   9.124  0.00  0.00    +0.042 A 
ATOM      7  C   UNL     1       1.464  -3.079  10.012  0.00  0.00    -0.023 A 
ATOM      8  C   UNL     1       1.659  -4.441  10.131  0.00  0.00    +0.006 A 
ATOM      9  C   UNL     1       0.911  -5.317   9.367  0.00  0.00    +0.001 A 
ATOM     10  C   UNL     1      -0.034  -4.834   8.481  0.00  0.00    +0.006 A 
ATOM     11  C   UNL     1      -0.238  -3.473   8.362  0.00  0.00    -0.023 A 
BRANCH  11  12
ATOM     12  C   UNL     1      -1.274  -2.947   7.401  0.00  0.00    +0.015 C 
ATOM     13  C   UNL     1      -1.398  -3.902   6.212  0.00  0.00    +0.012 C 
ATOM     14  C   UNL     1      -2.623  -2.841   8.114  0.00  0.00    +0.012 C 
ENDBRANCH  11  12
BRANCH   7  15
ATOM     15  C   UNL     1       2.280  -2.124  10.846  0.00  0.00    +0.015 C 
ATOM     16  C   UNL     1       1.995  -2.370  12.329  0.00  0.00    +0.012 C 
ATOM     17  C   UNL     1       3.767  -2.348  10.568  0.00  0.00    +0.012 C 
ENDBRANCH   7  15
ENDBRANCH   4   6
BRANCH   1  18
ATOM     18  C   UNL     1       0.284   1.343   6.356  0.00  0.00    +0.108 C 
BRANCH  18  19
ATOM     19  C   UNL     1       1.708   1.873   6.180  0.00  0.00    +0.000 C 
BRANCH  19  20
ATOM     20  C   UNL     1       1.837   2.547   4.812  0.00  0.00    -0.077 C 
BRANCH  20  27
ATOM     21  C   UNL     1       2.254   4.928   3.385  0.00  0.00    -0.013 C 
ATOM     22  C   UNL     1       3.293   3.805   3.384  0.00  0.00    -0.072 C 
ATOM     23  C   UNL     1       4.693   4.407   3.243  0.00  0.00    -0.016 C 
ATOM     24  C   UNL     1       5.730   3.279   3.243  0.00  0.00    -0.003 C 
ATOM     25  C   UNL     1       5.577   2.458   4.527  0.00  0.00    -0.019 C 
ATOM     26  C   UNL     1       4.144   1.929   4.620  0.00  0.00    -0.078 C 
ATOM     27  N   UNL     1       3.204   3.056   4.643  0.00  0.00    +0.381 N 
ATOM     28  H   UNL     1       3.431   3.667   5.414  0.00  0.00    -0.081 HD
ENDBRANCH  20  27
ENDBRANCH  19  20
ENDBRANCH  18  19
ENDBRANCH   1  18
BRANCH   1  29
ATOM     29  C   UNL     1      -0.249   1.482   8.833  0.00  0.00    +0.144 C 
BRANCH  29  30
ATOM     30  C   UNL     1      -1.750   1.450   8.957  0.00  0.00    -0.026 A 
ATOM     31  C   UNL     1      -2.516   2.411   8.324  0.00  0.00    +0.009 A 
ATOM     32  C   UNL     1      -3.894   2.385   8.434  0.00  0.00    +0.050 A 
ATOM     33  C   UNL     1      -4.511   1.395   9.182  0.00  0.00    +0.166 A 
ATOM     34  C   UNL     1      -3.739   0.427   9.820  0.00  0.00    +0.167 A 
ATOM     35  C   UNL     1      -2.359   0.456   9.700  0.00  0.00    +0.054 A 
ATOM     36  O   UNL     1      -4.572  -0.426  10.484  0.00  0.00    -0.453 OA
ATOM     37  C   UNL     1      -5.832   0.265  10.583  0.00  0.00    +0.466 C 
ATOM     38  O   UNL     1      -5.827   1.148   9.446  0.00  0.00    -0.453 OA
ENDBRANCH  29  30
ENDBRANCH   1  29
TORSDOF 9
