REMARK  Name = ZINC12469356
REMARK  8 active torsions:
REMARK  status: ('A' for Active; 'I' for Inactive)
REMARK    1  A    between atoms: C_4  and  C_7
REMARK    2  A    between atoms: C_7  and  C_8
REMARK    3  A    between atoms: C_8  and  N_9
REMARK    4  A    between atoms: N_9  and  C_10
REMARK    5  A    between atoms: C_10  and  C_11
REMARK    6  A    between atoms: C_17  and  C_19
REMARK    7  A    between atoms: N_24  and  S_26
REMARK    8  A    between atoms: S_26  and  C_29
REMARK                            x       y       z     vdW  Elec       q    Type
REMARK                         _______ _______ _______ _____ _____    ______ ____
ROOT
ATOM      1  N   UNL     1       5.433  -1.850   1.744  0.00  0.00    -0.297 N 
ATOM      2  C   UNL     1       5.260  -3.059   1.174  0.00  0.00    +0.220 C 
ATOM      3  O   UNL     1       6.191  -3.610   0.626  0.00  0.00    -0.275 OA
ENDROOT
BRANCH   2   4
ATOM      4  C   UNL     1       3.910  -3.726   1.219  0.00  0.00    +0.091 C 
ATOM      5  C   UNL     1       3.037  -3.190   0.082  0.00  0.00    +0.015 C 
ATOM      6  C   UNL     1       1.655  -3.842   0.145  0.00  0.00    +0.018 C 
ATOM      7  C   UNL     1       1.801  -5.357  -0.031  0.00  0.00    +0.109 C 
ATOM      8  N   UNL     1       2.752  -5.860   0.970  0.00  0.00    -0.174 NA
ATOM      9  C   UNL     1       4.082  -5.239   1.056  0.00  0.00    +0.122 C 
BRANCH   8  10
ATOM     10  S   UNL     1       2.335  -7.102   1.982  0.00  0.00    +0.080 S 
ATOM     11  O   UNL     1       3.163  -6.985   3.131  0.00  0.00    -0.151 OA
ATOM     12  O   UNL     1       0.916  -7.101   2.062  0.00  0.00    -0.151 OA
BRANCH  10  13
ATOM     13  C   UNL     1       2.793  -8.603   1.181  0.00  0.00    +0.211 A 
ATOM     14  C   UNL     1       2.018  -9.325   0.350  0.00  0.00    +0.133 A 
ATOM     15  N   UNL     1       2.760 -10.407  -0.044  0.00  0.00    -0.349 N 
ATOM     16  H   UNL     1       2.474 -11.112  -0.645  0.00  0.00    +0.166 HD
ATOM     17  C   UNL     1       3.963 -10.307   0.562  0.00  0.00    +0.198 A 
ATOM     18  N   UNL     1       3.977  -9.224   1.289  0.00  0.00    -0.217 NA
ENDBRANCH  10  13
ENDBRANCH   8  10
ENDBRANCH   2   4
BRANCH   1  19
ATOM     19  C   UNL     1       4.283  -1.125   2.289  0.00  0.00    +0.113 C 
BRANCH  19  20
ATOM     20  C   UNL     1       3.820  -0.070   1.282  0.00  0.00    +0.054 C 
BRANCH  20  24
ATOM     21  C   UNL     1       0.200   1.728   2.660  0.00  0.00    +0.000 A 
ATOM     22  C   UNL     1       1.420   2.269   3.019  0.00  0.00    +0.000 A 
ATOM     23  C   UNL     1       2.592   1.687   2.573  0.00  0.00    +0.004 A 
ATOM     24  C   UNL     1       2.543   0.564   1.769  0.00  0.00    -0.046 A 
ATOM     25  C   UNL     1       1.323   0.022   1.411  0.00  0.00    +0.004 A 
ATOM     26  C   UNL     1       0.151   0.605   1.856  0.00  0.00    +0.000 A 
ENDBRANCH  20  24
ENDBRANCH  19  20
ENDBRANCH   1  19
BRANCH   1  27
ATOM     27  C   UNL     1       6.772  -1.260   1.818  0.00  0.00    +0.142 C 
BRANCH  27  28
ATOM     28  C   UNL     1       7.411  -1.628   3.133  0.00  0.00    -0.030 A 
ATOM     29  C   UNL     1       7.144  -0.881   4.265  0.00  0.00    +0.005 A 
ATOM     30  C   UNL     1       7.730  -1.219   5.470  0.00  0.00    +0.000 A 
ATOM     31  C   UNL     1       8.583  -2.304   5.544  0.00  0.00    +0.000 A 
ATOM     32  C   UNL     1       8.850  -3.052   4.412  0.00  0.00    +0.000 A 
ATOM     33  C   UNL     1       8.260  -2.716   3.208  0.00  0.00    +0.005 A 
ENDBRANCH  27  28
ENDBRANCH   1  27
TORSDOF 8
