REMARK  Name = ZINC24908326
REMARK  5 active torsions:
REMARK  status: ('A' for Active; 'I' for Inactive)
REMARK    1  A    between atoms: C_3  and  C_31
REMARK    2  A    between atoms: C_10  and  C_11
REMARK    3  A    between atoms: N_16  and  C_17
REMARK    4  A    between atoms: C_17  and  C_18
REMARK    5  A    between atoms: C_24  and  C_26
REMARK                            x       y       z     vdW  Elec       q    Type
REMARK                         _______ _______ _______ _____ _____    ______ ____
ROOT
ATOM      1  C   UNL     1       1.891   6.066  -1.978  0.00  0.00    +0.015 A 
ATOM      2  C   UNL     1       0.946   5.618  -2.860  0.00  0.00    +0.033 A 
ATOM      3  C   UNL     1       0.727   4.252  -3.009  0.00  0.00    +0.144 A 
ATOM      4  N   UNL     1       1.415   3.364  -2.328  0.00  0.00    -0.242 NA
ATOM      5  C   UNL     1       2.354   3.737  -1.463  0.00  0.00    +0.084 A 
ATOM      6  C   UNL     1       2.626   5.112  -1.258  0.00  0.00    +0.041 A 
ATOM      7  C   UNL     1       3.632   5.481  -0.338  0.00  0.00    +0.128 A 
ATOM      8  N   UNL     1       4.301   4.551   0.319  0.00  0.00    -0.239 NA
ATOM      9  C   UNL     1       4.072   3.257   0.157  0.00  0.00    +0.123 A 
ATOM     10  C   UNL     1       3.108   2.793  -0.719  0.00  0.00    +0.027 A 
ATOM     11  N   UNL     1       3.918   6.819  -0.124  0.00  0.00    -0.328 N 
ATOM     12  H   UNL     1       3.361   7.594  -0.671  0.00  0.00    +0.147 HD
ENDROOT
BRANCH  10  13
ATOM     13  C   UNL     1       2.870   1.339  -0.882  0.00  0.00    -0.007 A 
ATOM     14  C   UNL     1       3.930   0.466  -1.116  0.00  0.00    +0.016 A 
ATOM     15  C   UNL     1       3.673  -0.853  -1.259  0.00  0.00    +0.046 A 
ATOM     16  S   UNL     1       1.900  -0.917  -1.068  0.00  0.00    -0.104 S 
ATOM     17  C   UNL     1       1.606   0.824  -0.807  0.00  0.00    +0.053 A 
ENDBRANCH  10  13
BRANCH   3  18
ATOM     18  C   UNL     1      -0.327   3.779  -3.977  0.00  0.00    +0.434 C 
ATOM     19  F   UNL     1      -0.457   2.389  -3.884  0.00  0.00    -0.164 F 
ATOM     20  F   UNL     1      -1.550   4.383  -3.667  0.00  0.00    -0.164 F 
ATOM     21  F   UNL     1       0.046   4.126  -5.280  0.00  0.00    -0.164 F 
ENDBRANCH   3  18
BRANCH  11  22
ATOM     22  C   UNL     1       4.962   7.202   0.830  0.00  0.00    +0.106 C 
BRANCH  22  23
ATOM     23  C   UNL     1       5.075   8.727   0.876  0.00  0.00    +0.009 C 
ATOM     24  C   UNL     1       5.556   9.244  -0.482  0.00  0.00    +0.024 C 
ATOM     25  C   UNL     1       5.635  10.773  -0.443  0.00  0.00    +0.108 C 
ATOM     26  N   UNL     1       6.482  11.174   0.690  0.00  0.00    -0.295 N 
ATOM     27  C   UNL     1       6.162  10.659   2.028  0.00  0.00    +0.108 C 
ATOM     28  C   UNL     1       6.076   9.131   1.961  0.00  0.00    +0.024 C 
ATOM     29  C   UNL     1       7.532  11.998   0.504  0.00  0.00    +0.285 C 
ATOM     30  O   UNL     1       7.863  12.317  -0.622  0.00  0.00    -0.267 OA
BRANCH  29  31
ATOM     31  C   UNL     1       8.279  12.514   1.667  0.00  0.00    +0.222 A 
ATOM     32  C   UNL     1       9.438  13.241   1.643  0.00  0.00    +0.077 A 
ATOM     33  C   UNL     1       9.718  13.475   3.007  0.00  0.00    +0.157 A 
ATOM     34  N   UNL     1       8.769  12.899   3.686  0.00  0.00    -0.086 NA
ATOM     35  O   UNL     1       7.961  12.360   2.966  0.00  0.00    -0.350 OA
ENDBRANCH  29  31
ENDBRANCH  22  23
ENDBRANCH  11  22
TORSDOF 5
