REMARK  Name = ZINC40644147
REMARK  4 active torsions:
REMARK  status: ('A' for Active; 'I' for Inactive)
REMARK    1  A    between atoms: C_6  and  C_7
REMARK    2  A    between atoms: C_7  and  C_9
REMARK    3  A    between atoms: C_7  and  C_22
REMARK    4  A    between atoms: C_9  and  C_10
REMARK                            x       y       z     vdW  Elec       q    Type
REMARK                         _______ _______ _______ _____ _____    ______ ____
ROOT
ATOM      1  C   UNL     1      -1.257  -0.827   0.062  0.00  0.00    +0.031 C 
ENDROOT
BRANCH   1   7
ATOM      2  C   UNL     1       0.246  -2.383  -1.195  0.00  0.00    +0.008 A 
ATOM      3  C   UNL     1       0.826  -3.623  -1.387  0.00  0.00    +0.050 A 
ATOM      4  C   UNL     1       0.535  -4.667  -0.522  0.00  0.00    +0.162 A 
ATOM      5  C   UNL     1      -0.339  -4.462   0.540  0.00  0.00    +0.162 A 
ATOM      6  C   UNL     1      -0.918  -3.216   0.725  0.00  0.00    +0.053 A 
ATOM      7  C   UNL     1      -0.625  -2.180  -0.142  0.00  0.00    -0.040 A 
ATOM      8  O   UNL     1      -0.632  -5.471   1.405  0.00  0.00    -0.485 OA
ATOM      9  C   UNL     1      -0.326  -6.800   0.971  0.00  0.00    +0.270 C 
ATOM     10  C   UNL     1       1.089  -6.797   0.376  0.00  0.00    +0.270 C 
ATOM     11  O   UNL     1       1.110  -5.883  -0.725  0.00  0.00    -0.485 OA
ENDBRANCH   1   7
BRANCH   1  12
ATOM     12  C   UNL     1      -0.162   0.219   0.281  0.00  0.00    -0.003 C 
ATOM     13  C   UNL     1       0.035   0.750   1.702  0.00  0.00    +0.004 C 
ATOM     14  C   UNL     1      -0.603   1.641   0.634  0.00  0.00    +0.004 C 
ENDBRANCH   1  12
BRANCH   1  15
ATOM     15  C   UNL     1      -2.078  -0.455  -1.174  0.00  0.00    +0.104 C 
BRANCH  15  16
ATOM     16  C   UNL     1      -3.245  -1.399  -1.304  0.00  0.00    +0.216 C 
ATOM     17  O   UNL     1      -3.465  -2.215  -0.434  0.00  0.00    -0.276 OA
ATOM     18  N   UNL     1      -4.044  -1.338  -2.388  0.00  0.00    -0.301 N 
ATOM     19  C   UNL     1      -3.786  -0.360  -3.454  0.00  0.00    +0.113 C 
ATOM     20  C   UNL     1      -5.061   0.453  -3.696  0.00  0.00    +0.084 C 
ATOM     21  C   UNL     1      -6.224  -0.500  -3.980  0.00  0.00    +0.173 C 
ATOM     22  C   UNL     1      -6.451  -1.417  -2.777  0.00  0.00    +0.084 C 
ATOM     23  C   UNL     1      -5.185  -2.252  -2.529  0.00  0.00    +0.113 C 
ATOM     24  O   UNL     1      -7.413   0.257  -4.239  0.00  0.00    -0.346 OA
ATOM     25  C   UNL     1      -7.856  -0.085  -5.568  0.00  0.00    +0.191 C 
ATOM     26  C   UNL     1      -7.184  -1.458  -5.819  0.00  0.00    +0.191 C 
ATOM     27  O   UNL     1      -5.918  -1.295  -5.137  0.00  0.00    -0.346 OA
ENDBRANCH  15  16
ENDBRANCH   1  15
TORSDOF 4
