REMARK  Name = ZINC62843936
REMARK  5 active torsions:
REMARK  status: ('A' for Active; 'I' for Inactive)
REMARK    1  A    between atoms: C_1  and  C_2
REMARK    2  A    between atoms: C_5  and  C_7
REMARK    3  A    between atoms: C_7  and  N_8
REMARK    4  A    between atoms: C_14  and  C_17
REMARK    5  A    between atoms: C_14  and  C_18
REMARK                            x       y       z     vdW  Elec       q    Type
REMARK                         _______ _______ _______ _____ _____    ______ ____
ROOT
ATOM      1  N   UNL     1       3.362  -5.341  -0.643  0.00  0.00    -0.292 N 
ATOM      2  C   UNL     1       2.810  -4.653  -1.662  0.00  0.00    +0.303 C 
ATOM      3  O   UNL     1       1.994  -3.781  -1.435  0.00  0.00    -0.253 OA
ATOM      4  N   UNL     1       3.162  -4.931  -2.933  0.00  0.00    -0.286 N 
ATOM      5  C   UNL     1       2.658  -4.115  -4.045  0.00  0.00    +0.110 C 
ATOM      6  C   UNL     1       3.848  -3.623  -4.875  0.00  0.00    +0.037 C 
ATOM      7  C   UNL     1       4.693  -4.823  -5.309  0.00  0.00    +0.072 C 
ATOM      8  C   UNL     1       5.232  -5.544  -4.071  0.00  0.00    +0.037 C 
ATOM      9  C   UNL     1       4.062  -6.053  -3.232  0.00  0.00    +0.110 C 
ATOM     10  C   UNL     1       3.829  -5.787  -6.124  0.00  0.00    +0.023 C 
ATOM     11  H   UNL     1       3.957  -6.085  -0.827  0.00  0.00    +0.151 HD
ENDROOT
BRANCH   7  12
ATOM     12  C   UNL     1       5.846  -4.346  -6.154  0.00  0.00    +0.362 C 
ATOM     13  O   UNL     1       6.897  -4.964  -6.155  0.00  0.00    -0.246 OA
ATOM     14  O   UNL     1       5.728  -3.342  -6.835  0.00  0.00    -0.246 OA
ENDBRANCH   7  12
BRANCH   1  15
ATOM     15  C   UNL     1       3.065  -4.965   0.741  0.00  0.00    +0.180 C 
BRANCH  15  20
ATOM     16  C   UNL     1       4.118  -8.897   3.719  0.00  0.00    +0.086 C 
ATOM     17  C   UNL     1       4.260  -7.594   2.976  0.00  0.00    +0.102 A 
ATOM     18  C   UNL     1       5.334  -6.785   3.004  0.00  0.00    +0.045 A 
ATOM     19  C   UNL     1       5.039  -5.683   2.169  0.00  0.00    +0.046 A 
ATOM     20  C   UNL     1       3.802  -5.885   1.680  0.00  0.00    +0.122 A 
ATOM     21  O   UNL     1       3.337  -7.047   2.168  0.00  0.00    -0.463 OA
ENDBRANCH  15  20
ENDBRANCH   1  15
TORSDOF 3
