REMARK  Name = ZINC20191871
REMARK  11 active torsions:
REMARK  status: ('A' for Active; 'I' for Inactive)
REMARK    1  A    between atoms: C_1  and  C_2
REMARK    2  A    between atoms: C_2  and  C_3
REMARK    3  A    between atoms: C_5  and  C_8
REMARK    4  A    between atoms: N_10  and  N_11
REMARK    5  A    between atoms: N_11  and  C_12
REMARK    6  A    between atoms: C_12  and  N_14
REMARK    7  A    between atoms: N_14  and  C_15
REMARK    8  A    between atoms: C_16  and  C_25
REMARK    9  A    between atoms: C_25  and  O_27
REMARK   10  A    between atoms: O_27  and  C_28
REMARK   11  A    between atoms: C_28  and  C_29
REMARK                            x       y       z     vdW  Elec       q    Type
REMARK                         _______ _______ _______ _____ _____    ______ ____
ROOT
ATOM      1  N   UNL     1      -0.017   1.381   0.010  0.00  0.00    -0.290 N 
ATOM      2  H   UNL     1      -0.977   1.918   0.022  0.00  0.00    +0.154 HD
ENDROOT
BRANCH   1   3
ATOM      3  C   UNL     1       0.002  -0.004   0.002  0.00  0.00    +0.086 A 
ATOM      4  C   UNL     1      -1.073  -0.881   0.013  0.00  0.00    +0.091 A 
ATOM      5  C   UNL     1      -0.781  -2.309  -0.007  0.00  0.00    -0.021 A 
ATOM      6  C   UNL     1       0.532  -2.622  -0.016  0.00  0.00    -0.004 A 
ATOM      7  S   UNL     1       1.373  -1.062  -0.016  0.00  0.00    -0.077 S 
ATOM      8  C   UNL     1       1.147  -3.986  -0.012  0.00  0.00    +0.043 C 
ATOM      9  C   UNL     1       0.476  -4.849  -1.089  0.00  0.00    +0.005 C 
ATOM     10  C   UNL     1      -0.727  -5.550  -0.464  0.00  0.00    +0.001 C 
ATOM     11  C   UNL     1      -1.357  -4.660   0.605  0.00  0.00    +0.005 C 
ATOM     12  C   UNL     1      -1.877  -3.368  -0.017  0.00  0.00    +0.037 C 
BRANCH   4  13
ATOM     13  C   UNL     1      -2.451  -0.390   0.040  0.00  0.00    +0.342 C 
ATOM     14  O   UNL     1      -3.042  -0.178  -1.003  0.00  0.00    -0.245 OA
BRANCH  13  15
ATOM     15  O   UNL     1      -3.067  -0.172   1.220  0.00  0.00    -0.461 OA
BRANCH  15  16
ATOM     16  C   UNL     1      -4.434   0.316   1.170  0.00  0.00    +0.229 C 
ATOM     17  C   UNL     1      -4.961   0.502   2.594  0.00  0.00    +0.048 C 
ENDBRANCH  15  16
ENDBRANCH  13  15
ENDBRANCH   4  13
ENDBRANCH   1   3
BRANCH   1  18
ATOM     18  C   UNL     1       1.141   2.071   0.002  0.00  0.00    +0.151 C 
ATOM     19  S   UNL     1       2.635   1.235  -0.017  0.00  0.00    -0.017 S 
BRANCH  18  20
ATOM     20  N   UNL     1       1.123   3.418   0.010  0.00  0.00    -0.245 N 
ATOM     21  H   UNL     1       2.068   3.981   0.004  0.00  0.00    +0.172 HD
BRANCH  20  24
ATOM     22  C   UNL     1      -0.118   5.450   0.033  0.00  0.00    +0.261 C 
ATOM     23  O   UNL     1       0.927   6.072   0.026  0.00  0.00    -0.269 OA
ATOM     24  N   UNL     1      -0.100   4.102   0.025  0.00  0.00    -0.231 N 
ATOM     25  H   UNL     1      -1.045   3.539   0.031  0.00  0.00    +0.173 HD
BRANCH  22  28
ATOM     26  C   UNL     1      -2.682   8.174   0.072  0.00  0.00    -0.010 A 
ATOM     27  C   UNL     1      -1.459   7.609   0.062  0.00  0.00    +0.024 A 
ATOM     28  C   UNL     1      -1.403   6.168   0.049  0.00  0.00    +0.045 A 
ATOM     29  C   UNL     1      -2.605   5.493   0.057  0.00  0.00    +0.058 A 
ATOM     30  S   UNL     1      -3.776   6.769   0.075  0.00  0.00    -0.101 S 
BRANCH  26  32
ATOM     31  C   UNL     1      -3.172  10.142  -1.355  0.00  0.00    +0.009 C 
ATOM     32  C   UNL     1      -3.038   9.638   0.083  0.00  0.00    +0.039 C 
ENDBRANCH  26  32
ENDBRANCH  22  28
ENDBRANCH  20  24
ENDBRANCH  18  20
ENDBRANCH   1  18
TORSDOF 9
