REMARK  Name = ZINC39845183
REMARK  14 active torsions:
REMARK  status: ('A' for Active; 'I' for Inactive)
REMARK    1  A    between atoms: C_1  and  C_2
REMARK    2  A    between atoms: C_2  and  O_3
REMARK    3  A    between atoms: O_3  and  C_4
REMARK    4  A    between atoms: C_7  and  C_10
REMARK    5  A    between atoms: C_12  and  S_22
REMARK    6  A    between atoms: C_13  and  N_15
REMARK    7  A    between atoms: N_15  and  C_16
REMARK    8  A    between atoms: C_16  and  C_17
REMARK    9  A    between atoms: C_17  and  C_18
REMARK   10  A    between atoms: C_18  and  N_19
REMARK   11  A    between atoms: N_19  and  C_20
REMARK   12  A    between atoms: N_19  and  C_21
REMARK   13  A    between atoms: S_22  and  C_25
REMARK   14  A    between atoms: C_28  and  C_31
REMARK                            x       y       z     vdW  Elec       q    Type
REMARK                         _______ _______ _______ _____ _____    ______ ____
ROOT
ATOM      1  C   UNL     1      -1.998  -6.066  -0.013  0.00  0.00    +0.231 A 
ATOM      2  N   UNL     1      -3.146  -6.700  -0.016  0.00  0.00    -0.188 NA
ATOM      3  C   UNL     1      -2.909  -8.021  -0.023  0.00  0.00    +0.243 A 
ATOM      4  C   UNL     1      -1.566  -8.200  -0.024  0.00  0.00    +0.233 A 
ATOM      5  O   UNL     1      -1.003  -6.975  -0.024  0.00  0.00    -0.420 OA
ENDROOT
BRANCH   1   9
ATOM      6  C   UNL     1      -1.498  -1.848   0.006  0.00  0.00    +0.121 A 
ATOM      7  C   UNL     1      -0.384  -2.677  -0.003  0.00  0.00    +0.046 A 
ATOM      8  C   UNL     1      -0.542  -4.046  -0.009  0.00  0.00    +0.017 A 
ATOM      9  C   UNL     1      -1.824  -4.600  -0.006  0.00  0.00    +0.037 A 
ATOM     10  C   UNL     1      -2.942  -3.762   0.004  0.00  0.00    +0.017 A 
ATOM     11  C   UNL     1      -2.775  -2.394   0.016  0.00  0.00    +0.046 A 
BRANCH   6  12
ATOM     12  O   UNL     1      -1.339  -0.499   0.012  0.00  0.00    -0.492 OA
BRANCH  12  14
ATOM     13  C   UNL     1      -0.019   1.526   0.010  0.00  0.00    +0.048 C 
ATOM     14  C   UNL     1       0.002  -0.004   0.002  0.00  0.00    +0.225 C 
ENDBRANCH  12  14
ENDBRANCH   6  12
ENDBRANCH   1   9
BRANCH   3  15
ATOM     15  S   UNL     1      -4.127  -9.295  -0.029  0.00  0.00    +0.047 S 
ATOM     16  O   UNL     1      -3.507 -10.452   0.516  0.00  0.00    -0.163 OA
ATOM     17  O   UNL     1      -5.307  -8.731   0.525  0.00  0.00    -0.163 OA
BRANCH  15  18
ATOM     18  C   UNL     1      -4.487  -9.663  -1.714  0.00  0.00    +0.095 A 
ATOM     19  C   UNL     1      -5.489  -8.977  -2.373  0.00  0.00    +0.028 A 
ATOM     20  C   UNL     1      -5.772  -9.265  -3.695  0.00  0.00    +0.005 A 
ATOM     21  C   UNL     1      -5.051 -10.241  -4.358  0.00  0.00    -0.050 A 
ATOM     22  C   UNL     1      -4.048 -10.927  -3.700  0.00  0.00    +0.005 A 
ATOM     23  C   UNL     1      -3.762 -10.635  -2.379  0.00  0.00    +0.028 A 
ATOM     24  C   UNL     1      -5.360 -10.556  -5.799  0.00  0.00    +0.044 C 
ENDBRANCH  15  18
ENDBRANCH   3  15
BRANCH   4  25
ATOM     25  N   UNL     1      -0.895  -9.418  -0.031  0.00  0.00    -0.312 N 
ATOM     26  H   UNL     1      -1.396 -10.248  -0.035  0.00  0.00    +0.149 HD
BRANCH  25  27
ATOM     27  C   UNL     1       0.570  -9.447  -0.032  0.00  0.00    +0.102 C 
BRANCH  27  28
ATOM     28  C   UNL     1       1.051 -10.899  -0.040  0.00  0.00    +0.000 C 
BRANCH  28  29
ATOM     29  C   UNL     1       2.581 -10.930  -0.040  0.00  0.00    -0.078 C 
BRANCH  29  30
ATOM     30  N   UNL     1       3.043 -12.324  -0.048  0.00  0.00    +0.376 N 
ATOM     31  C   UNL     1       4.507 -12.355  -0.169  0.00  0.00    -0.097 C 
ATOM     32  C   UNL     1       2.642 -12.980   1.204  0.00  0.00    -0.097 C 
ATOM     33  H   UNL     1       2.631 -12.811  -0.830  0.00  0.00    -0.083 HD
ENDBRANCH  29  30
ENDBRANCH  28  29
ENDBRANCH  27  28
ENDBRANCH  25  27
ENDBRANCH   4  25
TORSDOF 10
