REMARK  Name = ZINC37691160
REMARK  3 active torsions:
REMARK  status: ('A' for Active; 'I' for Inactive)
REMARK    1  A    between atoms: C_6  and  N_7
REMARK    2  A    between atoms: N_7  and  C_8
REMARK    3  A    between atoms: C_14  and  O_16
REMARK                            x       y       z     vdW  Elec       q    Type
REMARK                         _______ _______ _______ _____ _____    ______ ____
ROOT
ATOM      1  C   UNL     1      -0.017   1.384   0.010  0.00  0.00    +0.027 A 
ATOM      2  C   UNL     1       1.170   2.093   0.002  0.00  0.00    +0.051 A 
ATOM      3  C   UNL     1       2.381   1.421  -0.013  0.00  0.00    +0.173 A 
ATOM      4  C   UNL     1       2.403   0.028  -0.021  0.00  0.00    +0.174 A 
ATOM      5  C   UNL     1       1.214  -0.682  -0.013  0.00  0.00    +0.072 A 
ATOM      6  C   UNL     1       0.002  -0.004   0.002  0.00  0.00    +0.031 A 
ATOM      7  O   UNL     1       3.703  -0.388  -0.036  0.00  0.00    -0.395 OA
ATOM      8  C   UNL     1       4.469   0.759  -0.450  0.00  0.00    +0.589 C 
ATOM      9  O   UNL     1       3.669   1.877  -0.023  0.00  0.00    -0.395 OA
ATOM     10  F   UNL     1       4.627   0.769  -1.840  0.00  0.00    -0.125 F 
ATOM     11  F   UNL     1       5.715   0.775   0.187  0.00  0.00    -0.125 F 
ENDROOT
BRANCH   6  12
ATOM     12  N   UNL     1      -1.200  -0.720   0.010  0.00  0.00    -0.338 N 
ATOM     13  H   UNL     1      -1.187  -1.690   0.004  0.00  0.00    +0.146 HD
BRANCH  12  14
ATOM     14  C   UNL     1      -2.478  -0.005   0.026  0.00  0.00    +0.099 C 
ATOM     15  C   UNL     1      -2.876   0.361  -1.405  0.00  0.00    +0.025 C 
ATOM     16  C   UNL     1      -4.211   1.108  -1.389  0.00  0.00    +0.002 C 
ATOM     17  C   UNL     1      -5.289   0.212  -0.773  0.00  0.00    +0.003 C 
ATOM     18  C   UNL     1      -4.891  -0.154   0.658  0.00  0.00    +0.033 C 
ATOM     19  C   UNL     1      -3.556  -0.901   0.641  0.00  0.00    +0.135 C 
BRANCH  19  20
ATOM     20  O   UNL     1      -3.686  -2.092  -0.137  0.00  0.00    -0.390 OA
ATOM     21  H   UNL     1      -4.353  -2.708   0.196  0.00  0.00    +0.210 HD
ENDBRANCH  19  20
ENDBRANCH  12  14
ENDBRANCH   6  12
TORSDOF 3
