REMARK  Name = ZINC09457459
REMARK  13 active torsions:
REMARK  status: ('A' for Active; 'I' for Inactive)
REMARK    1  A    between atoms: C_1  and  O_2
REMARK    2  A    between atoms: O_2  and  C_3
REMARK    3  A    between atoms: C_6  and  C_11
REMARK    4  A    between atoms: C_8  and  O_9
REMARK    5  A    between atoms: O_9  and  C_10
REMARK    6  A    between atoms: C_11  and  C_12
REMARK    7  A    between atoms: C_12  and  N_64
REMARK    8  A    between atoms: C_13  and  C_14
REMARK    9  A    between atoms: C_13  and  N_64
REMARK   10  A    between atoms: C_14  and  C_26
REMARK   11  A    between atoms: N_20  and  C_23
REMARK   12  A    between atoms: C_23  and  C_24
REMARK   13  A    between atoms: C_26  and  C_27
REMARK                            x       y       z     vdW  Elec       q    Type
REMARK                         _______ _______ _______ _____ _____    ______ ____
ROOT
ATOM      1  C   UNL     1       2.437   1.312  -0.014  0.00  0.00    +0.113 C 
ATOM      2  C   UNL     1       2.344  -0.202  -0.021  0.00  0.00    +0.234 C 
ATOM      3  O   UNL     1       3.340  -0.893  -0.035  0.00  0.00    -0.274 OA
ATOM      4  N   UNL     1       1.111  -0.752  -0.013  0.00  0.00    -0.239 N 
ATOM      5  C   UNL     1       0.002  -0.004   0.002  0.00  0.00    +0.315 C 
ATOM      6  O   UNL     1      -1.067  -0.582   0.009  0.00  0.00    -0.252 OA
ATOM      7  N   UNL     1      -0.016   1.334   0.009  0.00  0.00    -0.221 N 
ATOM      8  C   UNL     1       1.119   2.064   0.003  0.00  0.00    +0.237 C 
ATOM      9  O   UNL     1       1.087   3.276   0.009  0.00  0.00    -0.274 OA
ATOM     10  H   UNL     1       1.027  -1.718  -0.017  0.00  0.00    +0.159 HD
ENDROOT
BRANCH   1  11
ATOM     11  C   UNL     1       3.218   1.747  -1.256  0.00  0.00    -0.057 C 
BRANCH  11  12
ATOM     12  N   UNL     1       2.506   1.284  -2.462  0.00  0.00    +0.380 N 
ATOM     13  H   UNL     1       2.431   0.260  -2.438  0.00  0.00    -0.086 HD
ATOM     14  H   UNL     1       1.565   1.696  -2.479  0.00  0.00    -0.086 HD
BRANCH  12  15
ATOM     15  C   UNL     1       3.238   1.690  -3.676  0.00  0.00    -0.078 C 
BRANCH  15  16
ATOM     16  C   UNL     1       2.477   1.196  -4.909  0.00  0.00    +0.016 C 
BRANCH  16  20
ATOM     17  C   UNL     1       4.584   2.357  -8.444  0.00  0.00    +0.161 A 
ATOM     18  C   UNL     1       4.859   1.142  -7.838  0.00  0.00    +0.049 A 
ATOM     19  C   UNL     1       4.176   0.769  -6.695  0.00  0.00    +0.007 A 
ATOM     20  C   UNL     1       3.219   1.607  -6.154  0.00  0.00    -0.045 A 
ATOM     21  C   UNL     1       2.936   2.819  -6.757  0.00  0.00    +0.053 A 
ATOM     22  C   UNL     1       3.620   3.200  -7.900  0.00  0.00    +0.162 A 
BRANCH  17  24
ATOM     23  C   UNL     1       6.230   1.810 -10.071  0.00  0.00    +0.277 C 
ATOM     24  O   UNL     1       5.255   2.725  -9.569  0.00  0.00    -0.491 OA
ENDBRANCH  17  24
BRANCH  22  25
ATOM     25  O   UNL     1       3.346   4.394  -8.492  0.00  0.00    -0.491 OA
ATOM     26  C   UNL     1       2.345   5.208  -7.878  0.00  0.00    +0.277 C 
ENDBRANCH  22  25
ENDBRANCH  16  20
ENDBRANCH  15  16
ENDBRANCH  12  15
ENDBRANCH  11  12
ENDBRANCH   1  11
BRANCH   7  27
ATOM     27  C   UNL     1      -1.307   2.027   0.019  0.00  0.00    +0.144 C 
BRANCH  27  28
ATOM     28  C   UNL     1      -1.743   2.257   1.443  0.00  0.00    -0.015 C 
ATOM     29  C   UNL     1      -2.034   3.467   1.852  0.00  0.00    +0.005 C 
ENDBRANCH  27  28
ENDBRANCH   7  27
BRANCH   1  30
ATOM     30  C   UNL     1       3.241   1.734   1.217  0.00  0.00    +0.059 C 
BRANCH  30  31
ATOM     31  C   UNL     1       2.544   1.250   2.462  0.00  0.00    -0.042 A 
ATOM     32  C   UNL     1       1.612   2.057   3.088  0.00  0.00    +0.007 A 
ATOM     33  C   UNL     1       0.965   1.616   4.228  0.00  0.00    +0.050 A 
ATOM     34  C   UNL     1       1.260   0.368   4.753  0.00  0.00    +0.166 A 
ATOM     35  C   UNL     1       2.203  -0.442   4.126  0.00  0.00    +0.166 A 
ATOM     36  C   UNL     1       2.842   0.004   2.980  0.00  0.00    +0.053 A 
ATOM     37  O   UNL     1       2.313  -1.607   4.828  0.00  0.00    -0.453 OA
ATOM     38  C   UNL     1       1.730  -1.336   6.117  0.00  0.00    +0.466 C 
ATOM     39  O   UNL     1       0.779  -0.289   5.848  0.00  0.00    -0.453 OA
ENDBRANCH  30  31
ENDBRANCH   1  30
TORSDOF 11
