REMARK  Name = ZINC39772665
REMARK  13 active torsions:
REMARK  status: ('A' for Active; 'I' for Inactive)
REMARK    1  A    between atoms: C_1  and  C_2
REMARK    2  A    between atoms: C_2  and  C_4
REMARK    3  A    between atoms: C_2  and  S_12
REMARK    4  A    between atoms: S_12  and  C_13
REMARK    5  A    between atoms: C_16  and  CA_22
REMARK    6  A    between atoms: N_17  and  C_18
REMARK    7  A    between atoms: C_18  and  C_19
REMARK    8  A    between atoms: C_19  and  C_20
REMARK    9  A    between atoms: C_19  and  C_21
REMARK   10  A    between atoms: CA_22  and  C_24
REMARK   11  A    between atoms: CA_22  and  N_26
REMARK   12  A    between atoms: C_24  and  O_25
REMARK   13  A    between atoms: C_27  and  C_29
REMARK                            x       y       z     vdW  Elec       q    Type
REMARK                         _______ _______ _______ _____ _____    ______ ____
ROOT
ATOM      1  C   UNL     1      -2.335  -0.110   1.573  0.00  0.00    +0.192 A 
ATOM      2  N   UNL     1      -1.692   0.581   2.486  0.00  0.00    -0.122 NA
ATOM      3  N   UNL     1      -2.458   0.785   3.498  0.00  0.00    -0.131 NA
ATOM      4  C   UNL     1      -3.625   0.243   3.293  0.00  0.00    +0.157 A 
ATOM      5  N   UNL     1      -3.590  -0.342   2.057  0.00  0.00    -0.304 N 
ENDROOT
BRANCH   1   6
ATOM      6  S   UNL     1      -1.700  -0.632   0.015  0.00  0.00    -0.074 S 
BRANCH   6   8
ATOM      7  C   UNL     1      -0.019   1.526   0.010  0.00  0.00    +0.029 C 
ATOM      8  C   UNL     1       0.002  -0.004   0.002  0.00  0.00    +0.137 C 
BRANCH   8   9
ATOM      9  C   UNL     1       0.707  -0.490  -1.238  0.00  0.00    +0.232 C 
ATOM     10  O   UNL     1       0.066  -0.782  -2.225  0.00  0.00    -0.274 OA
ATOM     11  N   UNL     1       2.051  -0.601  -1.250  0.00  0.00    -0.264 N 
ATOM     12  C   UNL     1       2.701  -1.049  -2.393  0.00  0.00    +0.164 A 
ATOM     13  N   UNL     1       2.177  -1.401  -3.547  0.00  0.00    -0.233 NA
ATOM     14  C   UNL     1       2.937  -1.809  -4.546  0.00  0.00    +0.120 A 
ATOM     15  C   UNL     1       4.275  -1.847  -4.327  0.00  0.00    +0.068 A 
ATOM     16  S   UNL     1       4.352  -1.265  -2.640  0.00  0.00    -0.061 S 
ATOM     17  H   UNL     1       2.563  -0.367  -0.460  0.00  0.00    +0.157 HD
ENDBRANCH   8   9
ENDBRANCH   6   8
ENDBRANCH   1   6
BRANCH   5  18
ATOM     18  C   UNL     1      -4.674  -1.070   1.392  0.00  0.00    +0.128 C 
BRANCH  18  19
ATOM     19  C   UNL     1      -4.594  -2.553   1.760  0.00  0.00    +0.003 C 
ATOM     20  C   UNL     1      -4.853  -2.721   3.259  0.00  0.00    +0.009 C 
ATOM     21  C   UNL     1      -5.646  -3.332   0.970  0.00  0.00    +0.009 C 
ENDBRANCH  18  19
ENDBRANCH   5  18
BRANCH   4  22
ATOM     22  CA  UNL     1      -4.797   0.261   4.240  0.00  0.00    +0.167 C 
BRANCH  22  23
ATOM     23  N   UNL     1      -4.335  -0.048   5.595  0.00  0.00    -0.299 N 
ATOM     24  C   UNL     1      -5.189  -0.578   6.493  0.00  0.00    +0.245 C 
ATOM     25  O   UNL     1      -6.343  -0.799   6.179  0.00  0.00    -0.270 OA
ATOM     26  H   UNL     1      -3.415   0.128   5.846  0.00  0.00    +0.150 HD
BRANCH  24  27
ATOM     27  C   UNL     1      -4.724  -0.890   7.861  0.00  0.00    +0.037 A 
ATOM     28  C   UNL     1      -3.401  -0.632   8.227  0.00  0.00    +0.014 A 
ATOM     29  C   UNL     1      -2.972  -0.926   9.504  0.00  0.00    +0.021 A 
ATOM     30  C   UNL     1      -3.851  -1.475  10.423  0.00  0.00    +0.041 A 
ATOM     31  C   UNL     1      -5.164  -1.733  10.066  0.00  0.00    +0.021 A 
ATOM     32  C   UNL     1      -5.606  -1.439   8.793  0.00  0.00    +0.014 A 
ATOM     33 CL   UNL     1      -3.304  -1.843  12.029  0.00  0.00    -0.084 Cl
ENDBRANCH  24  27
ENDBRANCH  22  23
BRANCH  22  34
ATOM     34  C   UNL     1      -5.442   1.649   4.225  0.00  0.00    +0.186 C 
BRANCH  34  35
ATOM     35  O   UNL     1      -4.454   2.637   4.523  0.00  0.00    -0.393 OA
ATOM     36  H   UNL     1      -4.793   3.542   4.531  0.00  0.00    +0.209 HD
ENDBRANCH  34  35
ENDBRANCH  22  34
ENDBRANCH   4  22
TORSDOF 10
