REMARK  Name = ZINC00063775
REMARK  5 active torsions:
REMARK  status: ('A' for Active; 'I' for Inactive)
REMARK    1  A    between atoms: C_3  and  O_8
REMARK    2  A    between atoms: C_6  and  N_7
REMARK    3  A    between atoms: O_8  and  C_9
REMARK    4  A    between atoms: N_17  and  C_20
REMARK    5  A    between atoms: C_23  and  O_26
REMARK                            x       y       z     vdW  Elec       q    Type
REMARK                         _______ _______ _______ _____ _____    ______ ____
ROOT
ATOM      1  C   UNL     1       1.174   3.156   0.017  0.00  0.00    +0.129 A 
ATOM      2  C   UNL     1       1.208   1.769   0.078  0.00  0.00    +0.047 A 
ATOM      3  C   UNL     1       0.032   1.040   0.096  0.00  0.00    +0.017 A 
ATOM      4  C   UNL     1      -1.189   1.699   0.049  0.00  0.00    +0.050 A 
ATOM      5  C   UNL     1      -1.226   3.109  -0.007  0.00  0.00    +0.053 A 
ATOM      6  C   UNL     1      -0.045   3.829  -0.025  0.00  0.00    +0.060 A 
ATOM      7  C   UNL     1      -2.658   3.474  -0.039  0.00  0.00    +0.258 C 
ATOM      8  O   UNL     1      -3.101   4.604  -0.093  0.00  0.00    -0.269 OA
ATOM      9  N   UNL     1      -3.388   2.345   0.001  0.00  0.00    -0.202 N 
ATOM     10  C   UNL     1      -2.597   1.258   0.057  0.00  0.00    +0.258 C 
ATOM     11  O   UNL     1      -2.978   0.106   0.103  0.00  0.00    -0.269 OA
ENDROOT
BRANCH   9  12
ATOM     12  C   UNL     1      -4.790   2.305  -0.013  0.00  0.00    +0.045 A 
ATOM     13  C   UNL     1      -5.518   3.486  -0.067  0.00  0.00    +0.027 A 
ATOM     14  C   UNL     1      -6.898   3.447  -0.087  0.00  0.00    +0.047 A 
ATOM     15  C   UNL     1      -7.558   2.228  -0.041  0.00  0.00    +0.117 A 
ATOM     16  C   UNL     1      -6.832   1.047   0.018  0.00  0.00    +0.047 A 
ATOM     17  C   UNL     1      -5.451   1.085   0.032  0.00  0.00    +0.027 A 
BRANCH  15  18
ATOM     18  O   UNL     1      -8.917   2.189  -0.055  0.00  0.00    -0.507 OA
ATOM     19  H   UNL     1      -9.320   2.217   0.824  0.00  0.00    +0.292 HD
ENDBRANCH  15  18
ENDBRANCH   9  12
BRANCH   1  20
ATOM     20  O   UNL     1       2.335   3.859   0.001  0.00  0.00    -0.456 OA
BRANCH  20  23
ATOM     21  C   UNL     1       5.195   4.234  -2.217  0.00  0.00    +0.026 A 
ATOM     22  C   UNL     1       4.385   4.345  -1.105  0.00  0.00    +0.048 A 
ATOM     23  C   UNL     1       3.132   3.748  -1.095  0.00  0.00    +0.129 A 
ATOM     24  C   UNL     1       2.696   3.033  -2.201  0.00  0.00    +0.048 A 
ATOM     25  C   UNL     1       3.502   2.925  -3.317  0.00  0.00    +0.026 A 
ATOM     26  C   UNL     1       4.756   3.523  -3.327  0.00  0.00    +0.025 A 
BRANCH  26  27
ATOM     27  N   UNL     1       5.576   3.410  -4.455  0.00  0.00    -0.358 N 
ATOM     28  H   UNL     1       6.452   3.827  -4.462  0.00  0.00    +0.142 HD
ATOM     29  H   UNL     1       5.269   2.913  -5.230  0.00  0.00    +0.142 HD
ENDBRANCH  26  27
ENDBRANCH  20  23
ENDBRANCH   1  20
TORSDOF 5
