REMARK  Name = ZINC65699948
REMARK  8 active torsions:
REMARK  status: ('A' for Active; 'I' for Inactive)
REMARK    1  A    between atoms: C_1  and  C_2
REMARK    2  A    between atoms: C_4  and  C_22
REMARK    3  A    between atoms: C_7  and  N_8
REMARK    4  A    between atoms: C_9  and  C_11
REMARK    5  A    between atoms: N_13  and  C_14
REMARK    6  A    between atoms: C_18  and  C_21
REMARK    7  A    between atoms: C_19  and  C_20
REMARK    8  A    between atoms: N_24  and  C_25
REMARK                            x       y       z     vdW  Elec       q    Type
REMARK                         _______ _______ _______ _____ _____    ______ ____
ROOT
ATOM      1  C   UNL     1      -1.270   1.182   0.184  0.00  0.00    +0.045 C 
ATOM      2  C   UNL     1      -0.589  -0.159   0.086  0.00  0.00    -0.029 A 
ATOM      3  C   UNL     1      -0.579  -0.839  -1.111  0.00  0.00    +0.018 A 
ATOM      4  C   UNL     1       0.053  -2.082  -1.202  0.00  0.00    +0.037 A 
ATOM      5  C   UNL     1       0.672  -2.631  -0.075  0.00  0.00    +0.015 A 
ATOM      6  C   UNL     1       0.658  -1.947   1.119  0.00  0.00    +0.024 A 
ATOM      7  C   UNL     1       0.033  -0.706   1.204  0.00  0.00    +0.037 A 
ENDROOT
BRANCH   7   8
ATOM      8  N   UNL     1       0.025  -0.013   2.412  0.00  0.00    -0.278 N 
ATOM      9  C   UNL     1      -0.057  -0.689   3.576  0.00  0.00    +0.303 C 
ATOM     10  O   UNL     1      -0.040  -1.903   3.575  0.00  0.00    -0.265 OA
ATOM     11  H   UNL     1       0.078   0.955   2.417  0.00  0.00    +0.155 HD
BRANCH   9  12
ATOM     12  C   UNL     1      -0.168   0.056   4.866  0.00  0.00    +0.300 C 
ATOM     13  O   UNL     1      -0.185   1.269   4.866  0.00  0.00    -0.265 OA
ATOM     14  N   UNL     1      -0.249  -0.620   6.029  0.00  0.00    -0.304 N 
ATOM     15  H   UNL     1      -0.236  -1.590   6.029  0.00  0.00    +0.149 HD
BRANCH  14  16
ATOM     16  C   UNL     1      -0.358   0.111   7.294  0.00  0.00    +0.076 C 
ATOM     17  C   UNL     1      -1.825   0.454   7.560  0.00  0.00    +0.022 C 
ATOM     18  C   UNL     1      -2.644  -0.836   7.644  0.00  0.00    +0.002 C 
ATOM     19  C   UNL     1      -2.109  -1.706   8.783  0.00  0.00    +0.003 C 
ATOM     20  C   UNL     1      -0.642  -2.049   8.517  0.00  0.00    -0.009 C 
ATOM     21  C   UNL     1       0.176  -0.760   8.433  0.00  0.00    +0.009 C 
ATOM     22  C   UNL     1       1.643  -1.103   8.167  0.00  0.00    +0.009 C 
ATOM     23  C   UNL     1      -0.108  -2.920   9.656  0.00  0.00    +0.008 C 
ENDBRANCH  14  16
ENDBRANCH   9  12
ENDBRANCH   7   8
BRANCH   4  24
ATOM     24  C   UNL     1       0.066  -2.813  -2.483  0.00  0.00    +0.244 C 
ATOM     25  O   UNL     1      -0.473  -2.334  -3.462  0.00  0.00    -0.270 OA
ATOM     26  N   UNL     1       0.675  -4.012  -2.569  0.00  0.00    -0.308 N 
ATOM     27  H   UNL     1       1.106  -4.394  -1.788  0.00  0.00    +0.149 HD
BRANCH  26  28
ATOM     28  C   UNL     1       0.688  -4.739  -3.841  0.00  0.00    +0.073 C 
ATOM     29  C   UNL     1      -0.575  -5.616  -3.962  0.00  0.00    +0.022 C 
ATOM     30  C   UNL     1      -0.078  -6.902  -4.668  0.00  0.00    +0.002 C 
ATOM     31  C   UNL     1       1.321  -7.119  -4.040  0.00  0.00    +0.002 C 
ATOM     32  C   UNL     1       1.893  -5.694  -3.891  0.00  0.00    +0.022 C 
ENDBRANCH  26  28
ENDBRANCH   4  24
TORSDOF 5
