REMARK  Name = ZINC14666810
REMARK  10 active torsions:
REMARK  status: ('A' for Active; 'I' for Inactive)
REMARK    1  A    between atoms: C_1  and  C_2
REMARK    2  A    between atoms: C_2  and  C_3
REMARK    3  A    between atoms: C_2  and  C_4
REMARK    4  A    between atoms: C_2  and  C_5
REMARK    5  A    between atoms: C_10  and  O_11
REMARK    6  A    between atoms: O_11  and  C_12
REMARK    7  A    between atoms: C_12  and  C_13
REMARK    8  A    between atoms: N_15  and  N_16
REMARK    9  A    between atoms: C_17  and  C_19
REMARK   10  A    between atoms: C_23  and  N_25
REMARK                            x       y       z     vdW  Elec       q    Type
REMARK                         _______ _______ _______ _____ _____    ______ ____
ROOT
ATOM      1  C   UNL     1       2.227   8.103   0.020  0.00  0.00    +0.267 C 
ATOM      2  O   UNL     1       3.285   7.511   0.007  0.00  0.00    -0.271 OA
ATOM      3  N   UNL     1       1.069   7.414   0.028  0.00  0.00    -0.231 N 
ATOM      4  H   UNL     1       0.222   7.887   0.039  0.00  0.00    +0.173 HD
ENDROOT
BRANCH   3   5
ATOM      5  N   UNL     1       1.088   6.013   0.022  0.00  0.00    -0.230 N 
ATOM      6  C   UNL     1      -0.070   5.323   0.030  0.00  0.00    +0.260 C 
ATOM      7  O   UNL     1      -1.131   5.916   0.043  0.00  0.00    -0.269 OA
ATOM      8  H   UNL     1       1.934   5.539   0.011  0.00  0.00    +0.173 HD
BRANCH   6   9
ATOM      9  C   UNL     1      -0.050   3.845   0.023  0.00  0.00    +0.040 A 
ATOM     10  C   UNL     1       1.166   3.160   0.007  0.00  0.00    +0.013 A 
ATOM     11  C   UNL     1       1.178   1.781   0.000  0.00  0.00    +0.003 A 
ATOM     12  C   UNL     1      -0.013   1.076   0.008  0.00  0.00    +0.033 A 
ATOM     13  C   UNL     1      -1.222   1.748   0.017  0.00  0.00    +0.127 A 
ATOM     14  C   UNL     1      -1.247   3.128   0.031  0.00  0.00    +0.045 A 
BRANCH  13  15
ATOM     15  N   UNL     1      -2.490   0.986   0.019  0.00  0.00    +0.056 N 
ATOM     16  O   UNL     1      -2.469  -0.232   0.013  0.00  0.00    -0.126 OA
ATOM     17  O   UNL     1      -3.556   1.576   0.028  0.00  0.00    -0.126 OA
ENDBRANCH  13  15
ENDBRANCH   6   9
ENDBRANCH   3   5
BRANCH   1  18
ATOM     18  C   UNL     1       2.206   9.610   0.028  0.00  0.00    +0.326 C 
BRANCH  18  19
ATOM     19  O   UNL     1       3.547  10.105   0.017  0.00  0.00    -0.482 OA
BRANCH  19  25
ATOM     20  C   UNL     1       4.981  12.003   0.011  0.00  0.00    -0.000 A 
ATOM     21  C   UNL     1       5.140  13.376   0.016  0.00  0.00    +0.008 A 
ATOM     22  C   UNL     1       4.032  14.202   0.031  0.00  0.00    +0.001 A 
ATOM     23  C   UNL     1       2.761  13.657   0.041  0.00  0.00    +0.004 A 
ATOM     24  C   UNL     1       2.596  12.286   0.030  0.00  0.00    +0.046 A 
ATOM     25  C   UNL     1       3.707  11.454   0.021  0.00  0.00    +0.125 A 
BRANCH  20  27
ATOM     26  C   UNL     1       7.460  11.956  -0.014  0.00  0.00    +0.015 C 
ATOM     27  C   UNL     1       6.189  11.103  -0.006  0.00  0.00    -0.009 C 
ATOM     28  C   UNL     1       6.180  10.214   1.239  0.00  0.00    +0.015 C 
ATOM     29  C   UNL     1       6.155  10.226  -1.259  0.00  0.00    +0.015 C 
ENDBRANCH  20  27
ENDBRANCH  19  25
ENDBRANCH  18  19
ENDBRANCH   1  18
TORSDOF 7
