REMARK  Name = ZINC18196268
REMARK  5 active torsions:
REMARK  status: ('A' for Active; 'I' for Inactive)
REMARK    1  A    between atoms: C_1  and  O_2
REMARK    2  A    between atoms: O_2  and  C_3
REMARK    3  A    between atoms: C_7  and  C_10
REMARK    4  A    between atoms: C_8  and  O_9
REMARK    5  A    between atoms: C_18  and  O_19
REMARK                            x       y       z     vdW  Elec       q    Type
REMARK                         _______ _______ _______ _____ _____    ______ ____
ROOT
ATOM      1  C   UNL     1       1.394  -4.134   2.219  0.00  0.00    +0.097 C 
ATOM      2  C   UNL     1       2.836  -4.579   2.251  0.00  0.00    +0.067 A 
ATOM      3  C   UNL     1       3.445  -5.118   3.353  0.00  0.00    +0.126 A 
ATOM      4  N   UNL     1       4.725  -5.391   3.022  0.00  0.00    -0.260 N 
ATOM      5  H   UNL     1       5.396  -5.778   3.607  0.00  0.00    +0.190 HD
ATOM      6  N   UNL     1       4.910  -5.018   1.683  0.00  0.00    -0.134 NA
ATOM      7  C   UNL     1       3.778  -4.531   1.225  0.00  0.00    +0.237 A 
ATOM      8  N   UNL     1       2.790  -5.320   4.568  0.00  0.00    -0.299 N 
ATOM      9  C   UNL     1       1.419  -5.166   4.550  0.00  0.00    +0.048 C 
ATOM     10  C   UNL     1       0.733  -4.627   3.488  0.00  0.00    +0.034 C 
ATOM     11  C   UNL     1      -0.650  -4.613   3.772  0.00  0.00    +0.193 C 
ATOM     12  O   UNL     1      -1.530  -4.202   3.039  0.00  0.00    -0.287 OA
ATOM     13  C   UNL     1      -0.835  -5.187   5.122  0.00  0.00    +0.031 A 
ATOM     14  C   UNL     1       0.459  -5.528   5.601  0.00  0.00    +0.007 A 
ATOM     15  C   UNL     1       0.631  -6.094   6.854  0.00  0.00    +0.010 A 
ATOM     16  C   UNL     1      -0.522  -6.310   7.614  0.00  0.00    +0.001 A 
ATOM     17  C   UNL     1      -1.773  -5.979   7.149  0.00  0.00    +0.001 A 
ATOM     18  C   UNL     1      -1.967  -5.408   5.883  0.00  0.00    +0.012 A 
ATOM     19  H   UNL     1       3.270  -5.556   5.377  0.00  0.00    +0.154 HD
ENDROOT
BRANCH   1  24
ATOM     20  C   UNL     1       0.626  -0.619   1.042  0.00  0.00    +0.162 A 
ATOM     21  C   UNL     1       1.202   0.137   2.051  0.00  0.00    +0.049 A 
ATOM     22  C   UNL     1       1.836  -0.490   3.108  0.00  0.00    +0.004 A 
ATOM     23  C   UNL     1       1.897  -1.870   3.161  0.00  0.00    +0.008 A 
ATOM     24  C   UNL     1       1.325  -2.630   2.158  0.00  0.00    +0.010 A 
ATOM     25  C   UNL     1       0.683  -2.008   1.099  0.00  0.00    +0.163 A 
BRANCH  20  27
ATOM     26  C   UNL     1      -0.017   1.425   0.010  0.00  0.00    +0.277 C 
ATOM     27  O   UNL     1       0.002  -0.004   0.002  0.00  0.00    -0.491 OA
ENDBRANCH  20  27
BRANCH  25  28
ATOM     28  O   UNL     1       0.115  -2.754   0.114  0.00  0.00    -0.503 OA
ATOM     29  H   UNL     1       0.711  -2.957  -0.620  0.00  0.00    +0.292 HD
ENDBRANCH  25  28
ENDBRANCH   1  24
BRANCH   7  31
ATOM     30  H   UNL     1       3.743  -3.117  -0.137  0.00  0.00    +0.294 HD
ATOM     31  O   UNL     1       3.563  -4.062  -0.033  0.00  0.00    -0.491 OA
ENDBRANCH   7  31
TORSDOF 4
