REMARK  Name = ZINC42953437
REMARK  9 active torsions:
REMARK  status: ('A' for Active; 'I' for Inactive)
REMARK    1  A    between atoms: C_1  and  C_2
REMARK    2  A    between atoms: C_7  and  C_8
REMARK    3  A    between atoms: C_8  and  N_9
REMARK    4  A    between atoms: N_9  and  C_10
REMARK    5  A    between atoms: N_9  and  C_11
REMARK    6  A    between atoms: C_11  and  C_13
REMARK    7  A    between atoms: C_11  and  C_20
REMARK    8  A    between atoms: C_20  and  C_22
REMARK    9  A    between atoms: C_20  and  N_23
REMARK                            x       y       z     vdW  Elec       q    Type
REMARK                         _______ _______ _______ _____ _____    ______ ____
ROOT
ATOM      1  C   UNL     1      -1.359   1.597   3.899  0.00  0.00    -0.053 C 
ENDROOT
BRANCH   1   2
ATOM      2  C   UNL     1      -0.857   2.988   3.604  0.00  0.00    -0.062 A 
ATOM      3  C   UNL     1      -1.255   3.635   2.449  0.00  0.00    +0.003 A 
ATOM      4  C   UNL     1      -0.796   4.911   2.179  0.00  0.00    +0.015 A 
ATOM      5  C   UNL     1       0.061   5.539   3.064  0.00  0.00    +0.018 A 
ATOM      6  C   UNL     1       0.459   4.891   4.219  0.00  0.00    +0.015 A 
ATOM      7  C   UNL     1      -0.005   3.618   4.492  0.00  0.00    +0.003 A 
ATOM      8 BR   UNL     1       0.690   7.284   2.694  0.00  0.00    -0.050 Br
ENDBRANCH   1   2
BRANCH   1   9
ATOM      9  N   UNL     1      -0.745   0.647   2.962  0.00  0.00    +0.384 N 
ATOM     10  C   UNL     1       0.710   0.631   3.163  0.00  0.00    -0.095 C 
ATOM     11  H   UNL     1      -1.118  -0.276   3.127  0.00  0.00    -0.081 HD
BRANCH   9  12
ATOM     12  C   UNL     1      -1.044   1.057   1.583  0.00  0.00    -0.042 C 
BRANCH  12  19
ATOM     13  C   UNL     1      -2.600  -1.307   1.002  0.00  0.00    +0.044 C 
ATOM     14  C   UNL     1      -1.258  -1.109   0.347  0.00  0.00    -0.049 A 
ATOM     15  C   UNL     1      -0.773  -2.056  -0.536  0.00  0.00    +0.003 A 
ATOM     16  C   UNL     1       0.458  -1.875  -1.137  0.00  0.00    +0.000 A 
ATOM     17  C   UNL     1       1.205  -0.746  -0.855  0.00  0.00    +0.000 A 
ATOM     18  C   UNL     1       0.720   0.201   0.027  0.00  0.00    +0.002 A 
ATOM     19  C   UNL     1      -0.513   0.021   0.625  0.00  0.00    -0.061 A 
ENDBRANCH  12  19
ENDBRANCH   9  12
ENDBRANCH   1   9
BRANCH   1  20
ATOM     20  C   UNL     1      -2.880   1.559   3.741  0.00  0.00    -0.088 C 
ATOM     21  C   UNL     1      -3.403   0.189   4.174  0.00  0.00    -0.016 C 
BRANCH  20  22
ATOM     22  N   UNL     1      -3.485   2.602   4.580  0.00  0.00    +0.379 N 
ATOM     23  H   UNL     1      -3.140   3.506   4.294  0.00  0.00    -0.090 HD
ATOM     24  H   UNL     1      -4.489   2.577   4.476  0.00  0.00    -0.090 HD
ATOM     25  H   UNL     1      -3.243   2.440   5.546  0.00  0.00    -0.090 HD
ENDBRANCH  20  22
ENDBRANCH   1  20
TORSDOF 6
