REMARK  Name = ZINC14957771
REMARK  7 active torsions:
REMARK  status: ('A' for Active; 'I' for Inactive)
REMARK    1  A    between atoms: C_6  and  C_7
REMARK    2  A    between atoms: C_7  and  O_19
REMARK    3  A    between atoms: C_12  and  C_13
REMARK    4  A    between atoms: C_12  and  N_68
REMARK    5  A    between atoms: C_21  and  C_23
REMARK    6  A    between atoms: N_25  and  C_26
REMARK    7  A    between atoms: C_26  and  C_27
REMARK                            x       y       z     vdW  Elec       q    Type
REMARK                         _______ _______ _______ _____ _____    ______ ____
ROOT
ATOM      1  C   UNL     1     -10.741   2.846   1.092  0.00  0.00    +0.010 A 
ATOM      2  C   UNL     1      -9.365   2.919   1.053  0.00  0.00    +0.047 A 
ATOM      3  C   UNL     1      -8.653   2.094   0.190  0.00  0.00    +0.136 A 
ATOM      4  C   UNL     1      -9.355   1.194  -0.633  0.00  0.00    +0.021 A 
ATOM      5  C   UNL     1     -10.749   1.136  -0.578  0.00  0.00    +0.018 A 
ATOM      6  C   UNL     1     -11.428   1.957   0.278  0.00  0.00    -0.015 A 
ATOM      7  C   UNL     1      -8.335   0.486  -1.406  0.00  0.00    +0.063 A 
ATOM      8  C   UNL     1      -7.141   0.993  -1.006  0.00  0.00    +0.190 A 
ATOM      9  O   UNL     1      -7.339   1.936  -0.062  0.00  0.00    -0.450 OA
ENDROOT
BRANCH   6  10
ATOM     10  C   UNL     1     -12.933   1.896   0.339  0.00  0.00    +0.088 C 
ATOM     11  C   UNL     1     -13.526   2.884  -0.669  0.00  0.00    +0.021 C 
ATOM     12  C   UNL     1     -15.052   2.863  -0.559  0.00  0.00    -0.076 C 
ATOM     13  C   UNL     1     -14.933   2.264   1.786  0.00  0.00    -0.076 C 
ATOM     14  C   UNL     1     -13.403   2.268   1.747  0.00  0.00    +0.021 C 
ATOM     15  N   UNL     1     -15.441   3.254   0.812  0.00  0.00    +0.380 N 
ATOM     16  H   UNL     1     -15.032   4.171   1.026  0.00  0.00    -0.082 HD
BRANCH  10  17
ATOM     17  O   UNL     1     -13.370   0.572   0.024  0.00  0.00    -0.384 OA
ATOM     18  H   UNL     1     -13.108   0.271  -0.857  0.00  0.00    +0.211 HD
ENDBRANCH  10  17
BRANCH  15  19
ATOM     19  C   UNL     1     -16.912   3.350   0.912  0.00  0.00    -0.075 C 
BRANCH  19  20
ATOM     20  C   UNL     1     -17.425   4.288  -0.183  0.00  0.00    -0.028 C 
ATOM     21  C   UNL     1     -16.821   5.680   0.012  0.00  0.00    +0.002 C 
ATOM     22  C   UNL     1     -17.334   6.617  -1.083  0.00  0.00    +0.000 C 
ATOM     23  C   UNL     1     -18.859   6.707  -1.004  0.00  0.00    +0.000 C 
ATOM     24  C   UNL     1     -19.463   5.316  -1.199  0.00  0.00    +0.000 C 
ATOM     25  C   UNL     1     -18.950   4.378  -0.104  0.00  0.00    +0.002 C 
ENDBRANCH  19  20
ENDBRANCH  15  19
ENDBRANCH   6  10
BRANCH   8  26
ATOM     26  C   UNL     1      -5.829   0.573  -1.519  0.00  0.00    +0.279 C 
ATOM     27  O   UNL     1      -5.758  -0.293  -2.370  0.00  0.00    -0.267 OA
ATOM     28  N   UNL     1      -4.705   1.148  -1.047  0.00  0.00    -0.306 N 
ATOM     29  H   UNL     1      -4.762   1.839  -0.369  0.00  0.00    +0.149 HD
BRANCH  28  30
ATOM     30  C   UNL     1      -3.397   0.730  -1.559  0.00  0.00    +0.136 C 
BRANCH  30  31
ATOM     31  C   UNL     1      -2.297   1.532  -0.863  0.00  0.00    +0.135 C 
ATOM     32  C   UNL     1      -0.928   1.190  -1.482  0.00  0.00    +0.035 C 
ATOM     33  C   UNL     1      -0.093   0.662  -0.289  0.00  0.00    +0.031 C 
ATOM     34  C   UNL     1      -0.851   1.256   0.926  0.00  0.00    +0.160 C 
ATOM     35  O   UNL     1      -2.238   1.177   0.529  0.00  0.00    -0.375 OA
ENDBRANCH  30  31
ENDBRANCH  28  30
ENDBRANCH   8  26
TORSDOF 7
