REMARK  Name = ZINC59995779
REMARK  12 active torsions:
REMARK  status: ('A' for Active; 'I' for Inactive)
REMARK    1  A    between atoms: C_1  and  C_2
REMARK    2  A    between atoms: C_2  and  N_3
REMARK    3  A    between atoms: N_3  and  C_4
REMARK    4  A    between atoms: N_3  and  S_6
REMARK    5  A    between atoms: C_4  and  C_5
REMARK    6  A    between atoms: S_6  and  C_9
REMARK    7  A    between atoms: C_15  and  C_20
REMARK    8  A    between atoms: N_22  and  C_23
REMARK    9  A    between atoms: C_23  and  C_25
REMARK   10  A    between atoms: C_23  and  C_26
REMARK   11  A    between atoms: C_26  and  N_27
REMARK   12  A    between atoms: C_31  and  C_34
REMARK                            x       y       z     vdW  Elec       q    Type
REMARK                         _______ _______ _______ _____ _____    ______ ____
ROOT
ATOM      1  C   UNL     1      -0.412   0.333  -3.765  0.00  0.00    +0.106 A 
ATOM      2  C   UNL     1      -1.513   1.151  -3.550  0.00  0.00    +0.030 A 
ATOM      3  C   UNL     1      -1.612   2.373  -4.178  0.00  0.00    +0.028 A 
ATOM      4  C   UNL     1      -0.600   2.795  -5.037  0.00  0.00    +0.050 A 
ATOM      5  C   UNL     1       0.512   1.962  -5.252  0.00  0.00    +0.012 A 
ATOM      6  C   UNL     1       0.595   0.728  -4.599  0.00  0.00    +0.039 A 
ATOM      7  C   UNL     1       1.583   2.405  -6.159  0.00  0.00    +0.051 A 
ATOM      8  C   UNL     1       1.460   3.620  -6.768  0.00  0.00    +0.083 A 
ATOM      9  C   UNL     1       0.279   4.440  -6.505  0.00  0.00    +0.250 A 
ATOM     10  N   UNL     1      -0.687   4.015  -5.673  0.00  0.00    -0.322 N 
ATOM     11  O   UNL     1       0.169   5.525  -7.048  0.00  0.00    -0.268 OA
ATOM     12  H   UNL     1      -1.461   4.578  -5.515  0.00  0.00    +0.169 HD
ENDROOT
BRANCH   7  13
ATOM     13  C   UNL     1       2.769   1.549  -6.405  0.00  0.00    +0.245 C 
ATOM     14  O   UNL     1       2.812   0.424  -5.949  0.00  0.00    -0.270 OA
ATOM     15  N   UNL     1       3.800   2.021  -7.134  0.00  0.00    -0.311 N 
ATOM     16  H   UNL     1       3.796   2.941  -7.441  0.00  0.00    +0.149 HD
BRANCH  15  17
ATOM     17  C   UNL     1       4.926   1.144  -7.463  0.00  0.00    +0.054 C 
ATOM     18  C   UNL     1       4.558   0.270  -8.664  0.00  0.00    +0.026 C 
BRANCH  17  19
ATOM     19  C   UNL     1       6.151   1.994  -7.807  0.00  0.00    -0.057 C 
BRANCH  19  20
ATOM     20  N   UNL     1       7.304   1.116  -8.049  0.00  0.00    +0.381 N 
ATOM     21  C   UNL     1       7.663   0.428  -6.803  0.00  0.00    -0.079 C 
ATOM     22  C   UNL     1       8.811  -0.548  -7.067  0.00  0.00    -0.018 C 
ATOM     23  C   UNL     1      10.023   0.228  -7.591  0.00  0.00    -0.001 C 
ATOM     24  C   UNL     1       9.617   1.000  -8.849  0.00  0.00    -0.031 C 
ATOM     25  C   UNL     1       8.439   1.919  -8.519  0.00  0.00    -0.076 C 
ATOM     26  C   UNL     1      10.800   1.840  -9.337  0.00  0.00    +0.005 C 
ATOM     27  H   UNL     1       7.064   0.432  -8.751  0.00  0.00    -0.082 HD
ENDBRANCH  19  20
ENDBRANCH  17  19
ENDBRANCH  15  17
ENDBRANCH   7  13
BRANCH   1  28
ATOM     28  S   UNL     1      -0.309  -1.226  -2.950  0.00  0.00    +0.061 S 
ATOM     29  O   UNL     1       0.454  -2.077  -3.794  0.00  0.00    -0.153 OA
ATOM     30  O   UNL     1      -1.627  -1.552  -2.530  0.00  0.00    -0.153 OA
BRANCH  28  31
ATOM     31  N   UNL     1       0.584  -1.000  -1.573  0.00  0.00    -0.177 NA
BRANCH  31  33
ATOM     32  C   UNL     1      -0.050   0.887  -0.152  0.00  0.00    +0.022 C 
ATOM     33  C   UNL     1      -0.081  -0.634  -0.320  0.00  0.00    +0.106 C 
ENDBRANCH  31  33
BRANCH  31  34
ATOM     34  C   UNL     1       2.039  -1.168  -1.608  0.00  0.00    +0.106 C 
ATOM     35  C   UNL     1       2.399  -2.589  -1.172  0.00  0.00    +0.022 C 
ENDBRANCH  31  34
ENDBRANCH  28  31
ENDBRANCH   1  28
TORSDOF 8
