REMARK  Name = ZINC16570693
REMARK  4 active torsions:
REMARK  status: ('A' for Active; 'I' for Inactive)
REMARK    1  A    between atoms: C_6  and  C_7
REMARK    2  A    between atoms: C_9  and  C_19
REMARK    3  A    between atoms: N_10  and  C_12
REMARK    4  A    between atoms: N_21  and  C_22
REMARK                            x       y       z     vdW  Elec       q    Type
REMARK                         _______ _______ _______ _____ _____    ______ ____
ROOT
ATOM      1  C   UNL     1       2.416   3.900   0.247  0.00  0.00    +0.094 A 
ATOM      2  C   UNL     1       2.562   5.195  -0.283  0.00  0.00    +0.063 A 
ATOM      3  C   UNL     1       3.926   5.398  -0.380  0.00  0.00    +0.130 A 
ATOM      4  N   UNL     1       4.521   4.251   0.073  0.00  0.00    -0.227 N 
ATOM      5  N   UNL     1       3.623   3.405   0.427  0.00  0.00    -0.166 NA
ENDROOT
BRANCH   1  11
ATOM      6  C   UNL     1       1.136   1.922   1.063  0.00  0.00    +0.013 A 
ATOM      7  C   UNL     1      -0.058   1.288   1.338  0.00  0.00    +0.039 A 
ATOM      8  C   UNL     1      -1.260   1.933   1.092  0.00  0.00    +0.123 A 
ATOM      9  C   UNL     1      -1.267   3.220   0.579  0.00  0.00    +0.039 A 
ATOM     10  C   UNL     1      -0.077   3.861   0.302  0.00  0.00    +0.013 A 
ATOM     11  C   UNL     1       1.133   3.214   0.543  0.00  0.00    +0.002 A 
ATOM     12  F   UNL     1      -2.427   1.307   1.357  0.00  0.00    -0.205 F 
ENDBRANCH   1  11
BRANCH   4  13
ATOM     13  C   UNL     1       5.902   4.032   0.138  0.00  0.00    +0.066 A 
ATOM     14  C   UNL     1       6.457   2.906  -0.456  0.00  0.00    +0.029 A 
ATOM     15  C   UNL     1       7.821   2.696  -0.395  0.00  0.00    +0.022 A 
ATOM     16  C   UNL     1       8.633   3.601   0.267  0.00  0.00    +0.041 A 
ATOM     17  C   UNL     1       8.081   4.721   0.865  0.00  0.00    +0.022 A 
ATOM     18  C   UNL     1       6.719   4.939   0.801  0.00  0.00    +0.029 A 
ATOM     19 CL   UNL     1      10.345   3.330   0.347  0.00  0.00    -0.084 Cl
ENDBRANCH   4  13
BRANCH   3  20
ATOM     20  C   UNL     1       4.604   6.606  -0.875  0.00  0.00    +0.263 C 
ATOM     21  O   UNL     1       3.961   7.611  -1.111  0.00  0.00    -0.269 OA
ATOM     22  N   UNL     1       5.938   6.599  -1.068  0.00  0.00    -0.299 N 
ATOM     23  H   UNL     1       6.440   5.775  -0.959  0.00  0.00    +0.150 HD
BRANCH  22  24
ATOM     24  C   UNL     1       6.631   7.834  -1.441  0.00  0.00    +0.159 C 
ATOM     25  C   UNL     1       8.102   7.744  -1.029  0.00  0.00    +0.032 C 
ATOM     26  C   UNL     1       8.692   9.130  -0.832  0.00  0.00    +0.004 C 
ATOM     27  C   UNL     1       8.793   9.940  -2.111  0.00  0.00    +0.019 C 
ATOM     28  C   UNL     1       7.404  10.289  -2.647  0.00  0.00    +0.104 C 
ATOM     29  N   UNL     1       6.933   9.179  -3.492  0.00  0.00    -0.314 N 
ATOM     30  C   UNL     1       6.564   8.021  -2.943  0.00  0.00    +0.233 C 
ATOM     31  O   UNL     1       6.172   7.115  -3.647  0.00  0.00    -0.274 OA
ATOM     32  H   UNL     1       6.891   9.290  -4.455  0.00  0.00    +0.149 HD
ENDBRANCH  22  24
ENDBRANCH   3  20
TORSDOF 4
