REMARK  Name = ZINC36681271
REMARK  6 active torsions:
REMARK  status: ('A' for Active; 'I' for Inactive)
REMARK    1  A    between atoms: C_1  and  C_2
REMARK    2  A    between atoms: C_2  and  C_4
REMARK    3  A    between atoms: C_2  and  C_15
REMARK    4  A    between atoms: C_4  and  S_5
REMARK    5  A    between atoms: S_5  and  C_6
REMARK    6  A    between atoms: N_16  and  O_17
REMARK                            x       y       z     vdW  Elec       q    Type
REMARK                         _______ _______ _______ _____ _____    ______ ____
ROOT
ATOM      1  C   UNL     1      -1.433  -0.534   0.013  0.00  0.00    +0.089 C 
ENDROOT
BRANCH   1   3
ATOM      2  C   UNL     1      -0.019   1.526   0.010  0.00  0.00    +0.016 C 
ATOM      3  C   UNL     1       0.002  -0.004   0.002  0.00  0.00    +0.063 C 
BRANCH   3   4
ATOM      4  C   UNL     1       0.731  -0.503   1.223  0.00  0.00    +0.135 C 
ATOM      5  N   UNL     1       0.795   0.233   2.283  0.00  0.00    -0.076 NA
ATOM      6  N   UNL     1       1.329  -1.744   1.209  0.00  0.00    -0.344 N 
ATOM      7  H   UNL     1       1.281  -2.296   0.413  0.00  0.00    +0.144 HD
ATOM      8  H   UNL     1       1.798  -2.065   1.995  0.00  0.00    +0.144 HD
BRANCH   5   9
ATOM      9  O   UNL     1       1.480  -0.237   3.430  0.00  0.00    -0.408 OA
ATOM     10  H   UNL     1       1.474   0.383   4.172  0.00  0.00    +0.328 HD
ENDBRANCH   5   9
ENDBRANCH   3   4
ENDBRANCH   1   3
BRANCH   1  11
ATOM     11  S   UNL     1      -2.265  -0.057  -1.527  0.00  0.00    -0.066 S 
BRANCH  11  12
ATOM     12  C   UNL     1      -3.885  -0.731  -1.363  0.00  0.00    +0.258 A 
ATOM     13  N   UNL     1      -4.315  -1.407  -0.327  0.00  0.00    -0.203 NA
ATOM     14  C   UNL     1      -5.609  -1.768  -0.548  0.00  0.00    +0.110 A 
ATOM     15  C   UNL     1      -6.550  -2.483   0.194  0.00  0.00    +0.031 A 
ATOM     16  C   UNL     1      -7.812  -2.688  -0.319  0.00  0.00    +0.002 A 
ATOM     17  C   UNL     1      -8.152  -2.187  -1.566  0.00  0.00    +0.004 A 
ATOM     18  C   UNL     1      -7.231  -1.478  -2.311  0.00  0.00    +0.048 A 
ATOM     19  C   UNL     1      -5.957  -1.263  -1.810  0.00  0.00    +0.156 A 
ATOM     20  O   UNL     1      -4.862  -0.622  -2.280  0.00  0.00    -0.431 OA
ENDBRANCH  11  12
ENDBRANCH   1  11
TORSDOF 5
