REMARK  Name = ZINC16846764
REMARK  7 active torsions:
REMARK  status: ('A' for Active; 'I' for Inactive)
REMARK    1  A    between atoms: C_1  and  C_2
REMARK    2  A    between atoms: C_2  and  C_3
REMARK    3  A    between atoms: C_3  and  C_31
REMARK    4  A    between atoms: N_12  and  C_23
REMARK    5  A    between atoms: C_15  and  S_18
REMARK    6  A    between atoms: S_18  and  C_19
REMARK    7  A    between atoms: C_19  and  C_20
REMARK                            x       y       z     vdW  Elec       q    Type
REMARK                         _______ _______ _______ _____ _____    ______ ____
ROOT
ATOM      1  C   UNL     1      -2.574   0.777  -1.549  0.00  0.00    +0.071 C 
ATOM      2  C   UNL     1      -1.573   0.288  -2.601  0.00  0.00    +0.071 C 
ATOM      3  C   UNL     1      -1.606   1.265  -3.771  0.00  0.00    -0.018 A 
ATOM      4  C   UNL     1      -2.145   2.493  -3.607  0.00  0.00    +0.021 A 
ATOM      5  S   UNL     1      -1.977   3.272  -5.185  0.00  0.00    -0.072 S 
ATOM      6  C   UNL     1      -1.204   1.988  -6.040  0.00  0.00    +0.102 A 
ATOM      7  C   UNL     1      -1.083   0.967  -5.102  0.00  0.00    +0.075 A 
ATOM      8  C   UNL     1      -0.440  -0.281  -5.574  0.00  0.00    +0.268 A 
ATOM      9  O   UNL     1      -0.297  -1.221  -4.813  0.00  0.00    -0.266 OA
ATOM     10  N   UNL     1      -0.016  -0.373  -6.846  0.00  0.00    -0.245 N 
ATOM     11  C   UNL     1      -0.164   0.679  -7.736  0.00  0.00    +0.245 A 
ATOM     12  N   UNL     1      -0.754   1.849  -7.334  0.00  0.00    -0.249 N 
ATOM     13  C   UNL     1      -0.767   2.701  -8.407  0.00  0.00    +0.198 A 
ATOM     14  N   UNL     1      -0.211   2.086  -9.422  0.00  0.00    -0.120 NA
ATOM     15  N   UNL     1       0.171   0.807  -8.998  0.00  0.00    -0.109 NA
ATOM     16  C   UNL     1      -2.741   3.034  -2.345  0.00  0.00    +0.203 C 
ATOM     17  O   UNL     1      -2.357   2.163  -1.269  0.00  0.00    -0.368 OA
ATOM     18  C   UNL     1      -3.998   0.586  -2.075  0.00  0.00    +0.042 C 
ENDROOT
BRANCH  10  19
ATOM     19  C   UNL     1       0.590  -1.558  -7.281  0.00  0.00    +0.053 A 
ATOM     20  C   UNL     1      -0.182  -2.577  -7.822  0.00  0.00    +0.026 A 
ATOM     21  C   UNL     1       0.419  -3.742  -8.256  0.00  0.00    +0.002 A 
ATOM     22  C   UNL     1       1.788  -3.899  -8.140  0.00  0.00    +0.000 A 
ATOM     23  C   UNL     1       2.560  -2.889  -7.596  0.00  0.00    +0.002 A 
ATOM     24  C   UNL     1       1.965  -1.719  -7.166  0.00  0.00    +0.026 A 
ENDBRANCH  10  19
BRANCH   1  26
ATOM     25  C   UNL     1      -3.473   0.367   0.746  0.00  0.00    +0.007 C 
ATOM     26  C   UNL     1      -2.395  -0.033  -0.263  0.00  0.00    +0.032 C 
ENDBRANCH   1  26
BRANCH  13  27
ATOM     27  S   UNL     1      -1.419   4.338  -8.421  0.00  0.00    -0.076 S 
BRANCH  27  28
ATOM     28  C   UNL     1      -1.131   4.911 -10.117  0.00  0.00    +0.172 C 
BRANCH  28  29
ATOM     29  C   UNL     1      -1.649   6.318 -10.267  0.00  0.00    +0.221 C 
ATOM     30  O   UNL     1      -2.162   6.879  -9.322  0.00  0.00    -0.275 OA
ATOM     31  N   UNL     1      -1.542   6.953 -11.451  0.00  0.00    -0.329 N 
ATOM     32  H   UNL     1      -1.131   6.505 -12.207  0.00  0.00    +0.145 HD
ATOM     33  H   UNL     1      -1.875   7.859 -11.547  0.00  0.00    +0.145 HD
ENDBRANCH  28  29
ENDBRANCH  27  28
ENDBRANCH  13  27
TORSDOF 5
