REMARK  Name = ZINC10345895
REMARK  10 active torsions:
REMARK  status: ('A' for Active; 'I' for Inactive)
REMARK    1  A    between atoms: C_1  and  C_2
REMARK    2  A    between atoms: C_2  and  C_3
REMARK    3  A    between atoms: C_7  and  C_28
REMARK    4  A    between atoms: C_8  and  N_9
REMARK    5  A    between atoms: C_13  and  S_15
REMARK    6  A    between atoms: S_15  and  C_16
REMARK    7  A    between atoms: C_16  and  C_17
REMARK    8  A    between atoms: N_19  and  C_20
REMARK    9  A    between atoms: C_20  and  C_22
REMARK   10  A    between atoms: C_20  and  C_23
REMARK                            x       y       z     vdW  Elec       q    Type
REMARK                         _______ _______ _______ _____ _____    ______ ____
ROOT
ATOM      1  N   UNL     1      -2.695   2.918  -0.002  0.00  0.00    -0.292 N 
ATOM      2  C   UNL     1      -3.928   3.470  -0.330  0.00  0.00    +0.187 A 
ATOM      3  N   UNL     1      -4.349   4.713  -0.196  0.00  0.00    -0.125 NA
ATOM      4  N   UNL     1      -5.622   5.051  -0.594  0.00  0.00    -0.133 NA
ATOM      5  C   UNL     1      -6.419   4.128  -1.098  0.00  0.00    +0.160 A 
ATOM      6  S   UNL     1      -5.367   2.686  -1.040  0.00  0.00    -0.024 S 
ATOM      7  H   UNL     1      -2.509   1.990  -0.212  0.00  0.00    +0.154 HD
ENDROOT
BRANCH   1  13
ATOM      8  C   UNL     1      -1.358   3.426   1.942  0.00  0.00    -0.026 A 
ATOM      9  C   UNL     1      -0.402   4.204   2.567  0.00  0.00    +0.005 A 
ATOM     10  C   UNL     1       0.196   5.247   1.884  0.00  0.00    +0.001 A 
ATOM     11  C   UNL     1      -0.169   5.523   0.579  0.00  0.00    +0.005 A 
ATOM     12  C   UNL     1      -1.127   4.753  -0.050  0.00  0.00    -0.029 A 
ATOM     13  C   UNL     1      -1.726   3.700   0.631  0.00  0.00    +0.039 A 
ATOM     14  C   UNL     1      -1.523   5.053  -1.472  0.00  0.00    +0.045 C 
BRANCH   8  16
ATOM     15  C   UNL     1      -1.268   0.984   2.362  0.00  0.00    +0.009 C 
ATOM     16  C   UNL     1      -2.005   2.285   2.685  0.00  0.00    +0.033 C 
ENDBRANCH   8  16
ENDBRANCH   1  13
BRANCH   5  17
ATOM     17  S   UNL     1      -8.078   4.278  -1.674  0.00  0.00    -0.088 S 
BRANCH  17  18
ATOM     18  C   UNL     1      -8.473   6.030  -1.421  0.00  0.00    +0.172 C 
BRANCH  18  19
ATOM     19  C   UNL     1      -9.884   6.298  -1.879  0.00  0.00    +0.224 C 
ATOM     20  O   UNL     1     -10.556   5.396  -2.332  0.00  0.00    -0.275 OA
ATOM     21  N   UNL     1     -10.398   7.540  -1.785  0.00  0.00    -0.305 N 
ATOM     22  H   UNL     1      -9.861   8.262  -1.423  0.00  0.00    +0.149 HD
BRANCH  21  23
ATOM     23  C   UNL     1     -11.769   7.801  -2.230  0.00  0.00    +0.136 C 
ATOM     24  C   UNL     1     -11.774   8.071  -3.736  0.00  0.00    +0.036 C 
BRANCH  23  25
ATOM     25  C   UNL     1     -12.314   9.003  -1.502  0.00  0.00    +0.125 A 
ATOM     26  C   UNL     1     -13.567   9.136  -1.032  0.00  0.00    +0.046 A 
ATOM     27  C   UNL     1     -13.642  10.410  -0.422  0.00  0.00    +0.041 A 
ATOM     28  C   UNL     1     -12.433  10.981  -0.564  0.00  0.00    +0.195 A 
ATOM     29  O   UNL     1     -11.633  10.125  -1.219  0.00  0.00    -0.466 OA
ENDBRANCH  23  25
ENDBRANCH  21  23
ENDBRANCH  18  19
ENDBRANCH  17  18
ENDBRANCH   5  17
TORSDOF 7
