REMARK  Name = ZINC06300892
REMARK  15 active torsions:
REMARK  status: ('A' for Active; 'I' for Inactive)
REMARK    1  A    between atoms: C_1  and  C_2
REMARK    2  A    between atoms: C_4  and  C_41
REMARK    3  A    between atoms: C_9  and  C_14
REMARK    4  A    between atoms: C_14  and  C_16
REMARK    5  A    between atoms: C_14  and  N_77
REMARK    6  A    between atoms: N_20  and  C_21
REMARK    7  A    between atoms: C_21  and  C_22
REMARK    8  A    between atoms: C_21  and  C_23
REMARK    9  A    between atoms: C_21  and  C_24
REMARK   10  A    between atoms: C_25  and  C_26
REMARK   11  A    between atoms: C_25  and  N_77
REMARK   12  A    between atoms: C_29  and  O_32
REMARK   13  A    between atoms: O_32  and  C_33
REMARK   14  A    between atoms: C_34  and  C_35
REMARK   15  A    between atoms: C_34  and  N_77
REMARK                            x       y       z     vdW  Elec       q    Type
REMARK                         _______ _______ _______ _____ _____    ______ ____
ROOT
ATOM      1  C   UNL     1       0.117   1.483  -0.496  0.00  0.00    +0.039 C 
ENDROOT
BRANCH   1  10
ATOM      2  C   UNL     1      -2.385   0.375  -7.434  0.00  0.00    +0.044 C 
ATOM      3  C   UNL     1      -2.085   1.291  -6.276  0.00  0.00    -0.050 A 
ATOM      4  C   UNL     1      -2.348   2.650  -6.387  0.00  0.00    +0.008 A 
ATOM      5  C   UNL     1      -2.083   3.506  -5.340  0.00  0.00    -0.026 A 
ATOM      6  C   UNL     1      -1.545   3.006  -4.159  0.00  0.00    +0.052 A 
ATOM      7  C   UNL     1      -1.279   1.628  -4.050  0.00  0.00    -0.001 A 
ATOM      8  C   UNL     1      -1.558   0.777  -5.125  0.00  0.00    +0.013 A 
ATOM      9  C   UNL     1      -0.714   1.111  -2.802  0.00  0.00    +0.017 A 
ATOM     10  C   UNL     1      -0.465   1.982  -1.793  0.00  0.00    +0.011 A 
ATOM     11  C   UNL     1      -0.755   3.354  -1.952  0.00  0.00    +0.251 A 
ATOM     12  O   UNL     1      -0.529   4.120  -1.031  0.00  0.00    -0.268 OA
ATOM     13  N   UNL     1      -1.270   3.839  -3.096  0.00  0.00    -0.322 N 
ATOM     14  H   UNL     1      -1.453   4.788  -3.173  0.00  0.00    +0.169 HD
ATOM     15  C   UNL     1      -2.373   4.978  -5.475  0.00  0.00    +0.046 C 
ENDBRANCH   1  10
BRANCH   1  16
ATOM     16  C   UNL     1      -0.883   1.683   0.613  0.00  0.00    +0.143 A 
ATOM     17  N   UNL     1      -1.168   2.812   1.216  0.00  0.00    -0.115 NA
ATOM     18  N   UNL     1      -2.071   2.573   2.103  0.00  0.00    -0.023 NA
ATOM     19  N   UNL     1      -2.365   1.319   2.087  0.00  0.00    -0.043 NA
ATOM     20  N   UNL     1      -1.653   0.737   1.182  0.00  0.00    -0.225 N 
BRANCH  20  21
ATOM     21  C   UNL     1      -1.678  -0.687   0.838  0.00  0.00    +0.059 C 
ATOM     22  C   UNL     1      -0.318  -1.312   1.153  0.00  0.00    +0.036 C 
ATOM     23  C   UNL     1      -2.764  -1.390   1.655  0.00  0.00    +0.036 C 
ATOM     24  C   UNL     1      -1.980  -0.846  -0.653  0.00  0.00    +0.036 C 
ENDBRANCH  20  21
ENDBRANCH   1  16
BRANCH   1  25
ATOM     25  N   UNL     1       1.336   2.257  -0.184  0.00  0.00    +0.394 N 
ATOM     26  H   UNL     1       1.070   3.223   0.043  0.00  0.00    -0.080 HD
BRANCH  25  27
ATOM     27  C   UNL     1       2.027   1.664   0.981  0.00  0.00    -0.041 C 
BRANCH  27  28
ATOM     28  C   UNL     1       1.346   2.140   2.238  0.00  0.00    -0.064 A 
ATOM     29  C   UNL     1       1.499   3.450   2.653  0.00  0.00    +0.005 A 
ATOM     30  C   UNL     1       0.872   3.890   3.802  0.00  0.00    +0.046 A 
ATOM     31  C   UNL     1       0.097   3.013   4.547  0.00  0.00    +0.120 A 
ATOM     32  C   UNL     1      -0.051   1.697   4.132  0.00  0.00    +0.046 A 
ATOM     33  C   UNL     1       0.574   1.264   2.979  0.00  0.00    +0.005 A 
BRANCH  31  34
ATOM     34  O   UNL     1      -0.518   3.442   5.680  0.00  0.00    -0.495 OA
ATOM     35  C   UNL     1      -0.322   4.809   6.047  0.00  0.00    +0.277 C 
ENDBRANCH  31  34
ENDBRANCH  27  28
ENDBRANCH  25  27
BRANCH  25  36
ATOM     36  C   UNL     1       2.240   2.271  -1.354  0.00  0.00    -0.045 C 
BRANCH  36  37
ATOM     37  C   UNL     1       3.264   3.392  -1.170  0.00  0.00    +0.102 C 
ATOM     38  C   UNL     1       4.107   3.566  -2.453  0.00  0.00    +0.032 C 
ATOM     39  C   UNL     1       5.524   3.891  -1.930  0.00  0.00    +0.030 C 
ATOM     40  C   UNL     1       5.370   3.875  -0.393  0.00  0.00    +0.160 C 
ATOM     41  O   UNL     1       4.218   3.039  -0.144  0.00  0.00    -0.378 OA
ENDBRANCH  36  37
ENDBRANCH  25  36
ENDBRANCH   1  25
TORSDOF 9
