REMARK  Name = ZINC54044283
REMARK  11 active torsions:
REMARK  status: ('A' for Active; 'I' for Inactive)
REMARK    1  A    between atoms: C_1  and  C_2
REMARK    2  A    between atoms: C_2  and  C_3
REMARK    3  A    between atoms: C_6  and  C_9
REMARK    4  A    between atoms: C_9  and  C_11
REMARK    5  A    between atoms: C_9  and  N_26
REMARK    6  A    between atoms: C_11  and  N_12
REMARK    7  A    between atoms: N_15  and  N_16
REMARK    8  A    between atoms: C_17  and  C_19
REMARK    9  A    between atoms: C_24  and  C_25
REMARK   10  A    between atoms: N_26  and  C_27
REMARK   11  A    between atoms: N_26  and  C_28
REMARK                            x       y       z     vdW  Elec       q    Type
REMARK                         _______ _______ _______ _____ _____    ______ ____
ROOT
ATOM      1  N   UNL     1       2.235  -0.053  -7.325  0.00  0.00    -0.299 N 
ATOM      2  C   UNL     1       2.462   1.062  -8.047  0.00  0.00    +0.316 C 
ATOM      3  O   UNL     1       3.582   1.305  -8.455  0.00  0.00    -0.251 OA
ATOM      4  N   UNL     1       1.448   1.908  -8.317  0.00  0.00    -0.218 N 
ATOM      5  H   UNL     1       1.342  -0.247  -7.000  0.00  0.00    +0.150 HD
ATOM      6  H   UNL     1       1.612   2.711  -8.837  0.00  0.00    +0.174 HD
ENDROOT
BRANCH   4   7
ATOM      7  N   UNL     1       0.159   1.628  -7.847  0.00  0.00    -0.229 N 
ATOM      8  C   UNL     1      -0.855   2.474  -8.117  0.00  0.00    +0.260 C 
ATOM      9  O   UNL     1      -0.651   3.480  -8.769  0.00  0.00    -0.269 OA
ATOM     10  H   UNL     1      -0.005   0.826  -7.328  0.00  0.00    +0.173 HD
BRANCH   8  11
ATOM     11  C   UNL     1      -2.217   2.179  -7.622  0.00  0.00    +0.041 A 
ATOM     12  C   UNL     1      -2.476   0.978  -6.959  0.00  0.00    +0.013 A 
ATOM     13  C   UNL     1      -3.748   0.709  -6.498  0.00  0.00    +0.001 A 
ATOM     14  C   UNL     1      -4.766   1.626  -6.693  0.00  0.00    +0.000 A 
ATOM     15  C   UNL     1      -4.516   2.817  -7.350  0.00  0.00    +0.004 A 
ATOM     16  C   UNL     1      -3.247   3.102  -7.810  0.00  0.00    -0.038 A 
ATOM     17  C   UNL     1      -2.974   4.403  -8.520  0.00  0.00    +0.044 C 
ENDBRANCH   8  11
ENDBRANCH   4   7
BRANCH   1  18
ATOM     18  C   UNL     1       3.337  -0.972  -7.031  0.00  0.00    +0.095 C 
BRANCH  18  19
ATOM     19  C   UNL     1       2.793  -2.206  -6.307  0.00  0.00    -0.021 C 
BRANCH  19  23
ATOM     20  C   UNL     1       1.025  -1.022  -2.603  0.00  0.00    -0.048 A 
ATOM     21  C   UNL     1       0.225  -1.270  -3.703  0.00  0.00    +0.004 A 
ATOM     22  C   UNL     1       0.798  -1.653  -4.902  0.00  0.00    +0.002 A 
ATOM     23  C   UNL     1       2.170  -1.787  -5.001  0.00  0.00    -0.059 A 
ATOM     24  C   UNL     1       2.970  -1.538  -3.901  0.00  0.00    +0.002 A 
ATOM     25  C   UNL     1       2.398  -1.151  -2.704  0.00  0.00    +0.004 A 
BRANCH  20  27
ATOM     26  C   UNL     1       0.292   0.921  -1.248  0.00  0.00    +0.009 C 
ATOM     27  C   UNL     1       0.402  -0.604  -1.297  0.00  0.00    +0.032 C 
ENDBRANCH  20  27
ENDBRANCH  19  23
BRANCH  19  28
ATOM     28  N   UNL     1       3.893  -3.145  -6.047  0.00  0.00    +0.382 N 
ATOM     29  C   UNL     1       3.359  -4.360  -5.417  0.00  0.00    -0.096 C 
ATOM     30  C   UNL     1       4.547  -3.497  -7.314  0.00  0.00    -0.096 C 
ATOM     31  H   UNL     1       4.565  -2.713  -5.430  0.00  0.00    -0.082 HD
ENDBRANCH  19  28
ENDBRANCH  18  19
ENDBRANCH   1  18
TORSDOF 7
