REMARK  Name = ZINC36313733
REMARK  15 active torsions:
REMARK  status: ('A' for Active; 'I' for Inactive)
REMARK    1  A    between atoms: C_1  and  C_2
REMARK    2  A    between atoms: C_2  and  C_3
REMARK    3  A    between atoms: C_3  and  C_4
REMARK    4  A    between atoms: C_4  and  C_5
REMARK    5  A    between atoms: C_5  and  C_7
REMARK    6  A    between atoms: C_5  and  O_37
REMARK    7  A    between atoms: C_7  and  N_8
REMARK    8  A    between atoms: N_8  and  C_9
REMARK    9  A    between atoms: N_8  and  C_15
REMARK   10  A    between atoms: C_9  and  C_10
REMARK   11  A    between atoms: C_15  and  C_16
REMARK   12  A    between atoms: C_17  and  C_36
REMARK   13  A    between atoms: N_19  and  C_30
REMARK   14  A    between atoms: C_20  and  O_21
REMARK   15  A    between atoms: O_21  and  C_22
REMARK                            x       y       z     vdW  Elec       q    Type
REMARK                         _______ _______ _______ _____ _____    ______ ____
ROOT
ATOM      1  C   UNL     1       2.627  -6.713  -5.120  0.00  0.00    +0.021 A 
ATOM      2  C   UNL     1       2.243  -6.695  -6.465  0.00  0.00    +0.065 A 
ATOM      3  N   UNL     1       3.263  -7.074  -7.192  0.00  0.00    -0.168 NA
ATOM      4  N   UNL     1       4.338  -7.348  -6.337  0.00  0.00    -0.200 N 
ATOM      5  C   UNL     1       3.926  -7.113  -5.062  0.00  0.00    +0.225 A 
ATOM      6  C   UNL     1       0.885  -6.306  -6.987  0.00  0.00    +0.068 C 
ENDROOT
BRANCH   4   7
ATOM      7  C   UNL     1       5.613  -7.782  -6.726  0.00  0.00    +0.069 A 
ATOM      8  C   UNL     1       6.741  -7.294  -6.080  0.00  0.00    +0.028 A 
ATOM      9  C   UNL     1       7.996  -7.723  -6.466  0.00  0.00    +0.002 A 
ATOM     10  C   UNL     1       8.129  -8.639  -7.493  0.00  0.00    +0.000 A 
ATOM     11  C   UNL     1       7.008  -9.127  -8.139  0.00  0.00    +0.002 A 
ATOM     12  C   UNL     1       5.750  -8.705  -7.754  0.00  0.00    +0.028 A 
ENDBRANCH   4   7
BRANCH   1  13
ATOM     13  C   UNL     1       1.759  -6.348  -3.945  0.00  0.00    -0.035 C 
BRANCH  13  14
ATOM     14  N   UNL     1       1.887  -4.911  -3.668  0.00  0.00    +0.389 N 
ATOM     15  H   UNL     1       2.856  -4.688  -3.492  0.00  0.00    -0.081 HD
BRANCH  14  16
ATOM     16  C   UNL     1       1.083  -4.565  -2.489  0.00  0.00    -0.046 C 
BRANCH  16  17
ATOM     17  C   UNL     1       1.691  -5.219  -1.247  0.00  0.00    +0.098 C 
BRANCH  17  18
ATOM     18  O   UNL     1       1.543  -6.638  -1.335  0.00  0.00    -0.394 OA
ATOM     19  H   UNL     1       0.625  -6.935  -1.394  0.00  0.00    +0.210 HD
ENDBRANCH  17  18
BRANCH  17  20
ATOM     20  C   UNL     1       0.971  -4.708   0.003  0.00  0.00    +0.029 C 
BRANCH  20  21
ATOM     21  C   UNL     1       1.658  -5.265   1.251  0.00  0.00    +0.002 C 
BRANCH  21  23
ATOM     22  C   UNL     1       1.626  -5.311   3.749  0.00  0.00    +0.004 C 
ATOM     23  C   UNL     1       0.938  -4.755   2.500  0.00  0.00    -0.003 C 
ENDBRANCH  21  23
ENDBRANCH  20  21
ENDBRANCH  17  20
ENDBRANCH  16  17
ENDBRANCH  14  16
BRANCH  14  24
ATOM     24  C   UNL     1       1.411  -4.145  -4.828  0.00  0.00    -0.003 C 
BRANCH  24  25
ATOM     25  C   UNL     1       1.643  -2.675  -4.588  0.00  0.00    +0.089 A 
ATOM     26  C   UNL     1       2.712  -1.970  -5.000  0.00  0.00    +0.042 A 
ATOM     27  C   UNL     1       2.518  -0.639  -4.562  0.00  0.00    +0.041 A 
ATOM     28  C   UNL     1       1.343  -0.612  -3.909  0.00  0.00    +0.195 A 
ATOM     29  O   UNL     1       0.814  -1.846  -3.933  0.00  0.00    -0.470 OA
ENDBRANCH  24  25
ENDBRANCH  14  24
ENDBRANCH  13  14
ENDBRANCH   1  13
BRANCH   5  30
ATOM     30  O   UNL     1       4.673  -7.255  -3.938  0.00  0.00    -0.435 OA
BRANCH  30  31
ATOM     31  C   UNL     1       4.771  -8.495  -3.389  0.00  0.00    +0.166 A 
ATOM     32  C   UNL     1       4.207  -9.586  -4.033  0.00  0.00    +0.052 A 
ATOM     33  C   UNL     1       4.308 -10.846  -3.474  0.00  0.00    +0.042 A 
ATOM     34  C   UNL     1       4.971 -11.021  -2.272  0.00  0.00    +0.126 A 
ATOM     35  C   UNL     1       5.534  -9.933  -1.625  0.00  0.00    +0.080 A 
ATOM     36  C   UNL     1       5.440  -8.672  -2.185  0.00  0.00    +0.168 A 
ATOM     37  F   UNL     1       5.995  -7.611  -1.558  0.00  0.00    -0.202 F 
ATOM     38  F   UNL     1       5.067 -12.253  -1.727  0.00  0.00    -0.205 F 
ENDBRANCH  30  31
ENDBRANCH   5  30
TORSDOF 13
