REMARK  Name = ZINC40003830
REMARK  15 active torsions:
REMARK  status: ('A' for Active; 'I' for Inactive)
REMARK    1  A    between atoms: C_1  and  C_2
REMARK    2  A    between atoms: C_2  and  N_3
REMARK    3  A    between atoms: N_3  and  C_4
REMARK    4  A    between atoms: N_3  and  C_6
REMARK    5  A    between atoms: C_4  and  C_5
REMARK    6  A    between atoms: C_6  and  C_7
REMARK    7  A    between atoms: C_7  and  N_8
REMARK    8  A    between atoms: C_9  and  C_29
REMARK    9  A    between atoms: C_11  and  C_16
REMARK   10  A    between atoms: C_16  and  C_18
REMARK   11  A    between atoms: C_19  and  C_28
REMARK   12  A    between atoms: C_26  and  C_27
REMARK   13  A    between atoms: C_32  and  O_37
REMARK   14  A    between atoms: C_33  and  O_35
REMARK   15  A    between atoms: O_35  and  C_36
REMARK                            x       y       z     vdW  Elec       q    Type
REMARK                         _______ _______ _______ _____ _____    ______ ____
ROOT
ATOM      1  N   UNL     1      -2.251  -4.925  -0.404  0.00  0.00    -0.285 N 
ATOM      2  C   UNL     1      -2.331  -5.974  -1.427  0.00  0.00    +0.145 C 
ATOM      3  C   UNL     1      -2.239  -7.288  -0.688  0.00  0.00    +0.078 C 
ATOM      4  C   UNL     1      -2.119  -6.990   0.625  0.00  0.00    +0.249 C 
ATOM      5  C   UNL     1      -2.123  -5.525   0.794  0.00  0.00    +0.288 C 
ATOM      6  O   UNL     1      -2.026  -4.945   1.857  0.00  0.00    -0.266 OA
ATOM      7  O   UNL     1      -2.010  -7.894   1.628  0.00  0.00    -0.282 OA
ENDROOT
BRANCH   2   8
ATOM      8  C   UNL     1      -1.184  -5.841  -2.396  0.00  0.00    -0.019 A 
ATOM      9  C   UNL     1       0.104  -5.676  -1.922  0.00  0.00    +0.009 A 
ATOM     10  C   UNL     1       1.159  -5.553  -2.807  0.00  0.00    +0.049 A 
ATOM     11  C   UNL     1       0.927  -5.596  -4.172  0.00  0.00    +0.158 A 
ATOM     12  C   UNL     1      -0.370  -5.763  -4.649  0.00  0.00    +0.162 A 
ATOM     13  C   UNL     1      -1.422  -5.890  -3.757  0.00  0.00    +0.055 A 
BRANCH  12  14
ATOM     14  O   UNL     1      -0.603  -5.806  -5.988  0.00  0.00    -0.491 OA
ATOM     15  C   UNL     1      -1.967  -5.872  -6.408  0.00  0.00    +0.277 C 
ENDBRANCH  12  14
BRANCH  11  16
ATOM     16  O   UNL     1       1.963  -5.476  -5.044  0.00  0.00    -0.503 OA
ATOM     17  H   UNL     1       2.373  -6.317  -5.287  0.00  0.00    +0.292 HD
ENDBRANCH  11  16
ENDBRANCH   2   8
BRANCH   3  18
ATOM     18  C   UNL     1      -2.273  -8.631  -1.282  0.00  0.00    +0.213 C 
ATOM     19  O   UNL     1      -1.261  -9.110  -1.765  0.00  0.00    -0.285 OA
BRANCH  18  20
ATOM     20  C   UNL     1      -3.482  -9.370  -1.293  0.00  0.00    +0.116 A 
ATOM     21  C   UNL     1      -4.733  -8.925  -0.885  0.00  0.00    +0.068 A 
ATOM     22  N   UNL     1      -5.597  -9.911  -1.053  0.00  0.00    -0.232 NA
ATOM     23  C   UNL     1      -4.973 -10.979  -1.551  0.00  0.00    +0.141 A 
ATOM     24  N   UNL     1      -3.652 -10.675  -1.718  0.00  0.00    -0.296 N 
ATOM     25  C   UNL     1      -2.786 -11.595  -2.220  0.00  0.00    +0.093 A 
ATOM     26  C   UNL     1      -3.217 -12.830  -2.567  0.00  0.00    +0.018 A 
ATOM     27  C   UNL     1      -4.567 -13.173  -2.411  0.00  0.00    +0.008 A 
ATOM     28  C   UNL     1      -5.440 -12.258  -1.900  0.00  0.00    -0.008 A 
ATOM     29  C   UNL     1      -6.895 -12.610  -1.727  0.00  0.00    +0.047 C 
ATOM     30  C   UNL     1      -5.051  -7.554  -0.345  0.00  0.00    +0.068 C 
ENDBRANCH  18  20
ENDBRANCH   3  18
BRANCH   1  31
ATOM     31  C   UNL     1      -2.298  -3.480  -0.644  0.00  0.00    +0.090 C 
BRANCH  31  32
ATOM     32  C   UNL     1      -0.878  -2.955  -0.870  0.00  0.00    -0.060 C 
BRANCH  32  33
ATOM     33  N   UNL     1      -0.932  -1.525  -1.203  0.00  0.00    +0.380 N 
ATOM     34  H   UNL     1      -1.529  -1.389  -2.005  0.00  0.00    -0.082 HD
BRANCH  33  36
ATOM     35  C   UNL     1      -1.644   0.693  -0.448  0.00  0.00    -0.017 C 
ATOM     36  C   UNL     1      -1.471  -0.777  -0.059  0.00  0.00    -0.082 C 
ENDBRANCH  33  36
BRANCH  33  37
ATOM     37  C   UNL     1       0.420  -1.042  -1.511  0.00  0.00    -0.082 C 
ATOM     38  C   UNL     1       0.930  -1.729  -2.780  0.00  0.00    -0.017 C 
ENDBRANCH  33  37
ENDBRANCH  32  33
ENDBRANCH  31  32
ENDBRANCH   1  31
TORSDOF 10
