REMARK  Name = ZINC41006635
REMARK  13 active torsions:
REMARK  status: ('A' for Active; 'I' for Inactive)
REMARK    1  A    between atoms: C_1  and  C_2
REMARK    2  A    between atoms: C_7  and  N_8
REMARK    3  A    between atoms: C_9  and  C_11
REMARK    4  A    between atoms: C_13  and  C_33
REMARK    5  A    between atoms: C_15  and  C_23
REMARK    6  A    between atoms: C_17  and  C_21
REMARK    7  A    between atoms: C_17  and  O_22
REMARK    8  A    between atoms: N_25  and  C_26
REMARK    9  A    between atoms: C_31  and  C_32
REMARK   10  A    between atoms: C_36  and  O_41
REMARK   11  A    between atoms: C_38  and  O_39
REMARK   12  A    between atoms: O_39  and  C_40
REMARK   13  A    between atoms: O_41  and  C_42
REMARK                            x       y       z     vdW  Elec       q    Type
REMARK                         _______ _______ _______ _____ _____    ______ ____
ROOT
ATOM      1  C   UNL     1      -0.208   0.046   4.877  0.00  0.00    +0.150 C 
ATOM      2  C   UNL     1      -0.279  -0.951   6.039  0.00  0.00    +0.056 C 
ATOM      3  C   UNL     1      -0.530  -0.193   7.343  0.00  0.00    +0.116 C 
ATOM      4  C   UNL     1      -1.892   0.500   7.287  0.00  0.00    +0.082 C 
ATOM      5  C   UNL     1      -1.882   1.552   6.172  0.00  0.00    +0.110 C 
ATOM      6  C   UNL     1      -1.468   0.883   4.879  0.00  0.00    +0.148 C 
ATOM      7  O   UNL     1      -2.128   1.011   3.876  0.00  0.00    -0.296 OA
ATOM      8  C   UNL     1      -2.981  -0.536   7.001  0.00  0.00    +0.042 C 
ENDROOT
BRANCH   2   9
ATOM      9  C   UNL     1       1.024  -1.702   6.136  0.00  0.00    -0.000 A 
ATOM     10  C   UNL     1       2.202  -1.016   6.362  0.00  0.00    +0.011 A 
ATOM     11  C   UNL     1       3.397  -1.702   6.452  0.00  0.00    +0.046 A 
ATOM     12  C   UNL     1       3.418  -3.083   6.316  0.00  0.00    +0.124 A 
ATOM     13  C   UNL     1       2.238  -3.774   6.089  0.00  0.00    +0.091 A 
ATOM     14  C   UNL     1       1.039  -3.084   6.004  0.00  0.00    +0.127 A 
BRANCH  14  15
ATOM     15  O   UNL     1      -0.121  -3.759   5.788  0.00  0.00    -0.495 OA
ATOM     16  C   UNL     1      -0.031  -5.179   5.662  0.00  0.00    +0.277 C 
ENDBRANCH  14  15
BRANCH  12  17
ATOM     17  O   UNL     1       4.595  -3.758   6.404  0.00  0.00    -0.495 OA
ATOM     18  C   UNL     1       5.772  -2.982   6.638  0.00  0.00    +0.277 C 
ENDBRANCH  12  17
ENDBRANCH   2   9
BRANCH   1  20
ATOM     19  N   UNL     1      -0.032  -0.025   2.410  0.00  0.00    -0.285 N 
ATOM     20  C   UNL     1      -0.100  -0.703   3.574  0.00  0.00    +0.228 C 
ATOM     21  O   UNL     1      -0.074  -1.916   3.571  0.00  0.00    -0.275 OA
ATOM     22  H   UNL     1       0.014   0.944   2.416  0.00  0.00    +0.155 HD
BRANCH  19  29
ATOM     23  C   UNL     1      -1.346   1.159   0.182  0.00  0.00    +0.045 C 
ATOM     24  C   UNL     1      -0.657  -0.177   0.083  0.00  0.00    -0.029 A 
ATOM     25  C   UNL     1      -0.646  -0.863  -1.117  0.00  0.00    +0.005 A 
ATOM     26  C   UNL     1      -0.014  -2.089  -1.208  0.00  0.00    +0.000 A 
ATOM     27  C   UNL     1       0.610  -2.634  -0.101  0.00  0.00    +0.002 A 
ATOM     28  C   UNL     1       0.603  -1.954   1.101  0.00  0.00    +0.023 A 
ATOM     29  C   UNL     1      -0.027  -0.719   1.196  0.00  0.00    +0.036 A 
ENDBRANCH  19  29
ENDBRANCH   1  20
BRANCH   3  30
ATOM     30  C   UNL     1      -0.510  -1.163   8.497  0.00  0.00    +0.224 C 
ATOM     31  O   UNL     1      -0.315  -2.342   8.295  0.00  0.00    -0.275 OA
ATOM     32  N   UNL     1      -0.710  -0.718   9.754  0.00  0.00    -0.285 N 
ATOM     33  H   UNL     1      -0.928   0.214   9.910  0.00  0.00    +0.155 HD
BRANCH  32  34
ATOM     34  C   UNL     1      -0.604  -1.602  10.834  0.00  0.00    +0.036 A 
ATOM     35  C   UNL     1      -1.005  -2.925  10.693  0.00  0.00    +0.023 A 
ATOM     36  C   UNL     1      -0.898  -3.794  11.760  0.00  0.00    +0.002 A 
ATOM     37  C   UNL     1      -0.393  -3.350  12.968  0.00  0.00    +0.000 A 
ATOM     38  C   UNL     1       0.007  -2.034  13.112  0.00  0.00    +0.005 A 
ATOM     39  C   UNL     1      -0.091  -1.161  12.046  0.00  0.00    -0.029 A 
ATOM     40  C   UNL     1       0.351   0.272  12.201  0.00  0.00    +0.045 C 
ENDBRANCH  32  34
ENDBRANCH   3  30
BRANCH   4  41
ATOM     41  O   UNL     1      -2.156   1.136   8.539  0.00  0.00    -0.388 OA
ATOM     42  H   UNL     1      -3.005   1.597   8.575  0.00  0.00    +0.210 HD
ENDBRANCH   4  41
TORSDOF 8
