REMARK  Name = ZINC39663885
REMARK  12 active torsions:
REMARK  status: ('A' for Active; 'I' for Inactive)
REMARK    1  A    between atoms: C_1  and  N_2
REMARK    2  A    between atoms: N_2  and  C_3
REMARK    3  A    between atoms: N_2  and  C_4
REMARK    4  A    between atoms: C_4  and  C_6
REMARK    5  A    between atoms: C_4  and  C_31
REMARK    6  A    between atoms: C_6  and  N_7
REMARK    7  A    between atoms: C_8  and  C_10
REMARK    8  A    between atoms: C_21  and  C_23
REMARK    9  A    between atoms: C_27  and  O_28
REMARK   10  A    between atoms: O_28  and  C_29
REMARK   11  A    between atoms: C_34  and  O_37
REMARK   12  A    between atoms: O_37  and  C_38
REMARK                            x       y       z     vdW  Elec       q    Type
REMARK                         _______ _______ _______ _____ _____    ______ ____
ROOT
ATOM      1  C   UNL     1      -2.625   3.826  -1.794  0.00  0.00    +0.100 C 
ATOM      2  C   UNL     1      -1.165   4.279  -2.016  0.00  0.00    +0.121 C 
ATOM      3  N   UNL     1      -1.104   4.660  -3.447  0.00  0.00    -0.296 N 
ATOM      4  C   UNL     1      -2.394   5.346  -3.700  0.00  0.00    +0.115 C 
ATOM      5  C   UNL     1      -3.429   4.532  -2.899  0.00  0.00    -0.004 C 
ATOM      6  C   UNL     1      -4.470   5.462  -2.283  0.00  0.00    -0.010 C 
ATOM      7  C   UNL     1      -5.296   6.107  -3.400  0.00  0.00    -0.082 C 
ATOM      8  N   UNL     1      -5.953   5.061  -4.192  0.00  0.00    +0.379 N 
ATOM      9  C   UNL     1      -4.944   4.228  -4.856  0.00  0.00    -0.082 C 
ATOM     10  C   UNL     1      -4.103   3.503  -3.801  0.00  0.00    -0.010 C 
ATOM     11  C   UNL     1      -0.102   4.435  -4.320  0.00  0.00    +0.251 C 
ATOM     12  O   UNL     1       0.861   3.773  -3.983  0.00  0.00    -0.270 OA
ATOM     13  H   UNL     1      -6.516   4.485  -3.585  0.00  0.00    -0.086 HD
ATOM     14  H   UNL     1      -6.544   5.490  -4.888  0.00  0.00    -0.086 HD
ENDROOT
BRANCH  11  15
ATOM     15  C   UNL     1      -0.174   4.990  -5.680  0.00  0.00    +0.087 A 
ATOM     16  C   UNL     1      -0.765   6.209  -5.932  0.00  0.00    +0.063 A 
ATOM     17  S   UNL     1      -0.608   6.411  -7.590  0.00  0.00    -0.081 S 
ATOM     18  C   UNL     1       0.238   4.903  -8.010  0.00  0.00    +0.120 A 
ATOM     19  C   UNL     1       0.376   4.285  -6.815  0.00  0.00    +0.158 A 
ATOM     20 CL   UNL     1       0.764   4.360  -9.573  0.00  0.00    -0.072 Cl
BRANCH  19  21
ATOM     21  O   UNL     1       0.989   3.075  -6.690  0.00  0.00    -0.492 OA
ATOM     22  C   UNL     1       0.164   1.915  -6.809  0.00  0.00    +0.277 C 
ENDBRANCH  19  21
ENDBRANCH  11  15
BRANCH   1  24
ATOM     23  N   UNL     1      -3.782   1.678  -1.386  0.00  0.00    -0.316 N 
ATOM     24  C   UNL     1      -2.739   2.330  -1.937  0.00  0.00    +0.218 C 
ATOM     25  O   UNL     1      -1.892   1.713  -2.547  0.00  0.00    -0.275 OA
ATOM     26  H   UNL     1      -4.459   2.172  -0.898  0.00  0.00    +0.149 HD
BRANCH  23  27
ATOM     27  C   UNL     1      -3.892   0.224  -1.524  0.00  0.00    +0.093 C 
BRANCH  27  28
ATOM     28  C   UNL     1      -5.088  -0.276  -0.711  0.00  0.00    -0.021 C 
BRANCH  28  29
ATOM     29  C   UNL     1      -6.361   0.273  -1.300  0.00  0.00    -0.059 A 
ATOM     30  C   UNL     1      -6.920  -0.325  -2.415  0.00  0.00    +0.005 A 
ATOM     31  C   UNL     1      -8.087   0.177  -2.957  0.00  0.00    +0.046 A 
ATOM     32  C   UNL     1      -8.699   1.281  -2.382  0.00  0.00    +0.120 A 
ATOM     33  C   UNL     1      -8.137   1.879  -1.263  0.00  0.00    +0.046 A 
ATOM     34  C   UNL     1      -6.973   1.370  -0.721  0.00  0.00    +0.005 A 
BRANCH  32  35
ATOM     35  O   UNL     1      -9.848   1.777  -2.913  0.00  0.00    -0.495 OA
ATOM     36  C   UNL     1     -10.422   2.916  -2.269  0.00  0.00    +0.277 C 
ENDBRANCH  32  35
ENDBRANCH  28  29
BRANCH  28  38
ATOM     37  C   UNL     1      -3.929  -2.281  -0.082  0.00  0.00    -0.096 C 
ATOM     38  N   UNL     1      -5.124  -1.744  -0.747  0.00  0.00    +0.382 N 
ATOM     39  C   UNL     1      -6.327  -2.221  -0.052  0.00  0.00    -0.096 C 
ATOM     40  H   UNL     1      -5.144  -2.057  -1.706  0.00  0.00    -0.082 HD
ENDBRANCH  28  38
ENDBRANCH  27  28
ENDBRANCH  23  27
ENDBRANCH   1  24
TORSDOF 8
