REMARK  Name = ZINC02631191
REMARK  6 active torsions:
REMARK  status: ('A' for Active; 'I' for Inactive)
REMARK    1  A    between atoms: C_1  and  C_2
REMARK    2  A    between atoms: C_5  and  C_23
REMARK    3  A    between atoms: C_6  and  S_8
REMARK    4  A    between atoms: S_8  and  N_11
REMARK    5  A    between atoms: N_11  and  N_12
REMARK    6  A    between atoms: C_13  and  C_14
REMARK                            x       y       z     vdW  Elec       q    Type
REMARK                         _______ _______ _______ _____ _____    ______ ____
ROOT
ATOM      1  N   UNL     1      -0.164   1.560  -0.070  0.00  0.00    -0.137 N 
ATOM      2  H   UNL     1      -0.880   2.113   0.281  0.00  0.00    +0.197 HD
ENDROOT
BRANCH   1   3
ATOM      3  S   UNL     1       1.229   2.262  -0.624  0.00  0.00    +0.087 S 
ATOM      4  O   UNL     1       1.051   3.667  -0.507  0.00  0.00    -0.149 OA
ATOM      5  O   UNL     1       2.306   1.577   0.000  0.00  0.00    -0.149 OA
BRANCH   3  11
ATOM      6  C   UNL     1       1.238   3.779  -5.626  0.00  0.00    +0.044 C 
ATOM      7  C   UNL     1       1.336   2.660  -4.621  0.00  0.00    -0.049 A 
ATOM      8  C   UNL     1       1.513   1.358  -5.051  0.00  0.00    +0.004 A 
ATOM      9  C   UNL     1       1.603   0.333  -4.129  0.00  0.00    +0.005 A 
ATOM     10  C   UNL     1       1.516   0.609  -2.777  0.00  0.00    -0.024 A 
ATOM     11  C   UNL     1       1.340   1.910  -2.347  0.00  0.00    +0.113 A 
ATOM     12  C   UNL     1       1.245   2.936  -3.270  0.00  0.00    +0.032 A 
ATOM     13  C   UNL     1       1.614  -0.510  -1.772  0.00  0.00    +0.046 C 
ENDBRANCH   3  11
ENDBRANCH   1   3
BRANCH   1  14
ATOM     14  N   UNL     1      -0.311   0.167  -0.112  0.00  0.00    -0.174 NA
ATOM     15  C   UNL     1      -1.440  -0.376   0.225  0.00  0.00    +0.139 C 
BRANCH  15  16
ATOM     16  C   UNL     1      -1.554  -1.843   0.320  0.00  0.00    -0.002 A 
ATOM     17  C   UNL     1      -0.424  -2.646   0.144  0.00  0.00    +0.013 A 
ATOM     18  C   UNL     1      -0.531  -4.017   0.237  0.00  0.00    +0.050 A 
ATOM     19  C   UNL     1      -1.760  -4.606   0.496  0.00  0.00    +0.166 A 
ATOM     20  C   UNL     1      -2.893  -3.811   0.668  0.00  0.00    +0.167 A 
ATOM     21  C   UNL     1      -2.792  -2.435   0.580  0.00  0.00    +0.059 A 
ATOM     22  O   UNL     1      -3.964  -4.624   0.908  0.00  0.00    -0.453 OA
ATOM     23  C   UNL     1      -3.403  -5.895   1.288  0.00  0.00    +0.466 C 
ATOM     24  O   UNL     1      -2.123  -5.915   0.629  0.00  0.00    -0.453 OA
ENDBRANCH  15  16
ENDBRANCH   1  14
TORSDOF 4
