REMARK  Name = ZINC48072032
REMARK  6 active torsions:
REMARK  status: ('A' for Active; 'I' for Inactive)
REMARK    1  A    between atoms: C_1  and  C_2
REMARK    2  A    between atoms: C_2  and  C_4
REMARK    3  A    between atoms: C_2  and  N_7
REMARK    4  A    between atoms: C_14  and  C_16
REMARK    5  A    between atoms: C_21  and  O_22
REMARK    6  A    between atoms: O_22  and  C_23
REMARK                            x       y       z     vdW  Elec       q    Type
REMARK                         _______ _______ _______ _____ _____    ______ ____
ROOT
ATOM      1  N   UNL     1       0.688  -0.476  -1.203  0.00  0.00    -0.242 N 
ATOM      2  C   UNL     1       1.813  -1.256  -1.237  0.00  0.00    +0.177 A 
ATOM      3  C   UNL     1       2.117  -1.464  -2.579  0.00  0.00    +0.105 A 
ATOM      4  C   UNL     1       1.150  -0.792  -3.338  0.00  0.00    +0.162 A 
ATOM      5  N   UNL     1       0.305  -0.216  -2.525  0.00  0.00    -0.175 NA
ATOM      6  N   UNL     1       3.256  -2.253  -2.602  0.00  0.00    -0.335 N 
ATOM      7  H   UNL     1       3.721  -2.573  -3.390  0.00  0.00    +0.167 HD
ATOM      8  C   UNL     1       3.600  -2.494  -1.300  0.00  0.00    +0.145 A 
ATOM      9  N   UNL     1       2.738  -1.899  -0.506  0.00  0.00    -0.208 NA
ENDROOT
BRANCH   8  10
ATOM     10  C   UNL     1       4.756  -3.297  -0.856  0.00  0.00    +0.063 A 
ATOM     11  C   UNL     1       5.609  -3.878  -1.798  0.00  0.00    +0.064 A 
ATOM     12  C   UNL     1       6.690  -4.628  -1.380  0.00  0.00    +0.167 A 
ATOM     13  C   UNL     1       6.933  -4.806  -0.017  0.00  0.00    +0.170 A 
ATOM     14  C   UNL     1       6.090  -4.231   0.920  0.00  0.00    +0.095 A 
ATOM     15  C   UNL     1       5.007  -3.473   0.510  0.00  0.00    +0.134 A 
ATOM     16  O   UNL     1       8.049  -5.578   0.128  0.00  0.00    -0.452 OA
ATOM     17  C   UNL     1       8.250  -6.210  -1.150  0.00  0.00    +0.466 C 
ATOM     18  O   UNL     1       7.656  -5.290  -2.084  0.00  0.00    -0.453 OA
BRANCH  15  19
ATOM     19  O   UNL     1       4.185  -2.906   1.431  0.00  0.00    -0.494 OA
ATOM     20  C   UNL     1       4.501  -3.128   2.807  0.00  0.00    +0.277 C 
ENDBRANCH  15  19
ENDBRANCH   8  10
BRANCH   1  22
ATOM     21  C   UNL     1      -0.019   1.526   0.010  0.00  0.00    +0.033 C 
ATOM     22  C   UNL     1       0.002  -0.004   0.002  0.00  0.00    +0.109 C 
BRANCH  22  23
ATOM     23  C   UNL     1      -1.433  -0.534   0.013  0.00  0.00    +0.013 C 
ATOM     24  C   UNL     1      -1.913  -1.249   1.278  0.00  0.00    +0.006 C 
ATOM     25  C   UNL     1      -1.626  -2.051   0.007  0.00  0.00    +0.006 C 
ENDBRANCH  22  23
ENDBRANCH   1  22
TORSDOF 4
