REMARK  Name = ZINC07313851
REMARK  4 active torsions:
REMARK  status: ('A' for Active; 'I' for Inactive)
REMARK    1  A    between atoms: C_1  and  C_2
REMARK    2  A    between atoms: N_11  and  C_15
REMARK    3  A    between atoms: C_15  and  C_16
REMARK    4  A    between atoms: C_19  and  C_21
REMARK                            x       y       z     vdW  Elec       q    Type
REMARK                         _______ _______ _______ _____ _____    ______ ____
ROOT
ATOM      1  C   UNL     1      -4.293   6.729   2.683  0.00  0.00    +0.010 C 
ATOM      2  C   UNL     1      -4.124   5.676   3.780  0.00  0.00    +0.018 C 
ATOM      3  C   UNL     1      -3.985   6.371   5.137  0.00  0.00    +0.006 C 
ATOM      4  C   UNL     1      -3.795   5.318   6.230  0.00  0.00    +0.000 C 
ATOM      5  C   UNL     1      -2.527   4.509   5.948  0.00  0.00    +0.003 C 
ATOM      6  C   UNL     1      -2.662   3.807   4.594  0.00  0.00    +0.035 C 
ATOM      7  C   UNL     1      -2.875   4.848   3.500  0.00  0.00    +0.115 C 
ATOM      8  C   UNL     1      -2.979   4.183   2.147  0.00  0.00    +0.247 C 
ATOM      9  O   UNL     1      -3.813   3.380   1.786  0.00  0.00    -0.273 OA
ATOM     10  N   UNL     1      -1.948   4.670   1.427  0.00  0.00    -0.215 N 
ATOM     11  C   UNL     1      -1.222   5.545   2.133  0.00  0.00    +0.310 C 
ATOM     12  O   UNL     1      -0.245   6.121   1.697  0.00  0.00    -0.252 OA
ATOM     13  N   UNL     1      -1.698   5.717   3.381  0.00  0.00    -0.285 N 
ATOM     14  H   UNL     1      -1.334   6.300   4.066  0.00  0.00    +0.151 HD
ENDROOT
BRANCH  10  15
ATOM     15  C   UNL     1      -1.660   4.292   0.041  0.00  0.00    +0.214 C 
BRANCH  15  16
ATOM     16  C   UNL     1      -0.734   3.103   0.026  0.00  0.00    +0.214 A 
ATOM     17  N   UNL     1      -1.105   1.854   0.017  0.00  0.00    -0.220 NA
ATOM     18  C   UNL     1      -0.013   1.076   0.008  0.00  0.00    +0.161 A 
ATOM     19  C   UNL     1       1.071   1.893   0.002  0.00  0.00    +0.155 A 
ATOM     20  O   UNL     1       0.605   3.162   0.013  0.00  0.00    -0.438 OA
BRANCH  19  21
ATOM     21  C   UNL     1       2.490   1.476  -0.013  0.00  0.00    +0.019 A 
ATOM     22  C   UNL     1       2.821   0.120  -0.018  0.00  0.00    +0.011 A 
ATOM     23  C   UNL     1       4.147  -0.262  -0.037  0.00  0.00    +0.001 A 
ATOM     24  C   UNL     1       5.146   0.695  -0.041  0.00  0.00    +0.000 A 
ATOM     25  C   UNL     1       4.824   2.040  -0.032  0.00  0.00    +0.001 A 
ATOM     26  C   UNL     1       3.503   2.436  -0.018  0.00  0.00    +0.011 A 
ENDBRANCH  19  21
ENDBRANCH  15  16
ENDBRANCH  10  15
TORSDOF 3
