REMARK  Name = ZINC65663090
REMARK  7 active torsions:
REMARK  status: ('A' for Active; 'I' for Inactive)
REMARK    1  A    between atoms: C_5  and  O_7
REMARK    2  A    between atoms: O_7  and  C_8
REMARK    3  A    between atoms: C_8  and  C_9
REMARK    4  A    between atoms: C_9  and  O_11
REMARK    5  A    between atoms: O_11  and  C_12
REMARK    6  A    between atoms: C_12  and  C_13
REMARK    7  A    between atoms: C_13  and  C_14
REMARK                            x       y       z     vdW  Elec       q    Type
REMARK                         _______ _______ _______ _____ _____    ______ ____
ROOT
ATOM      1  C   UNL     1       0.190  -4.199  -0.023  0.00  0.00    +0.345 C 
ATOM      2  O   UNL     1       1.313  -4.643  -0.037  0.00  0.00    -0.247 OA
ENDROOT
BRANCH   1   3
ATOM      3  C   UNL     1      -0.030  -2.708  -0.013  0.00  0.00    +0.349 C 
BRANCH   3   4
ATOM      4  O   UNL     1       1.233  -2.040  -0.022  0.00  0.00    -0.478 OA
BRANCH   4   9
ATOM      5  C   UNL     1      -0.017   1.378   0.010  0.00  0.00    +0.004 A 
ATOM      6  C   UNL     1       1.170   2.087   0.002  0.00  0.00    +0.003 A 
ATOM      7  C   UNL     1       2.379   1.417  -0.013  0.00  0.00    +0.042 A 
ATOM      8  C   UNL     1       2.404   0.034  -0.022  0.00  0.00    +0.165 A 
ATOM      9  C   UNL     1       1.212  -0.680  -0.014  0.00  0.00    +0.156 A 
ATOM     10  C   UNL     1       0.002  -0.004   0.002  0.00  0.00    +0.048 A 
ATOM     11  F   UNL     1       3.585  -0.622  -0.038  0.00  0.00    -0.202 F 
ENDBRANCH   4   9
ENDBRANCH   3   4
ENDBRANCH   1   3
BRANCH   1  12
ATOM     12  O   UNL     1      -0.862  -5.032  -0.018  0.00  0.00    -0.462 OA
BRANCH  12  13
ATOM     13  C   UNL     1      -0.579  -6.433  -0.028  0.00  0.00    +0.237 C 
BRANCH  13  14
ATOM     14  C   UNL     1      -1.893  -7.218  -0.019  0.00  0.00    +0.083 C 
BRANCH  14  15
ATOM     15  C   UNL     1      -1.595  -8.695  -0.031  0.00  0.00    -0.007 A 
ATOM     16  C   UNL     1      -1.421  -9.539   1.016  0.00  0.00    +0.011 A 
ATOM     17  C   UNL     1      -1.154 -10.872   0.765  0.00  0.00    +0.008 A 
ATOM     18  C   UNL     1      -1.074 -11.296  -0.520  0.00  0.00    +0.045 A 
ATOM     19  S   UNL     1      -1.387  -9.790  -1.426  0.00  0.00    -0.101 S 
ENDBRANCH  14  15
ENDBRANCH  13  14
ENDBRANCH  12  13
ENDBRANCH   1  12
TORSDOF 7
