REMARK  Name = ZINC05275050
REMARK  2 active torsions:
REMARK  status: ('A' for Active; 'I' for Inactive)
REMARK    1  A    between atoms: C_10  and  C_15
REMARK    2  A    between atoms: C_10  and  O_19
REMARK                            x       y       z     vdW  Elec       q    Type
REMARK                         _______ _______ _______ _____ _____    ______ ____
ROOT
ATOM      1  C   UNL     1       1.159   1.874  -0.050  0.00  0.00    +0.001 A 
ATOM      2  C   UNL     1       1.112   3.258  -0.053  0.00  0.00    +0.004 A 
ATOM      3  C   UNL     1      -0.097   3.927  -0.039  0.00  0.00    +0.046 A 
ATOM      4  C   UNL     1      -1.288   3.217  -0.022  0.00  0.00    +0.129 A 
ATOM      5  C   UNL     1      -1.230   1.810  -0.016  0.00  0.00    +0.040 A 
ATOM      6  C   UNL     1      -0.015   1.144  -0.028  0.00  0.00    +0.013 A 
ATOM      7  C   UNL     1      -2.528   1.113   0.027  0.00  0.00    +0.081 C 
ATOM      8  N   UNL     1      -2.865  -0.058   0.392  0.00  0.00    -0.179 NA
ATOM      9  N   UNL     1      -4.247  -0.261   0.444  0.00  0.00    -0.160 N 
ATOM     10  C   UNL     1      -4.925   0.996   0.071  0.00  0.00    +0.262 C 
ATOM     11  C   UNL     1      -3.777   1.884  -0.410  0.00  0.00    +0.138 C 
ATOM     12  C   UNL     1      -3.693   3.225   0.319  0.00  0.00    +0.243 C 
ATOM     13  O   UNL     1      -2.472   3.873  -0.035  0.00  0.00    -0.490 OA
ATOM     14  C   UNL     1      -4.874  -1.442   0.786  0.00  0.00    +0.184 A 
ATOM     15  N   UNL     1      -6.160  -1.700   0.861  0.00  0.00    -0.223 NA
ATOM     16  C   UNL     1      -6.636  -2.915   1.209  0.00  0.00    +0.080 A 
ATOM     17  C   UNL     1      -7.986  -3.324   1.321  0.00  0.00    +0.029 A 
ATOM     18  C   UNL     1      -8.300  -4.605   1.695  0.00  0.00    +0.002 A 
ATOM     19  C   UNL     1      -7.315  -5.541   1.975  0.00  0.00    +0.001 A 
ATOM     20  C   UNL     1      -5.985  -5.175   1.876  0.00  0.00    +0.017 A 
ATOM     21  C   UNL     1      -5.661  -3.895   1.502  0.00  0.00    +0.041 A 
ATOM     22  S   UNL     1      -4.143  -3.005   1.249  0.00  0.00    -0.051 S 
ENDROOT
BRANCH  10  23
ATOM     23  C   UNL     1      -5.615   1.618   1.286  0.00  0.00    +0.438 C 
ATOM     24  F   UNL     1      -4.689   1.767   2.324  0.00  0.00    -0.166 F 
ATOM     25  F   UNL     1      -6.131   2.872   0.939  0.00  0.00    -0.166 F 
ATOM     26  F   UNL     1      -6.658   0.786   1.707  0.00  0.00    -0.166 F 
ENDBRANCH  10  23
BRANCH  10  27
ATOM     27  O   UNL     1      -5.866   0.769  -0.980  0.00  0.00    -0.363 OA
ATOM     28  H   UNL     1      -6.575   0.155  -0.747  0.00  0.00    +0.212 HD
ENDBRANCH  10  27
TORSDOF 2
