REMARK  Name = ZINC02850491
REMARK  9 active torsions:
REMARK  status: ('A' for Active; 'I' for Inactive)
REMARK    1  A    between atoms: C_1  and  C_2
REMARK    2  A    between atoms: N_5  and  C_7
REMARK    3  A    between atoms: C_18  and  N_35
REMARK    4  A    between atoms: C_19  and  C_33
REMARK    5  A    between atoms: C_20  and  C_22
REMARK    6  A    between atoms: C_26  and  O_30
REMARK    7  A    between atoms: C_27  and  O_28
REMARK    8  A    between atoms: O_28  and  C_29
REMARK    9  A    between atoms: O_30  and  C_31
REMARK                            x       y       z     vdW  Elec       q    Type
REMARK                         _______ _______ _______ _____ _____    ______ ____
ROOT
ATOM      1  C   UNL     1      -0.577  -4.718   0.709  0.00  0.00    +0.068 C 
ATOM      2  C   UNL     1       0.151  -3.549   0.098  0.00  0.00    +0.068 A 
ATOM      3  C   UNL     1       1.329  -3.616  -0.635  0.00  0.00    +0.050 A 
ATOM      4  C   UNL     1       1.664  -2.347  -1.017  0.00  0.00    +0.230 A 
ATOM      5  N   UNL     1       0.721  -1.513  -0.527  0.00  0.00    -0.200 N 
ATOM      6  N   UNL     1      -0.219  -2.292   0.167  0.00  0.00    -0.168 NA
ATOM      7  O   UNL     1       2.769  -2.071  -1.752  0.00  0.00    -0.423 OA
ATOM      8  C   UNL     1       3.693  -3.045  -1.881  0.00  0.00    +0.200 C 
ATOM      9  C   UNL     1       3.474  -4.337  -1.552  0.00  0.00    +0.098 C 
ATOM     10  C   UNL     1       2.157  -4.820  -1.001  0.00  0.00    +0.105 C 
ENDROOT
BRANCH   5  11
ATOM     11  C   UNL     1       0.684  -0.121  -0.688  0.00  0.00    +0.070 A 
ATOM     12  C   UNL     1       1.880   0.605  -0.707  0.00  0.00    +0.028 A 
ATOM     13  C   UNL     1       1.874   1.956  -0.861  0.00  0.00    +0.010 A 
ATOM     14  C   UNL     1       0.654   2.639  -1.004  0.00  0.00    -0.018 A 
ATOM     15  C   UNL     1       0.618   4.035  -1.166  0.00  0.00    +0.008 A 
ATOM     16  C   UNL     1      -0.580   4.667  -1.302  0.00  0.00    +0.001 A 
ATOM     17  C   UNL     1      -1.775   3.951  -1.284  0.00  0.00    +0.001 A 
ATOM     18  C   UNL     1      -1.779   2.598  -1.135  0.00  0.00    +0.008 A 
ATOM     19  C   UNL     1      -0.562   1.911  -0.986  0.00  0.00    -0.016 A 
ATOM     20  C   UNL     1      -0.528   0.516  -0.825  0.00  0.00    +0.036 A 
ENDBRANCH   5  11
BRANCH  10  21
ATOM     21  C   UNL     1       1.444  -5.627  -2.055  0.00  0.00    +0.012 A 
ATOM     22  C   UNL     1       1.356  -7.002  -1.932  0.00  0.00    +0.028 A 
ATOM     23  C   UNL     1       0.702  -7.745  -2.898  0.00  0.00    +0.045 A 
ATOM     24  C   UNL     1       0.132  -7.116  -3.991  0.00  0.00    +0.069 A 
ATOM     25  C   UNL     1       0.217  -5.739  -4.119  0.00  0.00    +0.163 A 
ATOM     26  C   UNL     1       0.871  -4.991  -3.144  0.00  0.00    +0.166 A 
ATOM     27 CL   UNL     1       0.595  -9.470  -2.739  0.00  0.00    -0.083 Cl
BRANCH  26  28
ATOM     28  O   UNL     1       0.952  -3.639  -3.263  0.00  0.00    -0.491 OA
ATOM     29  C   UNL     1       1.958  -3.123  -4.137  0.00  0.00    +0.277 C 
ENDBRANCH  26  28
BRANCH  25  30
ATOM     30  O   UNL     1      -0.343  -5.119  -5.192  0.00  0.00    -0.491 OA
ATOM     31  C   UNL     1      -1.003  -5.949  -6.150  0.00  0.00    +0.277 C 
ENDBRANCH  25  30
ENDBRANCH  10  21
BRANCH   8  32
ATOM     32  N   UNL     1       4.928  -2.703  -2.373  0.00  0.00    -0.328 N 
ATOM     33  H   UNL     1       5.116  -1.783  -2.617  0.00  0.00    +0.145 HD
ATOM     34  H   UNL     1       5.613  -3.382  -2.477  0.00  0.00    +0.145 HD
ENDBRANCH   8  32
BRANCH   9  35
ATOM     35  C   UNL     1       4.535  -5.283  -1.729  0.00  0.00    +0.101 C 
ATOM     36  N   UNL     1       5.377  -6.033  -1.868  0.00  0.00    -0.191 NA
ENDBRANCH   9  35
TORSDOF 6
