REMARK  Name = ZINC52848656
REMARK  6 active torsions:
REMARK  status: ('A' for Active; 'I' for Inactive)
REMARK    1  A    between atoms: C_1  and  C_2
REMARK    2  A    between atoms: N_4  and  C_5
REMARK    3  A    between atoms: C_5  and  C_6
REMARK    4  A    between atoms: N_9  and  C_12
REMARK    5  A    between atoms: C_12  and  C_13
REMARK    6  A    between atoms: N_18  and  C_19
REMARK                            x       y       z     vdW  Elec       q    Type
REMARK                         _______ _______ _______ _____ _____    ______ ____
ROOT
ATOM      1  C   UNL     1      -5.845  -6.436  -1.348  0.00  0.00    +0.204 C 
ATOM      2  O   UNL     1      -4.760  -6.975  -1.297  0.00  0.00    -0.277 OA
ATOM      3  N   UNL     1      -6.965  -7.182  -1.434  0.00  0.00    -0.242 N 
ATOM      4  C   UNL     1      -6.878  -8.526  -1.463  0.00  0.00    +0.306 C 
ATOM      5  O   UNL     1      -5.791  -9.067  -1.412  0.00  0.00    -0.252 OA
ATOM      6  N   UNL     1      -7.998  -9.272  -1.549  0.00  0.00    -0.294 N 
ATOM      7  H   UNL     1      -7.832  -6.750  -1.474  0.00  0.00    +0.159 HD
ATOM      8  H   UNL     1      -8.866  -8.841  -1.589  0.00  0.00    +0.151 HD
ENDROOT
BRANCH   6   9
ATOM      9  C   UNL     1      -7.904 -10.733  -1.581  0.00  0.00    +0.037 C 
ATOM     10  C   UNL     1      -7.078 -11.165  -2.794  0.00  0.00    +0.029 C 
ATOM     11  C   UNL     1      -6.980 -12.691  -2.828  0.00  0.00    -0.008 C 
ATOM     12  C   UNL     1      -8.384 -13.291  -2.927  0.00  0.00    +0.007 C 
ATOM     13  C   UNL     1      -9.210 -12.859  -1.713  0.00  0.00    -0.008 C 
ATOM     14  C   UNL     1      -9.308 -11.333  -1.680  0.00  0.00    +0.029 C 
ATOM     15  C   UNL     1      -8.533 -13.355  -0.433  0.00  0.00    +0.007 C 
ATOM     16  C   UNL     1      -7.129 -12.755  -0.335  0.00  0.00    -0.008 C 
ATOM     17  C   UNL     1      -6.303 -13.187  -1.548  0.00  0.00    +0.007 C 
ATOM     18  C   UNL     1      -7.227 -11.229  -0.301  0.00  0.00    +0.029 C 
ENDBRANCH   6   9
BRANCH   1  19
ATOM     19  C   UNL     1      -5.942  -4.933  -1.315  0.00  0.00    +0.019 C 
BRANCH  19  23
ATOM     20  C   UNL     1      -2.571  -2.688   0.012  0.00  0.00    +0.003 C 
ATOM     21  C   UNL     1      -3.272  -2.295  -1.291  0.00  0.00    -0.014 C 
ATOM     22  C   UNL     1      -4.680  -2.895  -1.308  0.00  0.00    -0.078 C 
ATOM     23  N   UNL     1      -4.593  -4.357  -1.220  0.00  0.00    +0.385 N 
ATOM     24  C   UNL     1      -3.987  -4.744   0.060  0.00  0.00    -0.078 C 
ATOM     25  C   UNL     1      -2.553  -4.215   0.130  0.00  0.00    -0.014 C 
ATOM     26  H   UNL     1      -4.027  -4.706  -1.978  0.00  0.00    -0.081 HD
BRANCH  20  27
ATOM     27  C   UNL     1      -1.136  -2.159   0.001  0.00  0.00    +0.107 C 
BRANCH  27  31
ATOM     28  C   UNL     1      -0.018   1.503   0.010  0.00  0.00    +0.109 C 
ATOM     29  C   UNL     1       0.002  -0.004   0.002  0.00  0.00    +0.210 C 
ATOM     30  O   UNL     1       1.060  -0.596  -0.011  0.00  0.00    -0.276 OA
ATOM     31  N   UNL     1      -1.156  -0.694   0.009  0.00  0.00    -0.315 N 
ATOM     32  H   UNL     1      -2.002  -0.220   0.020  0.00  0.00    +0.149 HD
ENDBRANCH  27  31
ENDBRANCH  20  27
ENDBRANCH  19  23
ENDBRANCH   1  19
TORSDOF 5
