REMARK  Name = ZINC11506552
REMARK  8 active torsions:
REMARK  status: ('A' for Active; 'I' for Inactive)
REMARK    1  A    between atoms: C_7  and  C_18
REMARK    2  A    between atoms: C_9  and  C_11
REMARK    3  A    between atoms: N_20  and  N_21
REMARK    4  A    between atoms: N_21  and  C_22
REMARK    5  A    between atoms: C_22  and  N_24
REMARK    6  A    between atoms: N_24  and  C_25
REMARK    7  A    between atoms: C_25  and  C_26
REMARK    8  A    between atoms: C_26  and  C_27
REMARK                            x       y       z     vdW  Elec       q    Type
REMARK                         _______ _______ _______ _____ _____    ______ ____
ROOT
ATOM      1  C   UNL     1      -0.264   5.595   0.347  0.00  0.00    +0.001 A 
ATOM      2  C   UNL     1      -1.500   6.238   0.353  0.00  0.00    +0.002 A 
ATOM      3  C   UNL     1      -2.659   5.531   0.251  0.00  0.00    +0.028 A 
ATOM      4  C   UNL     1      -2.614   4.129   0.138  0.00  0.00    +0.072 A 
ATOM      5  C   UNL     1      -1.354   3.480   0.133  0.00  0.00    +0.013 A 
ATOM      6  C   UNL     1      -0.182   4.239   0.240  0.00  0.00    +0.011 A 
ATOM      7  C   UNL     1      -1.307   2.066   0.019  0.00  0.00    +0.049 A 
ATOM      8  C   UNL     1      -2.509   1.383  -0.088  0.00  0.00    +0.042 A 
ATOM      9  C   UNL     1      -3.715   2.101  -0.071  0.00  0.00    +0.072 A 
ATOM     10  N   UNL     1      -3.736   3.414   0.036  0.00  0.00    -0.247 NA
ENDROOT
BRANCH   9  11
ATOM     11  C   UNL     1      -4.996   1.364  -0.181  0.00  0.00    +0.001 A 
ATOM     12  C   UNL     1      -4.996  -0.025  -0.301  0.00  0.00    +0.013 A 
ATOM     13  C   UNL     1      -6.191  -0.708  -0.399  0.00  0.00    +0.039 A 
ATOM     14  C   UNL     1      -7.390  -0.013  -0.388  0.00  0.00    +0.123 A 
ATOM     15  C   UNL     1      -7.395   1.368  -0.274  0.00  0.00    +0.039 A 
ATOM     16  C   UNL     1      -6.205   2.058  -0.171  0.00  0.00    +0.013 A 
ATOM     17  F   UNL     1      -8.558  -0.685  -0.489  0.00  0.00    -0.205 F 
ENDBRANCH   9  11
BRANCH   7  18
ATOM     18  C   UNL     1      -0.016   1.344   0.009  0.00  0.00    +0.261 C 
ATOM     19  O   UNL     1       1.028   1.966  -0.003  0.00  0.00    -0.269 OA
ATOM     20  N   UNL     1       0.002  -0.004   0.008  0.00  0.00    -0.231 N 
ATOM     21  H   UNL     1      -0.831  -0.500   0.018  0.00  0.00    +0.173 HD
BRANCH  20  22
ATOM     22  N   UNL     1       1.225  -0.688  -0.007  0.00  0.00    -0.246 N 
ATOM     23  H   UNL     1       2.058  -0.192  -0.017  0.00  0.00    +0.172 HD
BRANCH  22  24
ATOM     24  C   UNL     1       1.243  -2.036  -0.009  0.00  0.00    +0.147 C 
ATOM     25  S   UNL     1       2.737  -2.871  -0.027  0.00  0.00    -0.017 S 
BRANCH  24  26
ATOM     26  N   UNL     1       0.085  -2.725   0.005  0.00  0.00    -0.325 N 
ATOM     27  H   UNL     1      -0.761  -2.252   0.015  0.00  0.00    +0.148 HD
BRANCH  26  28
ATOM     28  C   UNL     1       0.105  -4.190   0.003  0.00  0.00    +0.108 C 
BRANCH  28  29
ATOM     29  C   UNL     1      -1.330  -4.720   0.020  0.00  0.00    +0.061 C 
BRANCH  29  30
ATOM     30  C   UNL     1      -1.310  -6.227   0.019  0.00  0.00    -0.009 A 
ATOM     31  C   UNL     1      -1.280  -7.081   1.071  0.00  0.00    +0.011 A 
ATOM     32  C   UNL     1      -1.269  -8.442   0.829  0.00  0.00    +0.008 A 
ATOM     33  C   UNL     1      -1.278  -8.882  -0.453  0.00  0.00    +0.045 A 
ATOM     34  S   UNL     1      -1.311  -7.350  -1.369  0.00  0.00    -0.102 S 
ENDBRANCH  29  30
ENDBRANCH  28  29
ENDBRANCH  26  28
ENDBRANCH  24  26
ENDBRANCH  22  24
ENDBRANCH  20  22
ENDBRANCH   7  18
TORSDOF 8
