REMARK  Name = ZINC08738215
REMARK  9 active torsions:
REMARK  status: ('A' for Active; 'I' for Inactive)
REMARK    1  A    between atoms: C_1  and  N_51
REMARK    2  A    between atoms: C_2  and  N_51
REMARK    3  A    between atoms: C_3  and  C_4
REMARK    4  A    between atoms: C_3  and  N_51
REMARK    5  A    between atoms: C_4  and  C_5
REMARK    6  A    between atoms: C_5  and  N_6
REMARK    7  A    between atoms: C_7  and  C_23
REMARK    8  A    between atoms: C_10  and  C_11
REMARK    9  A    between atoms: C_10  and  O_18
REMARK                            x       y       z     vdW  Elec       q    Type
REMARK                         _______ _______ _______ _____ _____    ______ ____
ROOT
ATOM      1  N   UNL     1       0.734   3.339   0.775  0.00  0.00    -0.284 N 
ATOM      2  C   UNL     1      -0.673   3.419   0.375  0.00  0.00    +0.144 C 
ATOM      3  C   UNL     1      -1.198   2.002   0.349  0.00  0.00    +0.071 C 
ATOM      4  C   UNL     1      -2.476   1.597   0.021  0.00  0.00    +0.133 C 
ATOM      5  C   UNL     1      -0.124   1.181   0.729  0.00  0.00    +0.249 C 
ATOM      6  O   UNL     1      -0.152  -0.032   0.829  0.00  0.00    -0.282 OA
ATOM      7  C   UNL     1       1.058   2.051   0.981  0.00  0.00    +0.288 C 
ATOM      8  O   UNL     1       2.153   1.654   1.323  0.00  0.00    -0.266 OA
ENDROOT
BRANCH   2   9
ATOM      9  C   UNL     1      -0.785   4.032  -0.997  0.00  0.00    -0.021 A 
ATOM     10  C   UNL     1      -1.800   4.931  -1.272  0.00  0.00    +0.007 A 
ATOM     11  C   UNL     1      -1.903   5.493  -2.530  0.00  0.00    +0.022 A 
ATOM     12  C   UNL     1      -0.992   5.157  -3.516  0.00  0.00    +0.059 A 
ATOM     13  C   UNL     1       0.023   4.257  -3.240  0.00  0.00    +0.060 A 
ATOM     14  C   UNL     1       0.129   3.699  -1.979  0.00  0.00    +0.027 A 
ATOM     15 CL   UNL     1       1.168   3.835  -4.476  0.00  0.00    -0.082 Cl
ATOM     16 CL   UNL     1      -1.122   5.863  -5.096  0.00  0.00    -0.082 Cl
ENDBRANCH   2   9
BRANCH   4  17
ATOM     17  C   UNL     1      -2.786   0.162  -0.096  0.00  0.00    +0.017 A 
ATOM     18  C   UNL     1      -1.990  -0.666  -0.895  0.00  0.00    +0.013 A 
ATOM     19  C   UNL     1      -2.283  -2.009  -0.996  0.00  0.00    +0.021 A 
ATOM     20  C   UNL     1      -3.369  -2.538  -0.317  0.00  0.00    +0.041 A 
ATOM     21  C   UNL     1      -4.165  -1.722   0.473  0.00  0.00    +0.021 A 
ATOM     22  C   UNL     1      -3.880  -0.379   0.587  0.00  0.00    +0.013 A 
ATOM     23 CL   UNL     1      -3.734  -4.229  -0.455  0.00  0.00    -0.084 Cl
ENDBRANCH   4  17
BRANCH   4  24
ATOM     24  O   UNL     1      -3.441   2.516  -0.192  0.00  0.00    -0.506 OA
ATOM     25  H   UNL     1      -4.298   2.053  -0.418  0.00  0.00    +0.292 HD
ENDBRANCH   4  24
BRANCH   1  26
ATOM     26  C   UNL     1       1.643   4.478   0.926  0.00  0.00    +0.107 C 
BRANCH  26  27
ATOM     27  C   UNL     1       2.345   4.750  -0.406  0.00  0.00    +0.000 C 
BRANCH  27  28
ATOM     28  C   UNL     1       3.293   5.941  -0.248  0.00  0.00    -0.078 C 
BRANCH  28  31
ATOM     29  C   UNL     1       3.009   6.651  -2.545  0.00  0.00    -0.097 C 
ATOM     30  C   UNL     1       5.054   7.176  -1.360  0.00  0.00    -0.097 C 
ATOM     31  N   UNL     1       3.979   6.177  -1.536  0.00  0.00    +0.376 N 
ATOM     32  H   UNL     1       4.394   5.295  -1.860  0.00  0.00    -0.083 HD
ENDBRANCH  28  31
ENDBRANCH  27  28
ENDBRANCH  26  27
ENDBRANCH   1  26
TORSDOF 7
