REMARK  Name = ZINC42305211
REMARK  5 active torsions:
REMARK  status: ('A' for Active; 'I' for Inactive)
REMARK    1  A    between atoms: C_3  and  N_12
REMARK    2  A    between atoms: C_4  and  N_11
REMARK    3  A    between atoms: C_6  and  C_7
REMARK    4  A    between atoms: C_17  and  C_19
REMARK    5  A    between atoms: C_19  and  O_20
REMARK                            x       y       z     vdW  Elec       q    Type
REMARK                         _______ _______ _______ _____ _____    ______ ____
ROOT
ATOM      1  C   UNL     1      -0.017   1.378   0.010  0.00  0.00    +0.014 A 
ATOM      2  C   UNL     1       1.169   2.090   0.002  0.00  0.00    +0.025 A 
ATOM      3  C   UNL     1       2.381   1.417  -0.013  0.00  0.00    +0.051 A 
ATOM      4  C   UNL     1       2.400   0.022  -0.021  0.00  0.00    +0.046 A 
ATOM      5  C   UNL     1       1.207  -0.683  -0.013  0.00  0.00    +0.037 A 
ATOM      6  C   UNL     1       0.002  -0.004   0.002  0.00  0.00    +0.057 A 
ENDROOT
BRANCH   3   7
ATOM      7  N   UNL     1       3.583   2.136  -0.021  0.00  0.00    -0.323 N 
ATOM      8  C   UNL     1       4.210   2.531  -1.290  0.00  0.00    +0.105 C 
ATOM      9  C   UNL     1       5.660   2.039  -1.298  0.00  0.00    +0.019 C 
ATOM     10  C   UNL     1       6.379   2.561  -0.051  0.00  0.00    +0.003 C 
ATOM     11  C   UNL     1       5.691   2.016   1.202  0.00  0.00    +0.025 C 
ATOM     12  C   UNL     1       4.238   2.513   1.239  0.00  0.00    +0.099 C 
BRANCH  12  13
ATOM     13  C   UNL     1       3.501   1.867   2.413  0.00  0.00    +0.178 C 
BRANCH  13  14
ATOM     14  O   UNL     1       3.631   0.446   2.333  0.00  0.00    -0.393 OA
ATOM     15  H   UNL     1       3.187  -0.031   3.048  0.00  0.00    +0.209 HD
ENDBRANCH  13  14
ENDBRANCH  12  13
ENDBRANCH   3   7
BRANCH   6  16
ATOM     16  C   UNL     1      -1.294  -0.773   0.011  0.00  0.00    +0.417 C 
ATOM     17  F   UNL     1      -2.368   0.123   0.026  0.00  0.00    -0.166 F 
ATOM     18  F   UNL     1      -1.370  -1.572  -1.135  0.00  0.00    -0.166 F 
ATOM     19  F   UNL     1      -1.347  -1.584   1.149  0.00  0.00    -0.166 F 
ENDBRANCH   6  16
BRANCH   4  20
ATOM     20  N   UNL     1       3.621  -0.663  -0.037  0.00  0.00    -0.357 N 
ATOM     21  H   UNL     1       4.455  -0.169  -0.042  0.00  0.00    +0.142 HD
ATOM     22  H   UNL     1       3.632  -1.633  -0.042  0.00  0.00    +0.142 HD
ENDBRANCH   4  20
TORSDOF 5
