REMARK  Name = ZINC27550405
REMARK  8 active torsions:
REMARK  status: ('A' for Active; 'I' for Inactive)
REMARK    1  A    between atoms: C_1  and  C_2
REMARK    2  A    between atoms: C_2  and  S_3
REMARK    3  A    between atoms: S_3  and  C_4
REMARK    4  A    between atoms: C_5  and  C_9
REMARK    5  A    between atoms: C_11  and  C_32
REMARK    6  A    between atoms: C_12  and  N_31
REMARK    7  A    between atoms: N_13  and  C_21
REMARK    8  A    between atoms: C_26  and  N_27
REMARK                            x       y       z     vdW  Elec       q    Type
REMARK                         _______ _______ _______ _____ _____    ______ ____
ROOT
ATOM      1  C   UNL     1      -2.739   2.335   2.505  0.00  0.00    +0.099 C 
ATOM      2  C   UNL     1      -4.071   2.969   2.232  0.00  0.00    +0.077 C 
ATOM      3  C   UNL     1      -4.735   2.734   1.070  0.00  0.00    +0.107 C 
ATOM      4  N   UNL     1      -4.185   1.909   0.115  0.00  0.00    -0.258 N 
ATOM      5  C   UNL     1      -2.842   1.638   0.119  0.00  0.00    +0.025 C 
ATOM      6  C   UNL     1      -2.105   1.831   1.234  0.00  0.00    +0.025 C 
ATOM      7  C   UNL     1      -0.721   1.573   1.243  0.00  0.00    +0.162 C 
ATOM      8  O   UNL     1      -0.086   1.746   2.264  0.00  0.00    -0.292 OA
ATOM      9  C   UNL     1      -0.013   1.086   0.008  0.00  0.00    +0.080 C 
ATOM     10  C   UNL     1      -0.758   1.595  -1.230  0.00  0.00    +0.014 C 
ATOM     11  C   UNL     1      -2.211   1.122  -1.151  0.00  0.00    +0.052 C 
ENDROOT
BRANCH   4  12
ATOM     12  C   UNL     1      -5.005   1.343  -0.869  0.00  0.00    +0.070 A 
ATOM     13  C   UNL     1      -5.602   0.108  -0.650  0.00  0.00    +0.027 A 
ATOM     14  C   UNL     1      -6.414  -0.446  -1.620  0.00  0.00    +0.022 A 
ATOM     15  C   UNL     1      -6.625   0.223  -2.813  0.00  0.00    +0.043 A 
ATOM     16  C   UNL     1      -6.027   1.451  -3.035  0.00  0.00    +0.054 A 
ATOM     17  C   UNL     1      -5.218   2.012  -2.066  0.00  0.00    +0.149 A 
ATOM     18 CL   UNL     1      -7.640  -0.479  -4.034  0.00  0.00    -0.083 Cl
BRANCH  17  19
ATOM     19  N   UNL     1      -4.579   3.326  -2.304  0.00  0.00    +0.058 N 
ATOM     20  O   UNL     1      -4.766   3.913  -3.355  0.00  0.00    -0.126 OA
ATOM     21  O   UNL     1      -3.866   3.821  -1.449  0.00  0.00    -0.126 OA
ENDBRANCH  17  19
ENDBRANCH   4  12
BRANCH   1  23
ATOM     22  C   UNL     1      -2.301   1.167   4.665  0.00  0.00    +0.049 A 
ATOM     23  C   UNL     1      -2.927   1.180   3.454  0.00  0.00    -0.014 A 
ATOM     24  C   UNL     1      -3.743   0.115   3.116  0.00  0.00    +0.013 A 
ATOM     25  C   UNL     1      -3.886  -0.909   3.990  0.00  0.00    +0.046 A 
ATOM     26  S   UNL     1      -2.860  -0.382   5.353  0.00  0.00    -0.090 S 
BRANCH  22  27
ATOM     27  S   UNL     1      -1.220   2.368   5.368  0.00  0.00    -0.118 S 
BRANCH  27  29
ATOM     28  C   UNL     1       0.162   2.629   7.714  0.00  0.00    +0.015 C 
ATOM     29  C   UNL     1      -0.786   1.673   6.987  0.00  0.00    +0.071 C 
ENDBRANCH  27  29
ENDBRANCH  22  27
ENDBRANCH   1  23
BRANCH   3  30
ATOM     30  N   UNL     1      -5.957   3.322   0.848  0.00  0.00    -0.345 N 
ATOM     31  H   UNL     1      -6.496   3.132  -0.093  0.00  0.00    +0.144 HD
ATOM     32  H   UNL     1      -6.397   3.982   1.610  0.00  0.00    +0.144 HD
ENDBRANCH   3  30
BRANCH   2  33
ATOM     33  C   UNL     1      -4.652   3.836   3.212  0.00  0.00    +0.099 C 
ATOM     34  N   UNL     1      -5.113   4.525   3.989  0.00  0.00    -0.191 NA
ENDBRANCH   2  33
TORSDOF 7
