REMARK  Name = ZINC49241318
REMARK  6 active torsions:
REMARK  status: ('A' for Active; 'I' for Inactive)
REMARK    1  A    between atoms: C_1  and  C_2
REMARK    2  A    between atoms: C_2  and  C_3
REMARK    3  A    between atoms: C_3  and  C_5
REMARK    4  A    between atoms: C_3  and  N_10
REMARK    5  A    between atoms: N_13  and  N_14
REMARK    6  A    between atoms: C_15  and  C_17
REMARK                            x       y       z     vdW  Elec       q    Type
REMARK                         _______ _______ _______ _____ _____    ______ ____
ROOT
ATOM      1  N   UNL     1      -2.082  -0.162   1.273  0.00  0.00    -0.291 N 
ATOM      2  C   UNL     1      -2.664   1.047   1.400  0.00  0.00    +0.316 C 
ATOM      3  O   UNL     1      -2.651   1.829   0.469  0.00  0.00    -0.251 OA
ATOM      4  N   UNL     1      -3.260   1.389   2.559  0.00  0.00    -0.218 N 
ATOM      5  H   UNL     1      -2.092  -0.785   2.016  0.00  0.00    +0.151 HD
ATOM      6  H   UNL     1      -3.679   2.259   2.651  0.00  0.00    +0.174 HD
ENDROOT
BRANCH   4   7
ATOM      7  N   UNL     1      -3.275   0.488   3.632  0.00  0.00    -0.229 N 
ATOM      8  C   UNL     1      -3.871   0.830   4.791  0.00  0.00    +0.267 C 
ATOM      9  O   UNL     1      -4.397   1.922   4.906  0.00  0.00    -0.268 OA
ATOM     10  H   UNL     1      -2.856  -0.382   3.541  0.00  0.00    +0.173 HD
BRANCH   8  11
ATOM     11  C   UNL     1      -3.886  -0.112   5.914  0.00  0.00    +0.075 A 
ATOM     12  C   UNL     1      -4.444   0.039   7.174  0.00  0.00    +0.021 A 
ATOM     13  C   UNL     1      -4.297  -1.031   8.024  0.00  0.00    +0.008 A 
ATOM     14  C   UNL     1      -3.637  -2.133   7.589  0.00  0.00    +0.046 A 
ATOM     15  S   UNL     1      -3.200  -1.755   6.011  0.00  0.00    -0.092 S 
ENDBRANCH   8  11
ENDBRANCH   4   7
BRANCH   1  16
ATOM     16  C   UNL     1      -1.433  -0.534   0.013  0.00  0.00    +0.111 C 
BRANCH  16  17
ATOM     17  C   UNL     1      -1.416  -2.035  -0.119  0.00  0.00    +0.010 A 
ATOM     18  C   UNL     1      -1.625  -2.797  -1.220  0.00  0.00    +0.013 A 
ATOM     19  C   UNL     1      -1.558  -4.173  -1.105  0.00  0.00    +0.008 A 
ATOM     20  C   UNL     1      -1.286  -4.719   0.105  0.00  0.00    +0.045 A 
ATOM     21  S   UNL     1      -1.108  -3.270   1.132  0.00  0.00    -0.100 S 
ENDBRANCH  16  17
BRANCH  16  23
ATOM     22  C   UNL     1      -0.019   1.526   0.010  0.00  0.00    +0.006 C 
ATOM     23  C   UNL     1       0.002  -0.004   0.002  0.00  0.00    +0.024 C 
ENDBRANCH  16  23
ENDBRANCH   1  16
TORSDOF 5
