REMARK  Name = ZINC06822141
REMARK  12 active torsions:
REMARK  status: ('A' for Active; 'I' for Inactive)
REMARK    1  A    between atoms: C_1  and  C_2
REMARK    2  A    between atoms: C_2  and  C_3
REMARK    3  A    between atoms: C_6  and  N_9
REMARK    4  A    between atoms: N_9  and  C_10
REMARK    5  A    between atoms: C_10  and  C_12
REMARK    6  A    between atoms: C_10  and  C_19
REMARK    7  A    between atoms: C_15  and  C_18
REMARK    8  A    between atoms: N_21  and  C_22
REMARK    9  A    between atoms: C_22  and  C_23
REMARK   10  A    between atoms: C_29  and  C_31
REMARK   11  A    between atoms: C_32  and  N_39
REMARK   12  A    between atoms: C_33  and  C_36
REMARK                            x       y       z     vdW  Elec       q    Type
REMARK                         _______ _______ _______ _____ _____    ______ ____
ROOT
ATOM      1  N   UNL     1       4.128   3.621  -0.711  0.00  0.00    -0.251 N 
ATOM      2  C   UNL     1       4.572   3.389  -1.962  0.00  0.00    +0.262 C 
ATOM      3  O   UNL     1       4.247   4.131  -2.871  0.00  0.00    -0.269 OA
ENDROOT
BRANCH   1   7
ATOM      4  C   UNL     1       1.362   6.657  -0.012  0.00  0.00    -0.048 A 
ATOM      5  C   UNL     1       1.710   6.325  -1.309  0.00  0.00    +0.005 A 
ATOM      6  C   UNL     1       2.627   5.320  -1.544  0.00  0.00    +0.024 A 
ATOM      7  C   UNL     1       3.200   4.641  -0.476  0.00  0.00    +0.038 A 
ATOM      8  C   UNL     1       2.844   4.972   0.825  0.00  0.00    +0.024 A 
ATOM      9  C   UNL     1       1.931   5.983   1.053  0.00  0.00    +0.005 A 
BRANCH   4  11
ATOM     10  C   UNL     1      -1.047   7.160   0.286  0.00  0.00    +0.009 C 
ATOM     11  C   UNL     1       0.362   7.755   0.241  0.00  0.00    +0.032 C 
ENDBRANCH   4  11
ENDBRANCH   1   7
BRANCH   2  12
ATOM     12  C   UNL     1       5.445   2.244  -2.228  0.00  0.00    +0.116 A 
ATOM     13  C   UNL     1       6.553   2.154  -3.072  0.00  0.00    +0.076 A 
ATOM     14  C   UNL     1       7.132   0.885  -3.059  0.00  0.00    +0.155 A 
ATOM     15  N   UNL     1       6.611  -0.052  -2.300  0.00  0.00    -0.203 NA
ATOM     16  S   UNL     1       5.381   0.596  -1.557  0.00  0.00    +0.019 S 
BRANCH  14  17
ATOM     17  C   UNL     1       8.317   0.598  -3.889  0.00  0.00    +0.262 C 
ATOM     18  O   UNL     1       8.794   1.470  -4.590  0.00  0.00    -0.269 OA
ATOM     19  N   UNL     1       8.870  -0.630  -3.872  0.00  0.00    -0.324 N 
ATOM     20  H   UNL     1       8.490  -1.326  -3.313  0.00  0.00    +0.145 HD
ATOM     21  H   UNL     1       9.650  -0.819  -4.418  0.00  0.00    +0.145 HD
ENDBRANCH  14  17
BRANCH  13  22
ATOM     22  N   UNL     1       7.028   3.211  -3.838  0.00  0.00    -0.355 N 
ATOM     23  H   UNL     1       6.582   4.072  -3.805  0.00  0.00    +0.142 HD
ATOM     24  H   UNL     1       7.804   3.088  -4.407  0.00  0.00    +0.142 HD
ENDBRANCH  13  22
ENDBRANCH   2  12
BRANCH   1  25
ATOM     25  C   UNL     1       4.618   2.806   0.403  0.00  0.00    +0.197 C 
BRANCH  25  26
ATOM     26  C   UNL     1       3.458   2.103   1.060  0.00  0.00    -0.018 A 
ATOM     27  C   UNL     1       2.177   2.277   0.569  0.00  0.00    +0.006 A 
ATOM     28  C   UNL     1       1.113   1.631   1.171  0.00  0.00    +0.004 A 
ATOM     29  C   UNL     1       1.329   0.814   2.264  0.00  0.00    -0.050 A 
ATOM     30  C   UNL     1       2.609   0.642   2.756  0.00  0.00    +0.004 A 
ATOM     31  C   UNL     1       3.674   1.287   2.154  0.00  0.00    +0.006 A 
ATOM     32  C   UNL     1       0.169   0.111   2.921  0.00  0.00    +0.044 C 
ENDBRANCH  25  26
BRANCH  25  33
ATOM     33  C   UNL     1       5.303   3.692   1.411  0.00  0.00    +0.239 C 
ATOM     34  O   UNL     1       5.375   4.888   1.218  0.00  0.00    -0.273 OA
ATOM     35  N   UNL     1       5.836   3.157   2.527  0.00  0.00    -0.311 N 
ATOM     36  H   UNL     1       5.778   2.201   2.682  0.00  0.00    +0.149 HD
BRANCH  35  37
ATOM     37  C   UNL     1       6.502   4.019   3.507  0.00  0.00    +0.135 C 
BRANCH  37  38
ATOM     38  C   UNL     1       7.014   3.168   4.671  0.00  0.00    +0.135 C 
ATOM     39  C   UNL     1       7.717   4.065   5.707  0.00  0.00    +0.035 C 
ATOM     40  C   UNL     1       6.926   3.824   7.016  0.00  0.00    +0.031 C 
ATOM     41  C   UNL     1       6.245   2.461   6.737  0.00  0.00    +0.160 C 
ATOM     42  O   UNL     1       5.909   2.533   5.335  0.00  0.00    -0.375 OA
ENDBRANCH  37  38
ENDBRANCH  35  37
ENDBRANCH  25  33
ENDBRANCH   1  25
TORSDOF 10
