REMARK  Name = ZINC08191750
REMARK  6 active torsions:
REMARK  status: ('A' for Active; 'I' for Inactive)
REMARK    1  A    between atoms: C_1  and  C_2
REMARK    2  A    between atoms: C_2  and  N_3
REMARK    3  A    between atoms: C_4  and  S_8
REMARK    4  A    between atoms: S_8  and  C_9
REMARK    5  A    between atoms: C_9  and  C_10
REMARK    6  A    between atoms: C_23  and  C_25
REMARK                            x       y       z     vdW  Elec       q    Type
REMARK                         _______ _______ _______ _____ _____    ______ ____
ROOT
ATOM      1  C   UNL     1      -2.852  -1.076   5.184  0.00  0.00    +0.230 C 
ATOM      2  O   UNL     1      -1.775  -0.680   5.577  0.00  0.00    -0.274 OA
ATOM      3  N   UNL     1      -3.804  -1.430   6.070  0.00  0.00    -0.266 N 
ATOM      4  C   UNL     1      -5.051  -1.894   5.630  0.00  0.00    +0.058 A 
ATOM      5  C   UNL     1      -5.176  -3.150   5.059  0.00  0.00    +0.025 A 
ATOM      6  C   UNL     1      -6.419  -3.600   4.651  0.00  0.00    +0.002 A 
ATOM      7  C   UNL     1      -7.537  -2.802   4.814  0.00  0.00    +0.002 A 
ATOM      8  C   UNL     1      -7.419  -1.544   5.375  0.00  0.00    +0.025 A 
ATOM      9  C   UNL     1      -6.176  -1.082   5.776  0.00  0.00    +0.055 A 
ATOM     10  N   UNL     1      -6.024   0.209   6.295  0.00  0.00    -0.284 N 
ATOM     11  C   UNL     1      -5.323   0.412   7.432  0.00  0.00    +0.219 C 
ATOM     12  O   UNL     1      -5.128   1.542   7.826  0.00  0.00    -0.275 OA
ATOM     13  C   UNL     1      -4.782  -0.756   8.213  0.00  0.00    +0.118 C 
ATOM     14  C   UNL     1      -3.552  -1.342   7.510  0.00  0.00    +0.087 C 
ATOM     15  C   UNL     1      -3.263  -2.740   8.061  0.00  0.00    +0.029 C 
ATOM     16  H   UNL     1      -6.424   0.963   5.835  0.00  0.00    +0.155 HD
ENDROOT
BRANCH   1  17
ATOM     17  C   UNL     1      -3.126  -1.171   3.705  0.00  0.00    +0.173 C 
BRANCH  17  18
ATOM     18  S   UNL     1      -1.662  -0.628   2.783  0.00  0.00    -0.075 S 
BRANCH  18  20
ATOM     19  N   UNL     1      -1.372  -0.511   0.012  0.00  0.00    -0.220 N 
ATOM     20  C   UNL     1      -2.135  -0.796   1.094  0.00  0.00    +0.210 A 
ATOM     21  N   UNL     1      -3.296  -1.223   0.647  0.00  0.00    -0.102 NA
ATOM     22  N   UNL     1      -3.311  -1.224  -0.637  0.00  0.00    -0.022 NA
ATOM     23  N   UNL     1      -2.184  -0.800  -1.099  0.00  0.00    -0.043 NA
BRANCH  19  25
ATOM     24  C   UNL     1      -0.019   1.526   0.010  0.00  0.00    +0.029 C 
ATOM     25  C   UNL     1       0.002  -0.004   0.002  0.00  0.00    +0.145 C 
ENDBRANCH  19  25
ENDBRANCH  18  20
ENDBRANCH  17  18
ENDBRANCH   1  17
TORSDOF 4
