REMARK  Name = ZINC11204681
REMARK  6 active torsions:
REMARK  status: ('A' for Active; 'I' for Inactive)
REMARK    1  A    between atoms: C_1  and  C_2
REMARK    2  A    between atoms: C_8  and  C_10
REMARK    3  A    between atoms: C_11  and  C_29
REMARK    4  A    between atoms: N_12  and  C_28
REMARK    5  A    between atoms: C_16  and  C_18
REMARK    6  A    between atoms: C_22  and  N_24
REMARK                            x       y       z     vdW  Elec       q    Type
REMARK                         _______ _______ _______ _____ _____    ______ ____
ROOT
ATOM      1  C   UNL     1      -2.947   0.807   1.412  0.00  0.00    +0.056 C 
ATOM      2  C   UNL     1      -4.207   1.153   1.754  0.00  0.00    +0.019 C 
ATOM      3  N   UNL     1      -5.030   1.784   0.866  0.00  0.00    -0.289 N 
ATOM      4  C   UNL     1      -4.669   2.105  -0.383  0.00  0.00    +0.137 C 
ATOM      5  S   UNL     1      -5.800   2.897  -1.395  0.00  0.00    -0.018 S 
ATOM      6  N   UNL     1      -3.443   1.825  -0.869  0.00  0.00    -0.315 N 
ATOM      7  C   UNL     1      -2.479   1.144   0.011  0.00  0.00    +0.139 C 
ATOM      8  C   UNL     1      -6.385   2.130   1.304  0.00  0.00    +0.137 C 
ATOM      9  C   UNL     1      -4.713   0.836   3.137  0.00  0.00    +0.061 C 
ATOM     10  H   UNL     1      -3.202   2.067  -1.777  0.00  0.00    +0.149 HD
ENDROOT
BRANCH   1  18
ATOM     11  C   UNL     1       1.474  -2.471   5.544  0.00  0.00    +0.089 C 
ATOM     12  C   UNL     1       0.725  -1.231   5.127  0.00  0.00    +0.136 A 
ATOM     13  C   UNL     1      -0.167  -1.128   4.116  0.00  0.00    +0.091 A 
ATOM     14  C   UNL     1      -0.571   0.233   4.153  0.00  0.00    +0.168 A 
ATOM     15  N   UNL     1       0.094   0.784   5.134  0.00  0.00    -0.063 NA
ATOM     16  O   UNL     1       0.812  -0.016   5.687  0.00  0.00    -0.358 OA
ATOM     17  N   UNL     1      -1.488   0.857   3.309  0.00  0.00    -0.264 N 
ATOM     18  C   UNL     1      -2.093   0.153   2.332  0.00  0.00    +0.249 C 
ATOM     19  O   UNL     1      -1.904  -1.047   2.240  0.00  0.00    -0.270 OA
ATOM     20  H   UNL     1      -1.691   1.799   3.424  0.00  0.00    +0.157 HD
ENDBRANCH   1  18
BRANCH   7  21
ATOM     21  C   UNL     1      -1.258   2.019   0.127  0.00  0.00    -0.020 A 
ATOM     22  C   UNL     1      -1.397   3.370   0.387  0.00  0.00    +0.007 A 
ATOM     23  C   UNL     1      -0.278   4.173   0.488  0.00  0.00    +0.018 A 
ATOM     24  C   UNL     1       0.983   3.625   0.334  0.00  0.00    +0.048 A 
ATOM     25  C   UNL     1       1.123   2.273   0.079  0.00  0.00    +0.140 A 
ATOM     26  C   UNL     1       0.002   1.470  -0.021  0.00  0.00    +0.039 A 
ATOM     27 BR   UNL     1       2.516   4.724   0.472  0.00  0.00    -0.048 Br
BRANCH  25  28
ATOM     28  N   UNL     1       2.471   1.686  -0.086  0.00  0.00    +0.058 N 
ATOM     29  O   UNL     1       2.594   0.495  -0.311  0.00  0.00    -0.126 OA
ATOM     30  O   UNL     1       3.458   2.394   0.002  0.00  0.00    -0.126 OA
ENDBRANCH  25  28
ENDBRANCH   7  21
TORSDOF 3
