REMARK  Name = ZINC03104245
REMARK  6 active torsions:
REMARK  status: ('A' for Active; 'I' for Inactive)
REMARK    1  A    between atoms: C_6  and  C_7
REMARK    2  A    between atoms: N_17  and  C_18
REMARK    3  A    between atoms: C_18  and  C_19
REMARK    4  A    between atoms: C_19  and  N_20
REMARK    5  A    between atoms: N_20  and  C_21
REMARK    6  A    between atoms: C_24  and  C_26
REMARK                            x       y       z     vdW  Elec       q    Type
REMARK                         _______ _______ _______ _____ _____    ______ ____
ROOT
ATOM      1  C   UNL     1      -1.763  -5.343   3.594  0.00  0.00    +0.014 A 
ATOM      2  C   UNL     1      -1.177  -5.007   2.391  0.00  0.00    +0.028 A 
ATOM      3  C   UNL     1      -1.801  -5.344   1.195  0.00  0.00    +0.069 A 
ATOM      4  C   UNL     1      -3.026  -6.013   1.218  0.00  0.00    +0.066 A 
ATOM      5  C   UNL     1      -3.607  -6.346   2.436  0.00  0.00    +0.040 A 
ATOM      6  C   UNL     1      -2.976  -6.011   3.617  0.00  0.00    +0.057 A 
ATOM      7  N   UNL     1      -3.669  -6.354   0.031  0.00  0.00    -0.316 N 
ATOM      8  H   UNL     1      -4.518  -6.822   0.057  0.00  0.00    +0.169 HD
ATOM      9  C   UNL     1      -3.113  -6.035  -1.155  0.00  0.00    +0.314 A 
ATOM     10  O   UNL     1      -3.670  -6.330  -2.193  0.00  0.00    -0.262 OA
ATOM     11  C   UNL     1      -1.807  -5.315  -1.180  0.00  0.00    +0.316 A 
ATOM     12  O   UNL     1      -1.290  -5.018  -2.238  0.00  0.00    -0.262 OA
ATOM     13  N   UNL     1      -1.206  -4.997  -0.015  0.00  0.00    -0.301 N 
ENDROOT
BRANCH   6  14
ATOM     14  C   UNL     1      -3.608  -6.375   4.935  0.00  0.00    +0.417 C 
ATOM     15  F   UNL     1      -3.167  -7.642   5.331  0.00  0.00    -0.166 F 
ATOM     16  F   UNL     1      -3.244  -5.431   5.903  0.00  0.00    -0.166 F 
ATOM     17  F   UNL     1      -5.000  -6.387   4.797  0.00  0.00    -0.166 F 
ENDBRANCH   6  14
BRANCH  13  18
ATOM     18  C   UNL     1       0.077  -4.290  -0.023  0.00  0.00    +0.144 C 
BRANCH  18  19
ATOM     19  C   UNL     1      -0.173  -2.780  -0.012  0.00  0.00    +0.124 C 
BRANCH  19  20
ATOM     20  N   UNL     1       1.111  -2.073  -0.020  0.00  0.00    -0.328 N 
ATOM     21  H   UNL     1       1.941  -2.575  -0.031  0.00  0.00    +0.148 HD
BRANCH  20  22
ATOM     22  C   UNL     1       1.138  -0.683  -0.013  0.00  0.00    +0.115 A 
ATOM     23  C   UNL     1       2.361  -0.017  -0.021  0.00  0.00    +0.079 A 
ATOM     24  C   UNL     1       2.373   1.367  -0.013  0.00  0.00    +0.037 A 
ATOM     25  C   UNL     1       1.159   2.040   0.002  0.00  0.00    +0.072 A 
ATOM     26  C   UNL     1      -0.016   1.316   0.009  0.00  0.00    +0.096 A 
ATOM     27 CL   UNL     1       3.850  -0.910  -0.039  0.00  0.00    -0.080 Cl
ATOM     28  N   UNL     1      -0.066  -0.044   0.002  0.00  0.00    -0.348 N 
ATOM     29  H   UNL     1      -0.956  -0.556   0.008  0.00  0.00    +0.167 HD
BRANCH  25  30
ATOM     30  C   UNL     1       1.124   3.547   0.010  0.00  0.00    +0.419 C 
ATOM     31  F   UNL     1      -0.205   3.982   0.025  0.00  0.00    -0.166 F 
ATOM     32  F   UNL     1       1.783   4.022   1.149  0.00  0.00    -0.166 F 
ATOM     33  F   UNL     1       1.762   4.034  -1.136  0.00  0.00    -0.166 F 
ENDBRANCH  25  30
ENDBRANCH  20  22
ENDBRANCH  19  20
ENDBRANCH  18  19
ENDBRANCH  13  18
TORSDOF 6
