REMARK  Name = ZINC53746811
REMARK  12 active torsions:
REMARK  status: ('A' for Active; 'I' for Inactive)
REMARK    1  A    between atoms: C_1  and  C_2
REMARK    2  A    between atoms: C_2  and  N_3
REMARK    3  A    between atoms: N_3  and  C_4
REMARK    4  A    between atoms: C_4  and  C_5
REMARK    5  A    between atoms: C_5  and  C_7
REMARK    6  A    between atoms: C_5  and  C_8
REMARK    7  A    between atoms: C_10  and  C_12
REMARK    8  A    between atoms: C_12  and  O_13
REMARK    9  A    between atoms: O_13  and  C_14
REMARK   10  A    between atoms: C_17  and  C_21
REMARK   11  A    between atoms: C_21  and  O_23
REMARK   12  A    between atoms: O_23  and  C_24
REMARK                            x       y       z     vdW  Elec       q    Type
REMARK                         _______ _______ _______ _____ _____    ______ ____
ROOT
ATOM      1  O   UNL     1      -2.013  -0.783  -3.652  0.00  0.00    -0.482 OA
ENDROOT
BRANCH   1   2
ATOM      2  C   UNL     1      -3.348  -0.627  -3.842  0.00  0.00    +0.135 A 
ATOM      3  C   UNL     1      -4.149  -0.179  -2.798  0.00  0.00    +0.047 A 
ATOM      4  C   UNL     1      -5.503  -0.019  -2.986  0.00  0.00    +0.018 A 
ATOM      5  C   UNL     1      -6.074  -0.309  -4.229  0.00  0.00    +0.060 A 
ATOM      6  C   UNL     1      -5.265  -0.759  -5.277  0.00  0.00    +0.034 A 
ATOM      7  C   UNL     1      -3.910  -0.911  -5.082  0.00  0.00    +0.060 A 
ATOM      8 BR   UNL     1      -2.813  -1.512  -6.500  0.00  0.00    -0.046 Br
BRANCH   5   9
ATOM      9  C   UNL     1      -7.524  -0.140  -4.435  0.00  0.00    +0.339 C 
ATOM     10  O   UNL     1      -8.225   0.251  -3.523  0.00  0.00    -0.245 OA
BRANCH   9  11
ATOM     11  O   UNL     1      -8.072  -0.420  -5.634  0.00  0.00    -0.464 OA
ATOM     12  C   UNL     1      -9.483  -0.234  -5.762  0.00  0.00    +0.280 C 
ENDBRANCH   9  11
ENDBRANCH   5   9
ENDBRANCH   1   2
BRANCH   1  13
ATOM     13  C   UNL     1      -1.502  -0.473  -2.354  0.00  0.00    +0.324 C 
BRANCH  13  15
ATOM     14  N   UNL     1       0.688  -0.476  -1.203  0.00  0.00    -0.298 N 
ATOM     15  C   UNL     1      -0.013  -0.705  -2.332  0.00  0.00    +0.253 C 
ATOM     16  O   UNL     1       0.555  -1.096  -3.330  0.00  0.00    -0.272 OA
BRANCH  14  18
ATOM     17  C   UNL     1      -0.019   1.526   0.010  0.00  0.00    +0.024 C 
ATOM     18  C   UNL     1       0.002  -0.004   0.002  0.00  0.00    +0.104 C 
ENDBRANCH  14  18
BRANCH  14  19
ATOM     19  C   UNL     1       2.135  -0.701  -1.182  0.00  0.00    +0.125 C 
BRANCH  19  20
ATOM     20  C   UNL     1       2.421  -2.145  -0.763  0.00  0.00    +0.106 C 
ATOM     21  C   UNL     1       1.957  -2.359   0.679  0.00  0.00    +0.025 C 
BRANCH  20  22
ATOM     22  C   UNL     1       3.867  -2.406  -0.858  0.00  0.00    +0.067 C 
ATOM     23  N   UNL     1       4.982  -2.607  -0.930  0.00  0.00    -0.196 NA
ENDBRANCH  20  22
ENDBRANCH  19  20
ENDBRANCH  14  19
ENDBRANCH  13  15
ENDBRANCH   1  13
TORSDOF 9
