REMARK  Name = ZINC13940927
REMARK  11 active torsions:
REMARK  status: ('A' for Active; 'I' for Inactive)
REMARK    1  A    between atoms: C_1  and  N_2
REMARK    2  A    between atoms: N_2  and  C_3
REMARK    3  A    between atoms: N_2  and  C_4
REMARK    4  A    between atoms: C_7  and  C_10
REMARK    5  A    between atoms: C_11  and  C_12
REMARK    6  A    between atoms: C_11  and  N_31
REMARK    7  A    between atoms: N_14  and  N_15
REMARK    8  A    between atoms: C_16  and  C_17
REMARK    9  A    between atoms: C_20  and  C_22
REMARK   10  A    between atoms: C_26  and  N_28
REMARK   11  A    between atoms: C_32  and  C_34
REMARK                            x       y       z     vdW  Elec       q    Type
REMARK                         _______ _______ _______ _____ _____    ______ ____
ROOT
ATOM      1  C   UNL     1       7.033  10.230  -0.290  0.00  0.00    +0.036 C 
ATOM      2  C   UNL     1       5.703  10.496  -0.164  0.00  0.00    +0.098 C 
ENDROOT
BRANCH   1   6
ATOM      3  C   UNL     1       9.756  13.376  -1.045  0.00  0.00    +0.029 A 
ATOM      4  C   UNL     1      10.205  12.194  -0.457  0.00  0.00    +0.023 A 
ATOM      5  C   UNL     1       9.330  11.176  -0.211  0.00  0.00    +0.010 A 
ATOM      6  C   UNL     1       7.977  11.320  -0.552  0.00  0.00    -0.023 A 
ATOM      7  C   UNL     1       7.531  12.509  -1.149  0.00  0.00    +0.010 A 
ATOM      8  C   UNL     1       8.413  13.523  -1.386  0.00  0.00    +0.023 A 
BRANCH   3  10
ATOM      9  C   UNL     1      12.064  14.256  -0.937  0.00  0.00    +0.129 C 
ATOM     10  N   UNL     1      10.651  14.409  -1.294  0.00  0.00    -0.336 N 
ATOM     11  C   UNL     1      10.182  15.652  -1.912  0.00  0.00    +0.129 C 
ENDBRANCH   3  10
ENDBRANCH   1   6
BRANCH   2  12
ATOM     12  C   UNL     1       4.743   9.396  -0.051  0.00  0.00    +0.277 C 
ATOM     13  O   UNL     1       5.134   8.244  -0.072  0.00  0.00    -0.267 OA
ATOM     14  N   UNL     1       3.428   9.659   0.077  0.00  0.00    -0.202 N 
ATOM     15  H   UNL     1       3.123  10.576   0.162  0.00  0.00    +0.178 HD
BRANCH  14  16
ATOM     16  N   UNL     1       2.574   8.692   0.087  0.00  0.00    -0.184 NA
ATOM     17  C   UNL     1       1.278   8.952   0.213  0.00  0.00    +0.176 C 
BRANCH  17  18
ATOM     18  C   UNL     1       0.359   7.911   0.224  0.00  0.00    +0.148 A 
ATOM     19  C   UNL     1      -1.098   8.037   0.355  0.00  0.00    +0.051 A 
ATOM     20  C   UNL     1      -1.595   6.772   0.317  0.00  0.00    +0.050 A 
ATOM     21  C   UNL     1      -0.503   5.889   0.168  0.00  0.00    +0.136 A 
ATOM     22  O   UNL     1       0.641   6.593   0.121  0.00  0.00    -0.454 OA
BRANCH  21  23
ATOM     23  C   UNL     1      -0.601   4.433   0.084  0.00  0.00    +0.019 A 
ATOM     24  C   UNL     1      -1.856   3.802   0.150  0.00  0.00    +0.012 A 
ATOM     25  C   UNL     1      -1.938   2.431   0.065  0.00  0.00    +0.003 A 
ATOM     26  C   UNL     1      -0.786   1.671  -0.075  0.00  0.00    +0.033 A 
ATOM     27  C   UNL     1       0.457   2.282  -0.142  0.00  0.00    +0.127 A 
ATOM     28  C   UNL     1       0.560   3.652  -0.064  0.00  0.00    +0.044 A 
BRANCH  27  29
ATOM     29  N   UNL     1       1.677   1.458  -0.297  0.00  0.00    +0.056 N 
ATOM     30  O   UNL     1       1.580   0.147  -0.372  0.00  0.00    -0.126 OA
ATOM     31  O   UNL     1       2.858   2.036  -0.361  0.00  0.00    -0.126 OA
ENDBRANCH  27  29
ENDBRANCH  21  23
ENDBRANCH  17  18
ENDBRANCH  14  16
ENDBRANCH   2  12
BRANCH   2  32
ATOM     32  N   UNL     1       5.255  11.818  -0.142  0.00  0.00    -0.277 N 
ATOM     33  C   UNL     1       4.362  12.241  -1.058  0.00  0.00    +0.248 C 
ATOM     34  O   UNL     1       3.874  11.451  -1.843  0.00  0.00    -0.270 OA
ATOM     35  H   UNL     1       5.586  12.431   0.533  0.00  0.00    +0.155 HD
BRANCH  33  36
ATOM     36  C   UNL     1       3.974  13.667  -1.108  0.00  0.00    +0.037 A 
ATOM     37  C   UNL     1       4.527  14.576  -0.204  0.00  0.00    +0.013 A 
ATOM     38  C   UNL     1       4.165  15.906  -0.259  0.00  0.00    +0.001 A 
ATOM     39  C   UNL     1       3.248  16.338  -1.201  0.00  0.00    +0.000 A 
ATOM     40  C   UNL     1       2.692  15.441  -2.096  0.00  0.00    +0.001 A 
ATOM     41  C   UNL     1       3.049  14.109  -2.055  0.00  0.00    +0.013 A 
ENDBRANCH  33  36
ENDBRANCH   2  32
TORSDOF 9
