REMARK  Name = ZINC01436364
REMARK  13 active torsions:
REMARK  status: ('A' for Active; 'I' for Inactive)
REMARK    1  A    between atoms: C_1  and  C_2
REMARK    2  A    between atoms: C_5  and  N_8
REMARK    3  A    between atoms: C_11  and  C_18
REMARK    4  A    between atoms: C_13  and  C_16
REMARK    5  A    between atoms: C_14  and  N_15
REMARK    6  A    between atoms: C_20  and  O_28
REMARK    7  A    between atoms: C_21  and  O_26
REMARK    8  A    between atoms: C_22  and  O_24
REMARK    9  A    between atoms: O_24  and  C_25
REMARK   10  A    between atoms: O_26  and  C_27
REMARK   11  A    between atoms: O_28  and  C_29
REMARK   12  A    between atoms: C_33  and  C_35
REMARK   13  A    between atoms: C_33  and  C_36
REMARK                            x       y       z     vdW  Elec       q    Type
REMARK                         _______ _______ _______ _____ _____    ______ ____
ROOT
ATOM      1  N   UNL     1      -0.002  -0.009  -0.012  0.00  0.00    -0.260 N 
ATOM      2  C   UNL     1      -1.174  -0.710   0.099  0.00  0.00    +0.025 C 
ATOM      3  C   UNL     1      -1.169  -1.998   0.501  0.00  0.00    +0.025 C 
ATOM      4  C   UNL     1       0.122  -2.699   0.843  0.00  0.00    +0.098 C 
ATOM      5  C   UNL     1       1.303  -1.966   0.278  0.00  0.00    +0.077 C 
ATOM      6  C   UNL     1       1.200  -0.670  -0.123  0.00  0.00    +0.107 C 
ATOM      7  C   UNL     1      -2.367  -2.726   0.617  0.00  0.00    +0.162 C 
ATOM      8  O   UNL     1      -2.326  -3.890   0.963  0.00  0.00    -0.292 OA
ATOM      9  C   UNL     1      -3.697  -2.090   0.320  0.00  0.00    +0.086 C 
ATOM     10  C   UNL     1      -3.604  -0.586   0.599  0.00  0.00    -0.023 C 
ATOM     11  C   UNL     1      -2.465  -0.007  -0.242  0.00  0.00    +0.058 C 
ATOM     12  C   UNL     1      -3.314  -0.356   2.084  0.00  0.00    +0.011 C 
ATOM     13  C   UNL     1      -4.921   0.094   0.221  0.00  0.00    +0.011 C 
ENDROOT
BRANCH   1  18
ATOM     14  C   UNL     1      -0.104   5.664  -0.040  0.00  0.00    +0.044 C 
ATOM     15  C   UNL     1      -0.077   4.157  -0.033  0.00  0.00    -0.050 A 
ATOM     16  C   UNL     1       0.035   3.475   1.165  0.00  0.00    +0.005 A 
ATOM     17  C   UNL     1       0.060   2.094   1.175  0.00  0.00    +0.024 A 
ATOM     18  C   UNL     1      -0.028   1.391  -0.019  0.00  0.00    +0.040 A 
ATOM     19  C   UNL     1      -0.135   2.079  -1.221  0.00  0.00    +0.024 A 
ATOM     20  C   UNL     1      -0.164   3.460  -1.224  0.00  0.00    +0.005 A 
ENDBRANCH   1  18
BRANCH   4  21
ATOM     21  C   UNL     1       0.259  -2.776   2.342  0.00  0.00    -0.028 A 
ATOM     22  C   UNL     1       0.298  -1.615   3.091  0.00  0.00    +0.054 A 
ATOM     23  C   UNL     1       0.419  -1.683   4.471  0.00  0.00    +0.165 A 
ATOM     24  C   UNL     1       0.513  -2.919   5.099  0.00  0.00    +0.204 A 
ATOM     25  C   UNL     1       0.479  -4.083   4.341  0.00  0.00    +0.165 A 
ATOM     26  C   UNL     1       0.352  -4.008   2.962  0.00  0.00    +0.054 A 
BRANCH  25  27
ATOM     27  O   UNL     1       0.570  -5.296   4.951  0.00  0.00    -0.491 OA
ATOM     28  C   UNL     1       0.528  -6.450   4.110  0.00  0.00    +0.277 C 
ENDBRANCH  25  27
BRANCH  24  29
ATOM     29  O   UNL     1       0.638  -2.989   6.452  0.00  0.00    -0.488 OA
ATOM     30  C   UNL     1       1.965  -2.984   6.982  0.00  0.00    +0.277 C 
ENDBRANCH  24  29
BRANCH  23  31
ATOM     31  O   UNL     1       0.452  -0.540   5.208  0.00  0.00    -0.491 OA
ATOM     32  C   UNL     1       0.350   0.694   4.496  0.00  0.00    +0.277 C 
ENDBRANCH  23  31
ENDBRANCH   4  21
BRANCH   6  33
ATOM     33  N   UNL     1       2.297  -0.019  -0.634  0.00  0.00    -0.345 N 
ATOM     34  H   UNL     1       2.248   0.928  -0.839  0.00  0.00    +0.144 HD
ATOM     35  H   UNL     1       3.121  -0.506  -0.790  0.00  0.00    +0.144 HD
ENDBRANCH   6  33
BRANCH   5  36
ATOM     36  C   UNL     1       2.558  -2.643   0.154  0.00  0.00    +0.099 C 
ATOM     37  N   UNL     1       3.554  -3.180   0.055  0.00  0.00    -0.191 NA
ENDBRANCH   5  36
TORSDOF 7
