REMARK  Name = ZINC35445432
REMARK  6 active torsions:
REMARK  status: ('A' for Active; 'I' for Inactive)
REMARK    1  A    between atoms: C_6  and  C_7
REMARK    2  A    between atoms: C_7  and  N_8
REMARK    3  A    between atoms: C_9  and  C_11
REMARK    4  A    between atoms: C_11  and  N_12
REMARK    5  A    between atoms: C_15  and  S_28
REMARK    6  A    between atoms: S_28  and  N_31
REMARK                            x       y       z     vdW  Elec       q    Type
REMARK                         _______ _______ _______ _____ _____    ______ ____
ROOT
ATOM      1  N   UNL     1      -4.572  -2.693  -3.016  0.00  0.00    -0.259 N 
ATOM      2  C   UNL     1      -4.548  -4.092  -3.018  0.00  0.00    +0.060 A 
ATOM      3  C   UNL     1      -3.370  -4.777  -2.761  0.00  0.00    +0.054 A 
ATOM      4  C   UNL     1      -3.362  -6.160  -2.777  0.00  0.00    +0.107 A 
ATOM      5  C   UNL     1      -4.523  -6.861  -3.049  0.00  0.00    +0.030 A 
ATOM      6  C   UNL     1      -5.702  -6.184  -3.303  0.00  0.00    +0.027 A 
ATOM      7  C   UNL     1      -5.717  -4.798  -3.284  0.00  0.00    +0.052 A 
ATOM      8  N   UNL     1      -6.920  -4.106  -3.520  0.00  0.00    -0.317 N 
ATOM      9  C   UNL     1      -7.978  -4.825  -4.228  0.00  0.00    +0.106 C 
ATOM     10  C   UNL     1      -8.799  -3.881  -5.101  0.00  0.00    +0.019 C 
ATOM     11  C   UNL     1      -9.280  -2.717  -4.229  0.00  0.00    +0.004 C 
ATOM     12  C   UNL     1      -8.066  -1.906  -3.792  0.00  0.00    +0.032 C 
ATOM     13  C   UNL     1      -7.065  -2.749  -3.019  0.00  0.00    +0.160 C 
ATOM     14  C   UNL     1      -5.740  -2.033  -3.001  0.00  0.00    +0.241 C 
ATOM     15  O   UNL     1      -5.729  -0.820  -2.975  0.00  0.00    -0.273 OA
ENDROOT
BRANCH   4  16
ATOM     16  S   UNL     1      -1.867  -7.033  -2.450  0.00  0.00    +0.061 S 
ATOM     17  O   UNL     1      -1.999  -8.309  -3.062  0.00  0.00    -0.153 OA
ATOM     18  O   UNL     1      -0.802  -6.145  -2.762  0.00  0.00    -0.153 OA
BRANCH  16  19
ATOM     19  N   UNL     1      -1.800  -7.296  -0.817  0.00  0.00    -0.177 NA
ATOM     20  C   UNL     1      -1.168  -6.313   0.074  0.00  0.00    +0.109 C 
ATOM     21  C   UNL     1      -2.161  -5.940   1.180  0.00  0.00    +0.017 C 
ATOM     22  C   UNL     1      -2.636  -7.213   1.884  0.00  0.00    +0.003 C 
ATOM     23  C   UNL     1      -3.352  -8.117   0.878  0.00  0.00    +0.017 C 
ATOM     24  C   UNL     1      -2.378  -8.513  -0.230  0.00  0.00    +0.109 C 
ENDBRANCH  16  19
ENDBRANCH   4  16
BRANCH   1  25
ATOM     25  C   UNL     1      -3.313  -1.943  -3.024  0.00  0.00    +0.209 C 
BRANCH  25  27
ATOM     26  N   UNL     1      -1.726  -1.017  -1.368  0.00  0.00    -0.310 N 
ATOM     27  C   UNL     1      -2.867  -1.694  -1.606  0.00  0.00    +0.231 C 
ATOM     28  O   UNL     1      -3.535  -2.102  -0.680  0.00  0.00    -0.274 OA
ATOM     29  H   UNL     1      -1.192  -0.691  -2.108  0.00  0.00    +0.149 HD
BRANCH  26  30
ATOM     30  C   UNL     1      -1.293  -0.775   0.011  0.00  0.00    +0.139 C 
BRANCH  30  36
ATOM     31  C   UNL     1      -0.017   1.378   0.010  0.00  0.00    +0.006 A 
ATOM     32  C   UNL     1       1.171   2.086   0.002  0.00  0.00    +0.020 A 
ATOM     33  C   UNL     1       2.378   1.410  -0.013  0.00  0.00    +0.041 A 
ATOM     34  C   UNL     1       2.396   0.027  -0.021  0.00  0.00    +0.020 A 
ATOM     35  C   UNL     1       1.208  -0.679  -0.013  0.00  0.00    +0.006 A 
ATOM     36  C   UNL     1       0.002  -0.004   0.002  0.00  0.00    -0.030 A 
ATOM     37 CL   UNL     1       3.870   2.298  -0.023  0.00  0.00    -0.084 Cl
ENDBRANCH  30  36
ENDBRANCH  26  30
ENDBRANCH  25  27
ENDBRANCH   1  25
TORSDOF 6
