REMARK  Name = ZINC07736319
REMARK  2 active torsions:
REMARK  status: ('A' for Active; 'I' for Inactive)
REMARK    1  A    between atoms: C_10  and  C_11
REMARK    2  A    between atoms: C_14  and  C_22
REMARK                            x       y       z     vdW  Elec       q    Type
REMARK                         _______ _______ _______ _____ _____    ______ ____
ROOT
ATOM      1  C   UNL     1       4.960   0.161  -0.046  0.00  0.00    +0.145 C 
ATOM      2  C   UNL     1       5.732  -0.110   1.252  0.00  0.00    +0.059 C 
ATOM      3  C   UNL     1       7.157   0.442   1.134  0.00  0.00    +0.106 C 
ATOM      4  N   UNL     1       7.850  -0.269   0.042  0.00  0.00    -0.305 N 
ATOM      5  C   UNL     1       7.121  -0.464  -1.122  0.00  0.00    +0.236 A 
ATOM      6  N   UNL     1       5.778  -0.264  -1.179  0.00  0.00    -0.206 N 
ATOM      7  N   UNL     1       5.410  -0.549  -2.494  0.00  0.00    -0.042 NA
ATOM      8  N   UNL     1       6.495  -0.886  -3.114  0.00  0.00    -0.021 NA
ATOM      9  N   UNL     1       7.506  -0.842  -2.308  0.00  0.00    -0.092 NA
ATOM     10  H   UNL     1       8.764  -0.582   0.133  0.00  0.00    +0.150 HD
ENDROOT
BRANCH   1  20
ATOM     11  C   UNL     1      -0.016   1.357   0.028  0.00  0.00    +0.001 A 
ATOM     12  C   UNL     1       1.169   2.091   0.021  0.00  0.00    +0.001 A 
ATOM     13  C   UNL     1       2.379   1.468  -0.001  0.00  0.00    +0.009 A 
ATOM     14  C   UNL     1       2.438   0.064  -0.015  0.00  0.00    -0.013 A 
ATOM     15  C   UNL     1       1.233  -0.683  -0.007  0.00  0.00    -0.018 A 
ATOM     16  C   UNL     1       0.002  -0.004   0.014  0.00  0.00    +0.008 A 
ATOM     17  C   UNL     1       1.292  -2.087  -0.021  0.00  0.00    +0.008 A 
ATOM     18  C   UNL     1       2.502  -2.709  -0.042  0.00  0.00    +0.001 A 
ATOM     19  C   UNL     1       3.687  -1.976  -0.049  0.00  0.00    +0.006 A 
ATOM     20  C   UNL     1       3.668  -0.615  -0.037  0.00  0.00    -0.015 A 
ENDBRANCH   1  20
BRANCH   3  21
ATOM     21  C   UNL     1       7.103   1.917   0.827  0.00  0.00    -0.027 A 
ATOM     22  C   UNL     1       6.863   2.345  -0.465  0.00  0.00    +0.008 A 
ATOM     23  C   UNL     1       6.813   3.697  -0.748  0.00  0.00    +0.038 A 
ATOM     24  C   UNL     1       7.005   4.623   0.264  0.00  0.00    +0.123 A 
ATOM     25  C   UNL     1       7.246   4.192   1.558  0.00  0.00    +0.038 A 
ATOM     26  C   UNL     1       7.290   2.840   1.839  0.00  0.00    +0.008 A 
ATOM     27  F   UNL     1       6.957   5.944  -0.011  0.00  0.00    -0.205 F 
ENDBRANCH   3  21
TORSDOF 2
