REMARK  Name = ZINC40490291
REMARK  5 active torsions:
REMARK  status: ('A' for Active; 'I' for Inactive)
REMARK    1  A    between atoms: C_4  and  C_7
REMARK    2  A    between atoms: C_7  and  C_9
REMARK    3  A    between atoms: C_7  and  N_12
REMARK    4  A    between atoms: N_12  and  C_13
REMARK    5  A    between atoms: C_16  and  N_19
REMARK                            x       y       z     vdW  Elec       q    Type
REMARK                         _______ _______ _______ _____ _____    ______ ____
ROOT
ATOM      1  N   UNL     1       3.630  -1.873   0.845  0.00  0.00    -0.329 N 
ATOM      2  H   UNL     1       2.769  -2.277   1.038  0.00  0.00    +0.147 HD
ENDROOT
BRANCH   1   3
ATOM      3  C   UNL     1       4.795  -2.405   1.412  0.00  0.00    +0.028 A 
ATOM      4  C   UNL     1       6.026  -1.823   1.141  0.00  0.00    +0.025 A 
ATOM      5  C   UNL     1       7.175  -2.348   1.700  0.00  0.00    +0.026 A 
ATOM      6  C   UNL     1       7.099  -3.456   2.532  0.00  0.00    +0.051 A 
ATOM      7  C   UNL     1       5.868  -4.038   2.803  0.00  0.00    +0.026 A 
ATOM      8  C   UNL     1       4.718  -3.510   2.249  0.00  0.00    +0.025 A 
BRANCH   6   9
ATOM      9  N   UNL     1       8.264  -3.988   3.098  0.00  0.00    -0.207 N 
ATOM     10  C   UNL     1       9.638  -3.870   2.578  0.00  0.00    +0.133 C 
ATOM     11  C   UNL     1      10.664  -3.910   3.725  0.00  0.00    +0.045 C 
ATOM     12  C   UNL     1      10.206  -5.090   4.635  0.00  0.00    +0.190 C 
ATOM     13  S   UNL     1       8.383  -4.884   4.510  0.00  0.00    +0.046 S 
ATOM     14  O   UNL     1       7.899  -4.034   5.540  0.00  0.00    -0.155 OA
ATOM     15  O   UNL     1       7.757  -6.127   4.224  0.00  0.00    -0.155 OA
ENDBRANCH   6   9
ENDBRANCH   1   3
BRANCH   1  16
ATOM     16  C   UNL     1       3.711  -0.707  -0.038  0.00  0.00    +0.187 C 
BRANCH  16  20
ATOM     17  C   UNL     1      -0.017   1.378   0.010  0.00  0.00    +0.000 A 
ATOM     18  C   UNL     1       1.171   2.086   0.002  0.00  0.00    +0.000 A 
ATOM     19  C   UNL     1       2.377   1.411  -0.013  0.00  0.00    +0.006 A 
ATOM     20  C   UNL     1       2.396   0.029  -0.020  0.00  0.00    -0.018 A 
ATOM     21  C   UNL     1       1.208  -0.679  -0.012  0.00  0.00    +0.006 A 
ATOM     22  C   UNL     1       0.002  -0.004   0.002  0.00  0.00    +0.000 A 
ENDBRANCH  16  20
BRANCH  16  23
ATOM     23  C   UNL     1       4.014  -1.161  -1.442  0.00  0.00    +0.235 C 
ATOM     24  O   UNL     1       4.150  -2.342  -1.682  0.00  0.00    -0.274 OA
ATOM     25  N   UNL     1       4.136  -0.254  -2.432  0.00  0.00    -0.328 N 
ATOM     26  H   UNL     1       4.027   0.691  -2.240  0.00  0.00    +0.145 HD
ATOM     27  H   UNL     1       4.331  -0.546  -3.336  0.00  0.00    +0.145 HD
ENDBRANCH  16  23
ENDBRANCH   1  16
TORSDOF 5
