REMARK  Name = ZINC07989099
REMARK  4 active torsions:
REMARK  status: ('A' for Active; 'I' for Inactive)
REMARK    1  A    between atoms: C_1  and  C_2
REMARK    2  A    between atoms: C_9  and  C_26
REMARK    3  A    between atoms: C_10  and  N_11
REMARK    4  A    between atoms: C_12  and  C_14
REMARK                            x       y       z     vdW  Elec       q    Type
REMARK                         _______ _______ _______ _____ _____    ______ ____
ROOT
ATOM      1  C   UNL     1       1.300  -3.688   2.059  0.00  0.00    +0.044 C 
ATOM      2  C   UNL     1       0.890  -2.337   1.533  0.00  0.00    -0.046 A 
ATOM      3  C   UNL     1      -0.406  -1.849   1.774  0.00  0.00    +0.021 A 
ATOM      4  C   UNL     1      -0.776  -0.640   1.306  0.00  0.00    +0.095 A 
ATOM      5  N   UNL     1       0.100   0.128   0.589  0.00  0.00    -0.287 N 
ATOM      6  C   UNL     1       1.374  -0.323   0.336  0.00  0.00    +0.140 A 
ATOM      7  C   UNL     1       1.773  -1.586   0.822  0.00  0.00    +0.050 A 
ATOM      8  N   UNL     1       2.016   0.597  -0.368  0.00  0.00    -0.225 NA
ATOM      9  C   UNL     1       1.197   1.641  -0.585  0.00  0.00    +0.118 A 
ATOM     10  C   UNL     1      -0.017   1.363   0.012  0.00  0.00    +0.138 A 
ENDROOT
BRANCH   9  11
ATOM     11  C   UNL     1       1.536   2.870  -1.331  0.00  0.00    +0.041 A 
ATOM     12  C   UNL     1       2.729   3.541  -1.392  0.00  0.00    +0.018 A 
ATOM     13  C   UNL     1       2.809   4.679  -2.167  0.00  0.00    +0.008 A 
ATOM     14  C   UNL     1       1.707   5.103  -2.836  0.00  0.00    +0.046 A 
ATOM     15  S   UNL     1       0.497   3.872  -2.383  0.00  0.00    -0.095 S 
ENDBRANCH   9  11
BRANCH  10  16
ATOM     16  N   UNL     1      -1.149   2.182   0.020  0.00  0.00    -0.267 N 
ATOM     17  C   UNL     1      -2.258   1.805  -0.646  0.00  0.00    +0.259 C 
ATOM     18  O   UNL     1      -2.305   0.715  -1.179  0.00  0.00    -0.271 OA
ATOM     19  H   UNL     1      -1.136   3.022   0.504  0.00  0.00    +0.156 HD
BRANCH  17  20
ATOM     20  C   UNL     1      -3.440   2.736  -0.730  0.00  0.00    +0.266 C 
ATOM     21  C   UNL     1      -3.053   3.980  -1.530  0.00  0.00    +0.090 C 
ATOM     22  C   UNL     1      -4.276   4.804  -1.839  0.00  0.00    -0.029 A 
ATOM     23  C   UNL     1      -4.143   6.142  -2.153  0.00  0.00    +0.004 A 
ATOM     24  C   UNL     1      -5.261   6.902  -2.445  0.00  0.00    +0.000 A 
ATOM     25  C   UNL     1      -6.522   6.330  -2.426  0.00  0.00    +0.001 A 
ATOM     26  C   UNL     1      -6.670   4.994  -2.113  0.00  0.00    +0.015 A 
ATOM     27  C   UNL     1      -5.545   4.226  -1.816  0.00  0.00    +0.062 A 
ATOM     28  C   UNL     1      -5.686   2.792  -1.474  0.00  0.00    +0.340 C 
ATOM     29  O   UNL     1      -6.775   2.293  -1.272  0.00  0.00    -0.245 OA
ATOM     30  O   UNL     1      -4.546   2.060  -1.395  0.00  0.00    -0.448 OA
ENDBRANCH  17  20
ENDBRANCH  10  16
TORSDOF 3
