REMARK  Name = ZINC06798828
REMARK  7 active torsions:
REMARK  status: ('A' for Active; 'I' for Inactive)
REMARK    1  A    between atoms: C_1  and  C_2
REMARK    2  A    between atoms: C_10  and  C_20
REMARK    3  A    between atoms: C_11  and  S_12
REMARK    4  A    between atoms: S_12  and  C_13
REMARK    5  A    between atoms: N_22  and  C_23
REMARK    6  A    between atoms: C_28  and  C_33
REMARK    7  A    between atoms: C_30  and  C_32
REMARK                            x       y       z     vdW  Elec       q    Type
REMARK                         _______ _______ _______ _____ _____    ______ ____
ROOT
ATOM      1  C   UNL     1       7.705   3.727   3.880  0.00  0.00    +0.044 C 
ATOM      2  C   UNL     1       6.971   2.844   2.903  0.00  0.00    -0.048 A 
ATOM      3  C   UNL     1       6.151   1.829   3.377  0.00  0.00    +0.004 A 
ATOM      4  C   UNL     1       5.478   1.019   2.507  0.00  0.00    +0.011 A 
ATOM      5  C   UNL     1       5.616   1.212   1.129  0.00  0.00    +0.014 A 
ATOM      6  C   UNL     1       6.446   2.239   0.644  0.00  0.00    +0.048 A 
ATOM      7  C   UNL     1       7.122   3.053   1.551  0.00  0.00    +0.029 A 
ATOM      8  N   UNL     1       6.402   2.208  -0.730  0.00  0.00    -0.350 N 
ATOM      9  H   UNL     1       6.885   2.811  -1.317  0.00  0.00    +0.166 HD
ATOM     10  C   UNL     1       5.566   1.182  -1.153  0.00  0.00    +0.117 A 
ATOM     11  C   UNL     1       5.051   0.540  -0.045  0.00  0.00    +0.050 A 
ENDROOT
BRANCH  10  12
ATOM     12  C   UNL     1       5.285   0.851  -2.502  0.00  0.00    +0.262 C 
ATOM     13  O   UNL     1       4.532  -0.071  -2.759  0.00  0.00    -0.269 OA
ATOM     14  N   UNL     1       5.852   1.556  -3.501  0.00  0.00    -0.307 N 
ATOM     15  H   UNL     1       6.452   2.291  -3.297  0.00  0.00    +0.149 HD
BRANCH  14  16
ATOM     16  C   UNL     1       5.562   1.214  -4.896  0.00  0.00    +0.076 C 
ATOM     17  C   UNL     1       4.271   1.910  -5.334  0.00  0.00    +0.022 C 
ATOM     18  C   UNL     1       3.968   1.552  -6.790  0.00  0.00    +0.002 C 
ATOM     19  C   UNL     1       5.124   2.014  -7.680  0.00  0.00    +0.003 C 
ATOM     20  C   UNL     1       6.415   1.319  -7.242  0.00  0.00    -0.009 C 
ATOM     21  C   UNL     1       6.718   1.676  -5.786  0.00  0.00    +0.009 C 
ATOM     22  C   UNL     1       8.008   0.981  -5.348  0.00  0.00    +0.009 C 
ATOM     23  C   UNL     1       7.570   1.781  -8.132  0.00  0.00    +0.008 C 
ENDBRANCH  14  16
ENDBRANCH  10  12
BRANCH  11  24
ATOM     24  S   UNL     1       3.939  -0.827  -0.042  0.00  0.00    -0.087 S 
BRANCH  24  25
ATOM     25  C   UNL     1       2.400   0.032  -0.021  0.00  0.00    +0.013 A 
ATOM     26  C   UNL     1       1.206  -0.679  -0.014  0.00  0.00    +0.016 A 
ATOM     27  C   UNL     1       0.002  -0.004   0.002  0.00  0.00    +0.021 A 
ATOM     28  C   UNL     1      -0.017   1.380   0.010  0.00  0.00    +0.041 A 
ATOM     29  C   UNL     1       1.171   2.091   0.002  0.00  0.00    +0.021 A 
ATOM     30  C   UNL     1       2.378   1.421  -0.013  0.00  0.00    +0.016 A 
ATOM     31 CL   UNL     1      -1.533   2.225   0.021  0.00  0.00    -0.084 Cl
ENDBRANCH  24  25
ENDBRANCH  11  24
TORSDOF 4
