REMARK  Name = ZINC14240717
REMARK  4 active torsions:
REMARK  status: ('A' for Active; 'I' for Inactive)
REMARK    1  A    between atoms: C_4  and  C_7
REMARK    2  A    between atoms: C_7  and  N_62
REMARK    3  A    between atoms: C_16  and  C_18
REMARK    4  A    between atoms: C_29  and  C_31
REMARK                            x       y       z     vdW  Elec       q    Type
REMARK                         _______ _______ _______ _____ _____    ______ ____
ROOT
ATOM      1  C   UNL     1      -3.314   8.144  -1.219  0.00  0.00    -0.072 C 
ATOM      2  C   UNL     1      -3.607   8.741  -2.598  0.00  0.00    +0.038 C 
ATOM      3  C   UNL     1      -2.422   8.437  -3.509  0.00  0.00    +0.050 A 
ATOM      4  C   UNL     1      -1.232   8.079  -2.956  0.00  0.00    -0.002 A 
ATOM      5  S   UNL     1      -0.203   7.836  -4.377  0.00  0.00    -0.059 S 
ATOM      6  C   UNL     1      -1.402   8.220  -5.576  0.00  0.00    +0.165 A 
ATOM      7  N   UNL     1      -2.457   8.494  -4.835  0.00  0.00    -0.229 NA
ATOM      8  N   UNL     1      -1.279   8.234  -6.960  0.00  0.00    -0.263 N 
ATOM      9  C   UNL     1      -2.338   8.562  -7.727  0.00  0.00    +0.240 C 
ATOM     10  O   UNL     1      -3.397   8.845  -7.210  0.00  0.00    -0.273 OA
ATOM     11  C   UNL     1      -0.917   7.942  -1.506  0.00  0.00    -0.033 C 
ATOM     12  H   UNL     1      -0.432   8.007  -7.375  0.00  0.00    +0.157 HD
ATOM     13  N   UNL     1      -1.998   8.616  -0.744  0.00  0.00    +0.386 N 
ATOM     14  H   UNL     1      -1.931   9.629  -0.894  0.00  0.00    -0.081 HD
ENDROOT
BRANCH   9  15
ATOM     15  C   UNL     1      -2.205   8.578  -9.229  0.00  0.00    +0.167 C 
ATOM     16  C   UNL     1      -1.525   7.293  -9.700  0.00  0.00    +0.067 C 
ATOM     17  C   UNL     1      -1.096   7.411 -11.139  0.00  0.00    -0.040 A 
ATOM     18  C   UNL     1      -0.852   6.235 -11.837  0.00  0.00    +0.004 A 
ATOM     19  C   UNL     1      -0.445   6.272 -13.155  0.00  0.00    +0.000 A 
ATOM     20  C   UNL     1      -0.278   7.489 -13.789  0.00  0.00    +0.000 A 
ATOM     21  C   UNL     1      -0.523   8.659 -13.099  0.00  0.00    +0.005 A 
ATOM     22  C   UNL     1      -0.936   8.622 -11.774  0.00  0.00    -0.027 A 
ATOM     23  C   UNL     1      -1.196   9.937 -11.082  0.00  0.00    +0.144 C 
ATOM     24  N   UNL     1      -1.363   9.713  -9.643  0.00  0.00    -0.279 N 
ATOM     25  C   UNL     1      -0.770  10.513  -8.735  0.00  0.00    +0.283 C 
ATOM     26  O   UNL     1      -0.471  10.075  -7.640  0.00  0.00    -0.267 OA
BRANCH  25  27
ATOM     27  C   UNL     1      -0.485  11.913  -9.067  0.00  0.00    +0.189 A 
ATOM     28  C   UNL     1       0.229  12.790  -8.301  0.00  0.00    +0.054 A 
ATOM     29  C   UNL     1       0.254  14.008  -8.999  0.00  0.00    +0.042 A 
ATOM     30  C   UNL     1      -0.437  13.823 -10.146  0.00  0.00    +0.196 A 
ATOM     31  O   UNL     1      -0.876  12.558 -10.186  0.00  0.00    -0.458 OA
ENDBRANCH  25  27
ENDBRANCH   9  15
BRANCH  13  32
ATOM     32  C   UNL     1      -1.850   8.334   0.700  0.00  0.00    -0.043 C 
BRANCH  32  36
ATOM     33  C   UNL     1       2.208   9.008   1.852  0.00  0.00    +0.000 A 
ATOM     34  C   UNL     1       1.809   7.753   1.431  0.00  0.00    +0.000 A 
ATOM     35  C   UNL     1       0.494   7.534   1.063  0.00  0.00    +0.002 A 
ATOM     36  C   UNL     1      -0.418   8.572   1.107  0.00  0.00    -0.064 A 
ATOM     37  C   UNL     1      -0.017   9.827   1.524  0.00  0.00    +0.002 A 
ATOM     38  C   UNL     1       1.296  10.045   1.896  0.00  0.00    +0.000 A 
ENDBRANCH  32  36
ENDBRANCH  13  32
TORSDOF 4
