REMARK  Name = ZINC20237378
REMARK  5 active torsions:
REMARK  status: ('A' for Active; 'I' for Inactive)
REMARK    1  A    between atoms: C_1  and  C_2
REMARK    2  A    between atoms: C_4  and  N_11
REMARK    3  A    between atoms: C_5  and  O_9
REMARK    4  A    between atoms: O_9  and  C_10
REMARK    5  A    between atoms: C_12  and  C_14
REMARK                            x       y       z     vdW  Elec       q    Type
REMARK                         _______ _______ _______ _____ _____    ______ ____
ROOT
ATOM      1  C   UNL     1      -0.538   7.882  -0.295  0.00  0.00    +0.099 A 
ATOM      2  C   UNL     1      -0.628   7.156  -1.470  0.00  0.00    +0.030 A 
ATOM      3  C   UNL     1      -0.676   5.742  -1.386  0.00  0.00    +0.019 A 
ATOM      4  C   UNL     1      -0.780   4.970  -2.549  0.00  0.00    +0.017 A 
ATOM      5  C   UNL     1      -0.797   3.602  -2.478  0.00  0.00    -0.025 A 
ATOM      6  C   UNL     1      -0.690   2.961  -1.239  0.00  0.00    +0.040 A 
ATOM      7  C   UNL     1      -0.642   3.712  -0.072  0.00  0.00    +0.017 A 
ATOM      8  C   UNL     1      -0.626   5.104  -0.137  0.00  0.00    +0.142 A 
ATOM      9  O   UNL     1      -0.561   5.811   1.013  0.00  0.00    -0.437 OA
ATOM     10  C   UNL     1      -0.501   7.155   0.984  0.00  0.00    +0.226 A 
ATOM     11  N   UNL     1      -0.409   7.822   2.103  0.00  0.00    -0.266 NA
ATOM     12  C   UNL     1      -0.628   3.101   1.302  0.00  0.00    +0.042 C 
ATOM     13  C   UNL     1      -0.664   1.581   1.260  0.00  0.00    +0.024 C 
ATOM     14  C   UNL     1       0.060   1.090   0.007  0.00  0.00    +0.105 C 
ATOM     15  N   UNL     1      -0.662   1.574  -1.176  0.00  0.00    -0.329 N 
ATOM     16  C   UNL     1      -0.095   0.978  -2.392  0.00  0.00    +0.105 C 
ATOM     17  C   UNL     1      -0.983   1.351  -3.578  0.00  0.00    +0.024 C 
ATOM     18  C   UNL     1      -0.955   2.859  -3.775  0.00  0.00    +0.038 C 
ATOM     19  H   UNL     1      -0.384   7.348   2.949  0.00  0.00    +0.190 HD
ENDROOT
BRANCH   1  21
ATOM     20  N   UNL     1      -0.518  10.003  -1.503  0.00  0.00    -0.278 N 
ATOM     21  C   UNL     1      -0.482   9.351  -0.325  0.00  0.00    +0.253 C 
ATOM     22  O   UNL     1      -0.404   9.977   0.716  0.00  0.00    -0.270 OA
ATOM     23  H   UNL     1      -0.515   9.436  -2.446  0.00  0.00    +0.155 HD
BRANCH  20  27
ATOM     24  C   UNL     1       0.807  14.312   0.461  0.00  0.00    +0.045 C 
ATOM     25  C   UNL     1       0.073  13.517  -0.589  0.00  0.00    -0.030 A 
ATOM     26  C   UNL     1       0.115  12.136  -0.563  0.00  0.00    +0.031 A 
ATOM     27  C   UNL     1      -0.559  11.403  -1.528  0.00  0.00    +0.076 A 
ATOM     28  C   UNL     1      -1.274  12.063  -2.526  0.00  0.00    +0.143 A 
ATOM     29  C   UNL     1      -1.316  13.447  -2.543  0.00  0.00    +0.067 A 
ATOM     30  C   UNL     1      -0.641  14.172  -1.576  0.00  0.00    +0.047 A 
ATOM     31 CL   UNL     1      -0.690  15.907  -1.603  0.00  0.00    -0.083 Cl
BRANCH  28  32
ATOM     32  O   UNL     1      -1.933  11.350  -3.478  0.00  0.00    -0.493 OA
ATOM     33  C   UNL     1      -2.644  12.093  -4.469  0.00  0.00    +0.277 C 
ENDBRANCH  28  32
ENDBRANCH  20  27
ENDBRANCH   1  21
TORSDOF 3
