REMARK  Name = ZINC33126349
REMARK  14 active torsions:
REMARK  status: ('A' for Active; 'I' for Inactive)
REMARK    1  A    between atoms: C_1  and  C_2
REMARK    2  A    between atoms: C_5  and  C_8
REMARK    3  A    between atoms: C_12  and  C_19
REMARK    4  A    between atoms: C_19  and  N_20
REMARK    5  A    between atoms: N_20  and  C_21
REMARK    6  A    between atoms: N_20  and  C_32
REMARK    7  A    between atoms: C_21  and  C_22
REMARK    8  A    between atoms: C_25  and  O_30
REMARK    9  A    between atoms: C_26  and  O_28
REMARK   10  A    between atoms: O_28  and  C_29
REMARK   11  A    between atoms: O_30  and  C_31
REMARK   12  A    between atoms: C_32  and  C_33
REMARK   13  A    between atoms: C_33  and  C_34
REMARK   14  A    between atoms: C_33  and  C_35
REMARK                            x       y       z     vdW  Elec       q    Type
REMARK                         _______ _______ _______ _____ _____    ______ ____
ROOT
ATOM      1  C   UNL     1      -1.968   1.906  -5.251  0.00  0.00    +0.066 A 
ATOM      2  C   UNL     1      -2.307   1.306  -4.077  0.00  0.00    +0.075 A 
ATOM      3  C   UNL     1      -1.222   1.440  -3.185  0.00  0.00    +0.158 A 
ATOM      4  N   UNL     1      -1.049   1.035  -1.933  0.00  0.00    -0.234 NA
ATOM      5  C   UNL     1       0.079   1.279  -1.277  0.00  0.00    +0.032 A 
ATOM      6  C   UNL     1       1.094   1.965  -1.882  0.00  0.00    +0.093 A 
ATOM      7  C   UNL     1       0.929   2.398  -3.209  0.00  0.00    +0.273 A 
ATOM      8  O   UNL     1       1.818   3.009  -3.779  0.00  0.00    -0.266 OA
ATOM      9  N   UNL     1      -0.233   2.128  -3.840  0.00  0.00    -0.201 N 
ATOM     10  N   UNL     1      -0.696   2.420  -5.128  0.00  0.00    -0.288 N 
ATOM     11  H   UNL     1      -0.233   2.950  -5.974  0.00  0.00    +0.187 HD
ENDROOT
BRANCH   1  16
ATOM     12  C   UNL     1      -5.291   2.242  -9.937  0.00  0.00    +0.044 C 
ATOM     13  C   UNL     1      -4.420   2.153  -8.710  0.00  0.00    -0.050 A 
ATOM     14  C   UNL     1      -4.890   1.512  -7.577  0.00  0.00    +0.004 A 
ATOM     15  C   UNL     1      -4.099   1.428  -6.450  0.00  0.00    +0.010 A 
ATOM     16  C   UNL     1      -2.821   1.992  -6.454  0.00  0.00    -0.000 A 
ATOM     17  C   UNL     1      -2.356   2.643  -7.599  0.00  0.00    +0.010 A 
ATOM     18  C   UNL     1      -3.156   2.715  -8.721  0.00  0.00    +0.004 A 
ENDBRANCH   1  16
BRANCH   5  19
ATOM     19  C   UNL     1       0.237   0.802   0.144  0.00  0.00    -0.022 C 
BRANCH  19  20
ATOM     20  N   UNL     1      -0.126   1.886   1.067  0.00  0.00    +0.386 N 
ATOM     21  H   UNL     1       0.066   2.842   0.558  0.00  0.00    -0.081 HD
BRANCH  20  22
ATOM     22  C   UNL     1       0.702   1.845   2.279  0.00  0.00    -0.042 C 
BRANCH  22  23
ATOM     23  C   UNL     1       0.634   3.177   2.979  0.00  0.00    -0.060 A 
ATOM     24  C   UNL     1       1.449   4.215   2.568  0.00  0.00    +0.005 A 
ATOM     25  C   UNL     1       1.387   5.441   3.203  0.00  0.00    +0.049 A 
ATOM     26  C   UNL     1       0.513   5.629   4.263  0.00  0.00    +0.161 A 
ATOM     27  C   UNL     1      -0.303   4.582   4.681  0.00  0.00    +0.162 A 
ATOM     28  C   UNL     1      -0.239   3.357   4.036  0.00  0.00    +0.051 A 
BRANCH  27  29
ATOM     29  O   UNL     1      -1.162   4.761   5.720  0.00  0.00    -0.491 OA
ATOM     30  C   UNL     1      -1.970   3.643   6.094  0.00  0.00    +0.277 C 
ENDBRANCH  27  29
BRANCH  26  31
ATOM     31  O   UNL     1       0.454   6.833   4.892  0.00  0.00    -0.491 OA
ATOM     32  C   UNL     1       1.321   7.861   4.409  0.00  0.00    +0.277 C 
ENDBRANCH  26  31
ENDBRANCH  22  23
ENDBRANCH  20  22
BRANCH  20  33
ATOM     33  C   UNL     1      -1.555   1.832   1.404  0.00  0.00    -0.075 C 
BRANCH  33  34
ATOM     34  C   UNL     1      -2.378   2.348   0.221  0.00  0.00    -0.034 C 
ATOM     35  C   UNL     1      -3.867   2.258   0.558  0.00  0.00    +0.005 C 
ATOM     36  C   UNL     1      -2.006   3.805  -0.061  0.00  0.00    +0.005 C 
ENDBRANCH  33  34
ENDBRANCH  20  33
ENDBRANCH  19  20
ENDBRANCH   5  19
TORSDOF 9
