REMARK  Name = ZINC12558548
REMARK  12 active torsions:
REMARK  status: ('A' for Active; 'I' for Inactive)
REMARK    1  A    between atoms: C_1  and  C_2
REMARK    2  A    between atoms: C_2  and  C_4
REMARK    3  A    between atoms: C_2  and  N_14
REMARK    4  A    between atoms: C_15  and  C_17
REMARK    5  A    between atoms: C_17  and  S_18
REMARK    6  A    between atoms: S_18  and  C_19
REMARK    7  A    between atoms: C_22  and  C_31
REMARK    8  A    between atoms: N_23  and  C_24
REMARK    9  A    between atoms: C_31  and  C_33
REMARK   10  A    between atoms: C_31  and  N_62
REMARK   11  A    between atoms: C_34  and  N_62
REMARK   12  A    between atoms: C_35  and  N_62
REMARK                            x       y       z     vdW  Elec       q    Type
REMARK                         _______ _______ _______ _____ _____    ______ ____
ROOT
ATOM      1  S   UNL     1      -0.006  -2.839  -3.348  0.00  0.00    -0.076 S 
ENDROOT
BRANCH   1   2
ATOM      2  C   UNL     1      -0.230  -1.092  -3.312  0.00  0.00    +0.197 A 
ATOM      3  N   UNL     1      -0.616  -0.375  -2.282  0.00  0.00    -0.122 NA
ATOM      4  N   UNL     1      -0.672   0.867  -2.609  0.00  0.00    -0.135 NA
ATOM      5  C   UNL     1      -0.329   1.018  -3.857  0.00  0.00    +0.125 A 
ATOM      6  N   UNL     1      -0.034  -0.225  -4.351  0.00  0.00    -0.275 N 
BRANCH   6   7
ATOM      7  C   UNL     1       0.383  -0.543  -5.653  0.00  0.00    +0.050 A 
ATOM      8  C   UNL     1       1.602  -0.077  -6.126  0.00  0.00    +0.029 A 
ATOM      9  C   UNL     1       2.013  -0.396  -7.405  0.00  0.00    +0.040 A 
ATOM     10  C   UNL     1       1.204  -1.169  -8.221  0.00  0.00    +0.124 A 
ATOM     11  C   UNL     1      -0.015  -1.630  -7.753  0.00  0.00    +0.040 A 
ATOM     12  C   UNL     1      -0.427  -1.318  -6.472  0.00  0.00    +0.029 A 
ATOM     13  F   UNL     1       1.605  -1.475  -9.474  0.00  0.00    -0.205 F 
ENDBRANCH   6   7
BRANCH   5  14
ATOM     14  C   UNL     1      -0.268   2.318  -4.615  0.00  0.00    -0.003 C 
ATOM     15  C   UNL     1      -1.687   2.780  -4.951  0.00  0.00    -0.005 C 
BRANCH  14  18
ATOM     16  C   UNL     1       1.729   2.885  -3.368  0.00  0.00    -0.096 C 
ATOM     17  C   UNL     1       0.474   4.620  -4.498  0.00  0.00    -0.096 C 
ATOM     18  N   UNL     1       0.380   3.340  -3.766  0.00  0.00    +0.382 N 
ATOM     19  H   UNL     1      -0.187   3.479  -2.921  0.00  0.00    -0.082 HD
ENDBRANCH  14  18
ENDBRANCH   5  14
ENDBRANCH   1   2
BRANCH   1  20
ATOM     20  C   UNL     1      -0.451  -3.248  -1.642  0.00  0.00    +0.173 C 
BRANCH  20  22
ATOM     21  N   UNL     1      -0.613  -5.274  -0.231  0.00  0.00    -0.308 N 
ATOM     22  C   UNL     1      -0.329  -4.736  -1.434  0.00  0.00    +0.224 C 
ATOM     23  O   UNL     1       0.024  -5.449  -2.349  0.00  0.00    -0.275 OA
ATOM     24  H   UNL     1      -0.895  -4.703   0.501  0.00  0.00    +0.149 HD
BRANCH  21  26
ATOM     25  C   UNL     1      -0.291  -7.012   1.460  0.00  0.00    +0.033 C 
ATOM     26  C   UNL     1      -0.495  -6.720  -0.029  0.00  0.00    +0.101 C 
BRANCH  26  27
ATOM     27  C   UNL     1      -1.753  -7.398  -0.506  0.00  0.00    -0.020 A 
ATOM     28  C   UNL     1      -2.925  -6.709  -0.556  0.00  0.00    +0.006 A 
ATOM     29  C   UNL     1      -4.098  -7.318  -0.999  0.00  0.00    +0.001 A 
ATOM     30  C   UNL     1      -4.106  -8.623  -1.387  0.00  0.00    +0.008 A 
ATOM     31  C   UNL     1      -2.916  -9.368  -1.344  0.00  0.00    -0.018 A 
ATOM     32  C   UNL     1      -1.722  -8.747  -0.897  0.00  0.00    -0.013 A 
ATOM     33  C   UNL     1      -0.532  -9.493  -0.856  0.00  0.00    +0.009 A 
ATOM     34  C   UNL     1      -0.541 -10.797  -1.244  0.00  0.00    +0.001 A 
ATOM     35  C   UNL     1      -1.714 -11.408  -1.683  0.00  0.00    +0.001 A 
ATOM     36  C   UNL     1      -2.886 -10.717  -1.736  0.00  0.00    +0.008 A 
ENDBRANCH  26  27
ENDBRANCH  21  26
ENDBRANCH  20  22
ENDBRANCH   1  20
TORSDOF 8
