REMARK  Name = ZINC46680803
REMARK  9 active torsions:
REMARK  status: ('A' for Active; 'I' for Inactive)
REMARK    1  A    between atoms: C_1  and  C_2
REMARK    2  A    between atoms: N_5  and  C_8
REMARK    3  A    between atoms: C_11  and  N_27
REMARK    4  A    between atoms: C_13  and  C_14
REMARK    5  A    between atoms: N_16  and  C_17
REMARK    6  A    between atoms: C_22  and  C_23
REMARK    7  A    between atoms: C_23  and  N_24
REMARK    8  A    between atoms: N_24  and  C_25
REMARK    9  A    between atoms: N_24  and  C_26
REMARK                            x       y       z     vdW  Elec       q    Type
REMARK                         _______ _______ _______ _____ _____    ______ ____
ROOT
ATOM      1  C   UNL     1      -0.962  -2.939   1.702  0.00  0.00    +0.042 A 
ATOM      2  C   UNL     1      -0.846  -4.259   1.284  0.00  0.00    +0.026 A 
ATOM      3  C   UNL     1      -1.290  -5.282   2.095  0.00  0.00    +0.034 A 
ATOM      4  C   UNL     1      -1.853  -5.005   3.331  0.00  0.00    +0.127 A 
ATOM      5  C   UNL     1      -1.978  -3.702   3.762  0.00  0.00    +0.047 A 
ATOM      6  C   UNL     1      -1.528  -2.655   2.955  0.00  0.00    +0.060 A 
ENDROOT
BRANCH   1  11
ATOM      7  C   UNL     1       1.414  -0.690  -2.705  0.00  0.00    +0.007 C 
ATOM      8  C   UNL     1       0.693  -0.678  -1.355  0.00  0.00    -0.011 C 
ATOM      9  C   UNL     1       1.547  -1.405  -0.314  0.00  0.00    +0.022 C 
ATOM     10  C   UNL     1       0.838  -1.361   1.043  0.00  0.00    +0.105 C 
ATOM     11  N   UNL     1      -0.517  -1.906   0.887  0.00  0.00    -0.329 N 
ATOM     12  C   UNL     1      -1.391  -1.339  -0.149  0.00  0.00    +0.105 C 
ATOM     13  C   UNL     1      -0.658  -1.384  -1.493  0.00  0.00    +0.022 C 
ENDBRANCH   1  11
BRANCH   6  14
ATOM     14  C   UNL     1      -1.651  -1.259   3.413  0.00  0.00    +0.250 C 
ATOM     15  O   UNL     1      -1.348  -0.346   2.670  0.00  0.00    -0.270 OA
ATOM     16  N   UNL     1      -2.100  -0.995   4.656  0.00  0.00    -0.281 N 
ATOM     17  H   UNL     1      -2.270  -1.723   5.275  0.00  0.00    +0.155 HD
BRANCH  16  18
ATOM     18  C   UNL     1      -2.322   0.327   5.054  0.00  0.00    +0.035 A 
ATOM     19  C   UNL     1      -2.553   1.311   4.101  0.00  0.00    +0.023 A 
ATOM     20  C   UNL     1      -2.772   2.616   4.497  0.00  0.00    +0.002 A 
ATOM     21  C   UNL     1      -2.762   2.943   5.840  0.00  0.00    +0.000 A 
ATOM     22  C   UNL     1      -2.533   1.966   6.792  0.00  0.00    +0.003 A 
ATOM     23  C   UNL     1      -2.318   0.658   6.402  0.00  0.00    -0.043 A 
BRANCH  23  24
ATOM     24  C   UNL     1      -2.074  -0.407   7.440  0.00  0.00    -0.042 C 
BRANCH  24  25
ATOM     25  N   UNL     1      -0.628  -0.602   7.612  0.00  0.00    +0.379 N 
ATOM     26  C   UNL     1      -0.388  -1.535   8.720  0.00  0.00    -0.096 C 
ATOM     27  C   UNL     1      -0.058  -1.152   6.375  0.00  0.00    -0.096 C 
ATOM     28  H   UNL     1      -0.192   0.285   7.818  0.00  0.00    -0.082 HD
ENDBRANCH  24  25
ENDBRANCH  23  24
ENDBRANCH  16  18
ENDBRANCH   6  14
BRANCH   4  29
ATOM     29  N   UNL     1      -2.325  -6.113   4.191  0.00  0.00    +0.056 N 
ATOM     30  O   UNL     1      -2.218  -7.257   3.815  0.00  0.00    -0.126 OA
ATOM     31  O   UNL     1      -2.818  -5.875   5.269  0.00  0.00    -0.126 OA
ENDBRANCH   4  29
TORSDOF 6
