REMARK  Name = ZINC12052741
REMARK  11 active torsions:
REMARK  status: ('A' for Active; 'I' for Inactive)
REMARK    1  A    between atoms: C_1  and  C_2
REMARK    2  A    between atoms: C_3  and  C_9
REMARK    3  A    between atoms: C_4  and  C_8
REMARK    4  A    between atoms: N_5  and  C_7
REMARK    5  A    between atoms: C_9  and  C_11
REMARK    6  A    between atoms: C_9  and  N_70
REMARK    7  A    between atoms: C_12  and  N_70
REMARK    8  A    between atoms: N_15  and  C_18
REMARK    9  A    between atoms: C_21  and  C_24
REMARK   10  A    between atoms: N_26  and  C_27
REMARK   11  A    between atoms: C_27  and  C_28
REMARK                            x       y       z     vdW  Elec       q    Type
REMARK                         _______ _______ _______ _____ _____    ______ ____
ROOT
ATOM      1  C   UNL     1       1.150   6.796   5.657  0.00  0.00    +0.030 A 
ATOM      2  C   UNL     1       1.126   7.707   4.605  0.00  0.00    +0.024 A 
ATOM      3  C   UNL     1       1.122   7.258   3.304  0.00  0.00    +0.015 A 
ATOM      4  C   UNL     1       1.140   5.886   3.040  0.00  0.00    +0.037 A 
ATOM      5  C   UNL     1       1.158   4.973   4.099  0.00  0.00    +0.015 A 
ATOM      6  C   UNL     1       1.169   5.428   5.398  0.00  0.00    +0.024 A 
ENDROOT
BRANCH   1  10
ATOM      7  C   UNL     1       2.189   7.632   9.640  0.00  0.00    -0.068 C 
ATOM      8  C   UNL     1       1.040   6.664   9.346  0.00  0.00    +0.003 C 
ATOM      9  C   UNL     1       1.181   6.131   7.918  0.00  0.00    +0.103 C 
ATOM     10  N   UNL     1       1.155   7.253   6.971  0.00  0.00    -0.330 N 
ATOM     11  C   UNL     1       2.277   8.171   7.204  0.00  0.00    +0.103 C 
ATOM     12  C   UNL     1       2.168   8.764   8.611  0.00  0.00    +0.003 C 
BRANCH   7  13
ATOM     13  N   UNL     1       2.017   8.191  10.995  0.00  0.00    +0.385 N 
ATOM     14  H   UNL     1       1.386   8.999  10.950  0.00  0.00    -0.085 HD
ATOM     15  H   UNL     1       1.612   7.474  11.608  0.00  0.00    -0.085 HD
BRANCH  13  16
ATOM     16  C   UNL     1       3.319   8.619  11.540  0.00  0.00    -0.040 C 
ATOM     17  C   UNL     1       4.019   7.424  12.190  0.00  0.00    -0.009 C 
BRANCH  16  20
ATOM     18  C   UNL     1       1.115   8.577  13.817  0.00  0.00    +0.068 C 
ATOM     19  C   UNL     1       2.120   9.674  13.579  0.00  0.00    +0.062 A 
ATOM     20  C   UNL     1       3.093   9.692  12.574  0.00  0.00    -0.018 A 
ATOM     21  C   UNL     1       3.791  10.846  12.691  0.00  0.00    +0.038 A 
ATOM     22  N   UNL     1       3.282  11.531  13.736  0.00  0.00    -0.271 N 
ATOM     23  N   UNL     1       2.236  10.773  14.280  0.00  0.00    -0.176 NA
ATOM     24  C   UNL     1       3.741  12.836  14.217  0.00  0.00    +0.172 C 
ATOM     25  C   UNL     1       4.931  11.286  11.810  0.00  0.00    +0.065 C 
ENDBRANCH  16  20
ENDBRANCH  13  16
ENDBRANCH   7  13
ENDBRANCH   1  10
BRANCH   4  26
ATOM     26  C   UNL     1       1.135   5.401   1.647  0.00  0.00    +0.244 C 
ATOM     27  O   UNL     1       1.114   6.196   0.727  0.00  0.00    -0.270 OA
ATOM     28  N   UNL     1       1.153   4.077   1.394  0.00  0.00    -0.307 N 
ATOM     29  H   UNL     1       1.169   3.443   2.128  0.00  0.00    +0.149 HD
BRANCH  28  30
ATOM     30  C   UNL     1       1.147   3.596   0.010  0.00  0.00    +0.140 C 
BRANCH  30  31
ATOM     31  C   UNL     1       1.171   2.089   0.002  0.00  0.00    -0.027 A 
ATOM     32  C   UNL     1       2.379   1.418  -0.011  0.00  0.00    +0.009 A 
ATOM     33  C   UNL     1       2.405   0.036  -0.020  0.00  0.00    +0.050 A 
ATOM     34  C   UNL     1       1.220  -0.680  -0.013  0.00  0.00    +0.166 A 
ATOM     35  C   UNL     1       0.002  -0.004   0.002  0.00  0.00    +0.167 A 
ATOM     36  C   UNL     1      -0.017   1.381   0.010  0.00  0.00    +0.054 A 
ATOM     37  O   UNL     1      -1.007  -0.923   0.006  0.00  0.00    -0.453 OA
ATOM     38  C   UNL     1      -0.404  -2.159  -0.418  0.00  0.00    +0.466 C 
ATOM     39  O   UNL     1       0.973  -2.023  -0.018  0.00  0.00    -0.453 OA
ENDBRANCH  30  31
ENDBRANCH  28  30
ENDBRANCH   4  26
TORSDOF 7
