REMARK  Name = ZINC09646144
REMARK  7 active torsions:
REMARK  status: ('A' for Active; 'I' for Inactive)
REMARK    1  A    between atoms: C_1  and  C_2
REMARK    2  A    between atoms: C_2  and  C_4
REMARK    3  A    between atoms: C_2  and  O_17
REMARK    4  A    between atoms: N_6  and  C_7
REMARK    5  A    between atoms: C_10  and  C_13
REMARK    6  A    between atoms: O_17  and  C_18
REMARK    7  A    between atoms: C_18  and  C_20
REMARK                            x       y       z     vdW  Elec       q    Type
REMARK                         _______ _______ _______ _____ _____    ______ ____
ROOT
ATOM      1  C   UNL     1       0.051  -0.003   0.007  0.00  0.00    +0.258 C 
ATOM      2  O   UNL     1       1.126  -0.556  -0.094  0.00  0.00    -0.271 OA
ATOM      3  N   UNL     1      -0.016   1.344   0.009  0.00  0.00    -0.282 N 
ATOM      4  H   UNL     1      -0.879   1.786   0.019  0.00  0.00    +0.155 HD
ENDROOT
BRANCH   3   5
ATOM      5  C   UNL     1       1.159   2.103  -0.007  0.00  0.00    +0.034 A 
ATOM      6  C   UNL     1       1.218   3.309   0.679  0.00  0.00    +0.024 A 
ATOM      7  C   UNL     1       2.382   4.053   0.665  0.00  0.00    +0.014 A 
ATOM      8  C   UNL     1       3.483   3.604  -0.041  0.00  0.00    +0.055 A 
ATOM      9  C   UNL     1       3.425   2.407  -0.730  0.00  0.00    +0.014 A 
ATOM     10  C   UNL     1       2.267   1.655  -0.715  0.00  0.00    +0.024 A 
BRANCH   8  11
ATOM     11  C   UNL     1       4.748   4.422  -0.060  0.00  0.00    +0.417 C 
ATOM     12  F   UNL     1       4.712   5.313  -1.138  0.00  0.00    -0.166 F 
ATOM     13  F   UNL     1       4.856   5.142   1.135  0.00  0.00    -0.166 F 
ATOM     14  F   UNL     1       5.851   3.572  -0.194  0.00  0.00    -0.166 F 
ENDBRANCH   8  11
ENDBRANCH   3   5
BRANCH   1  16
ATOM     15  C   UNL     1      -1.840  -0.581   1.504  0.00  0.00    +0.062 C 
ATOM     16  C   UNL     1      -1.209  -0.820   0.131  0.00  0.00    +0.259 C 
BRANCH  16  17
ATOM     17  O   UNL     1      -0.888  -2.229  -0.015  0.00  0.00    -0.448 OA
BRANCH  17  18
ATOM     18  C   UNL     1      -1.841  -3.022  -0.542  0.00  0.00    +0.360 C 
ATOM     19  O   UNL     1      -2.910  -2.549  -0.870  0.00  0.00    -0.243 OA
BRANCH  18  20
ATOM     20  C   UNL     1      -1.585  -4.468  -0.720  0.00  0.00    +0.167 A 
ATOM     21  C   UNL     1      -2.575  -5.284  -1.266  0.00  0.00    +0.073 A 
ATOM     22  C   UNL     1      -2.319  -6.638  -1.428  0.00  0.00    +0.025 A 
ATOM     23  C   UNL     1      -1.084  -7.129  -1.038  0.00  0.00    +0.041 A 
ATOM     24  C   UNL     1      -0.145  -6.259  -0.502  0.00  0.00    +0.130 A 
ATOM     25  N   UNL     1      -0.411  -4.978  -0.364  0.00  0.00    -0.227 NA
ATOM     26 CL   UNL     1       1.405  -6.869  -0.013  0.00  0.00    -0.062 Cl
ATOM     27 CL   UNL     1      -4.106  -4.614  -1.737  0.00  0.00    -0.081 Cl
ENDBRANCH  18  20
ENDBRANCH  17  18
ENDBRANCH  16  17
ENDBRANCH   1  16
TORSDOF 6
