REMARK  Name = ZINC24881150
REMARK  8 active torsions:
REMARK  status: ('A' for Active; 'I' for Inactive)
REMARK    1  A    between atoms: C_1  and  C_2
REMARK    2  A    between atoms: C_5  and  C_36
REMARK    3  A    between atoms: C_10  and  C_12
REMARK    4  A    between atoms: C_12  and  N_13
REMARK    5  A    between atoms: N_16  and  C_19
REMARK    6  A    between atoms: C_19  and  C_20
REMARK    7  A    between atoms: C_20  and  C_21
REMARK    8  A    between atoms: N_23  and  N_24
REMARK                            x       y       z     vdW  Elec       q    Type
REMARK                         _______ _______ _______ _____ _____    ______ ____
ROOT
ATOM      1  C   UNL     1      -0.191   1.131   0.109  0.00  0.00    +0.093 C 
ENDROOT
BRANCH   1   5
ATOM      2  N   UNL     1      -2.000   1.334  -3.704  0.00  0.00    +0.387 N 
ATOM      3  C   UNL     1      -0.802   2.152  -3.465  0.00  0.00    -0.063 C 
ATOM      4  C   UNL     1      -0.037   1.592  -2.264  0.00  0.00    +0.066 C 
ATOM      5  N   UNL     1      -0.914   1.591  -1.085  0.00  0.00    -0.305 NA
ATOM      6  C   UNL     1      -2.111   0.774  -1.323  0.00  0.00    +0.066 C 
ATOM      7  C   UNL     1      -2.877   1.333  -2.525  0.00  0.00    -0.063 C 
ATOM      8  H   UNL     1      -1.674   0.299  -3.885  0.00  0.00    -0.081 HD
BRANCH   2   9
ATOM      9  C   UNL     1      -2.723   1.794  -4.897  0.00  0.00    +0.019 C 
BRANCH   9  17
ATOM     10  C   UNL     1      -2.380   4.947  -7.262  0.00  0.00    +0.009 C 
ATOM     11  C   UNL     1      -3.268   4.078  -8.155  0.00  0.00    +0.004 C 
ATOM     12  C   UNL     1      -2.554   3.812  -9.482  0.00  0.00    +0.009 C 
ATOM     13  C   UNL     1      -1.217   3.117  -9.213  0.00  0.00    +0.004 C 
ATOM     14  C   UNL     1      -1.474   1.773  -8.525  0.00  0.00    +0.111 C 
ATOM     15  N   UNL     1      -2.285   2.005  -7.322  0.00  0.00    -0.303 N 
ATOM     16  C   UNL     1      -3.551   2.740  -7.455  0.00  0.00    +0.111 C 
ATOM     17  C   UNL     1      -1.879   1.548  -6.121  0.00  0.00    +0.199 C 
ATOM     18  O   UNL     1      -0.835   0.939  -6.026  0.00  0.00    -0.278 OA
ATOM     19  C   UNL     1      -0.489   2.882 -10.538  0.00  0.00    +0.009 C 
ENDBRANCH   9  17
ENDBRANCH   2   9
ENDBRANCH   1   5
BRANCH   1  20
ATOM     20  C   UNL     1      -1.049   1.377   1.351  0.00  0.00    +0.112 C 
BRANCH  20  21
ATOM     21  C   UNL     1      -0.308   0.905   2.575  0.00  0.00    +0.231 C 
ATOM     22  O   UNL     1       0.798   0.420   2.465  0.00  0.00    -0.274 OA
ATOM     23  N   UNL     1      -0.873   1.023   3.793  0.00  0.00    -0.224 N 
ATOM     24  H   UNL     1      -1.876   1.463   3.893  0.00  0.00    +0.174 HD
BRANCH  23  25
ATOM     25  N   UNL     1      -0.184   0.584   4.931  0.00  0.00    -0.137 N 
ATOM     26  C   UNL     1       0.407   1.405   5.823  0.00  0.00    +0.263 C 
ATOM     27  O   UNL     1       0.442   2.616   5.794  0.00  0.00    -0.271 OA
ATOM     28  C   UNL     1       1.017   0.496   6.866  0.00  0.00    +0.114 C 
ATOM     29  C   UNL     1       0.401   0.770   8.234  0.00  0.00    +0.035 C 
ATOM     30  C   UNL     1       1.011  -0.178   9.270  0.00  0.00    +0.003 C 
ATOM     31  C   UNL     1       2.525   0.031   9.322  0.00  0.00    +0.000 C 
ATOM     32  C   UNL     1       3.131  -0.271   7.950  0.00  0.00    +0.003 C 
ATOM     33  C   UNL     1       2.530   0.677   6.909  0.00  0.00    +0.035 C 
ATOM     34  N   UNL     1       0.672  -0.855   6.407  0.00  0.00    -0.284 N 
ATOM     35  C   UNL     1      -0.036  -0.703   5.271  0.00  0.00    +0.326 C 
ATOM     36  O   UNL     1      -0.486  -1.629   4.625  0.00  0.00    -0.251 OA
ATOM     37  H   UNL     1       0.998  -1.732   6.985  0.00  0.00    +0.151 HD
ENDBRANCH  23  25
ENDBRANCH  20  21
ENDBRANCH   1  20
TORSDOF 6
