REMARK  Name = ZINC06058179
REMARK  9 active torsions:
REMARK  status: ('A' for Active; 'I' for Inactive)
REMARK    1  A    between atoms: C_1  and  C_2
REMARK    2  A    between atoms: C_5  and  C_8
REMARK    3  A    between atoms: C_11  and  S_14
REMARK    4  A    between atoms: N_12  and  N_13
REMARK    5  A    between atoms: S_14  and  C_15
REMARK    6  A    between atoms: C_15  and  C_16
REMARK    7  A    between atoms: N_18  and  C_19
REMARK    8  A    between atoms: C_19  and  C_21
REMARK    9  A    between atoms: C_19  and  C_22
REMARK                            x       y       z     vdW  Elec       q    Type
REMARK                         _______ _______ _______ _____ _____    ______ ____
ROOT
ATOM      1  C   UNL     1      -6.407   2.106   1.581  0.00  0.00    +0.182 A 
ATOM      2  N   UNL     1      -5.500   3.054   1.609  0.00  0.00    -0.127 NA
ATOM      3  N   UNL     1      -4.350   2.571   1.300  0.00  0.00    -0.121 NA
ATOM      4  C   UNL     1      -4.454   1.285   1.048  0.00  0.00    +0.209 A 
ATOM      5  N   UNL     1      -5.765   0.944   1.221  0.00  0.00    -0.224 N 
ENDROOT
BRANCH   1  10
ATOM      6  C   UNL     1     -12.011   2.697   2.748  0.00  0.00    +0.044 C 
ATOM      7  C   UNL     1     -10.544   2.542   2.442  0.00  0.00    -0.050 A 
ATOM      8  C   UNL     1      -9.977   1.281   2.408  0.00  0.00    +0.004 A 
ATOM      9  C   UNL     1      -8.634   1.132   2.128  0.00  0.00    +0.012 A 
ATOM     10  C   UNL     1      -7.847   2.258   1.881  0.00  0.00    +0.021 A 
ATOM     11  C   UNL     1      -8.424   3.528   1.923  0.00  0.00    +0.012 A 
ATOM     12  C   UNL     1      -9.769   3.662   2.198  0.00  0.00    +0.004 A 
ENDBRANCH   1  10
BRANCH   5  13
ATOM     13  N   UNL     1      -6.323  -0.294   1.068  0.00  0.00    -0.295 N 
ATOM     14  H   UNL     1      -6.388  -0.773   1.954  0.00  0.00    +0.163 HD
ATOM     15  H   UNL     1      -7.226  -0.231   0.624  0.00  0.00    +0.163 HD
ENDBRANCH   5  13
BRANCH   4  16
ATOM     16  S   UNL     1      -3.145   0.203   0.580  0.00  0.00    -0.075 S 
BRANCH  16  17
ATOM     17  C   UNL     1      -1.762   1.370   0.564  0.00  0.00    +0.173 C 
BRANCH  17  18
ATOM     18  C   UNL     1      -0.498   0.646   0.179  0.00  0.00    +0.224 C 
ATOM     19  O   UNL     1      -0.529  -0.542  -0.060  0.00  0.00    -0.275 OA
ATOM     20  N   UNL     1       0.666   1.320   0.096  0.00  0.00    -0.308 N 
ATOM     21  H   UNL     1       0.691   2.271   0.288  0.00  0.00    +0.149 HD
BRANCH  20  22
ATOM     22  C   UNL     1       1.894   0.618  -0.284  0.00  0.00    +0.102 C 
ATOM     23  C   UNL     1       1.972   0.514  -1.808  0.00  0.00    +0.033 C 
BRANCH  22  24
ATOM     24  C   UNL     1       3.088   1.380   0.229  0.00  0.00    -0.009 A 
ATOM     25  C   UNL     1       3.004   2.746   0.428  0.00  0.00    +0.007 A 
ATOM     26  C   UNL     1       4.098   3.445   0.902  0.00  0.00    +0.000 A 
ATOM     27  C   UNL     1       5.280   2.780   1.169  0.00  0.00    +0.001 A 
ATOM     28  C   UNL     1       5.368   1.416   0.966  0.00  0.00    +0.020 A 
ATOM     29  C   UNL     1       4.272   0.715   0.496  0.00  0.00    +0.046 A 
ATOM     30 CL   UNL     1       4.381  -0.998   0.240  0.00  0.00    -0.083 Cl
ENDBRANCH  22  24
ENDBRANCH  20  22
ENDBRANCH  17  18
ENDBRANCH  16  17
ENDBRANCH   4  16
TORSDOF 7
