REMARK  Name = ZINC06879832
REMARK  4 active torsions:
REMARK  status: ('A' for Active; 'I' for Inactive)
REMARK    1  A    between atoms: C_1  and  C_2
REMARK    2  A    between atoms: N_7  and  C_8
REMARK    3  A    between atoms: C_14  and  C_16
REMARK    4  A    between atoms: C_16  and  N_17
REMARK                            x       y       z     vdW  Elec       q    Type
REMARK                         _______ _______ _______ _____ _____    ______ ____
ROOT
ATOM      1  C   UNL     1      -4.549   8.273   0.430  0.00  0.00    +0.066 C 
ATOM      2  C   UNL     1      -3.371   7.340   0.320  0.00  0.00    +0.047 A 
ATOM      3  C   UNL     1      -2.104   7.822   0.304  0.00  0.00    +0.071 A 
ATOM      4  S   UNL     1      -1.173   6.303   0.170  0.00  0.00    -0.060 S 
ATOM      5  C   UNL     1      -2.524   5.212   0.140  0.00  0.00    +0.172 A 
ATOM      6  N   UNL     1      -3.548   6.037   0.237  0.00  0.00    -0.229 NA
ATOM      7  N   UNL     1      -2.525   3.824   0.045  0.00  0.00    -0.217 N 
ATOM      8  C   UNL     1      -3.690   3.157  -0.064  0.00  0.00    +0.246 C 
ATOM      9  O   UNL     1      -4.733   3.769  -0.159  0.00  0.00    -0.273 OA
ENDROOT
BRANCH   7  10
ATOM     10  C   UNL     1      -1.314   3.120   0.062  0.00  0.00    +0.043 A 
ATOM     11  C   UNL     1      -0.870   2.470  -1.082  0.00  0.00    +0.024 A 
ATOM     12  C   UNL     1       0.321   1.773  -1.060  0.00  0.00    +0.002 A 
ATOM     13  C   UNL     1       1.078   1.730   0.096  0.00  0.00    +0.000 A 
ATOM     14  C   UNL     1       0.642   2.380   1.236  0.00  0.00    +0.002 A 
ATOM     15  C   UNL     1      -0.551   3.075   1.222  0.00  0.00    +0.024 A 
ENDBRANCH   7  10
BRANCH   8  16
ATOM     16  C   UNL     1      -3.699   1.650  -0.067  0.00  0.00    +0.222 C 
BRANCH  16  17
ATOM     17  N   UNL     1      -5.082   1.169  -0.061  0.00  0.00    -0.290 N 
ATOM     18  C   UNL     1      -5.703   0.943   1.125  0.00  0.00    +0.203 A 
ATOM     19  N   UNL     1      -6.937   0.518   1.173  0.00  0.00    -0.230 NA
ATOM     20  C   UNL     1      -7.624   0.284   0.058  0.00  0.00    +0.115 A 
ATOM     21  C   UNL     1      -7.064   0.484  -1.217  0.00  0.00    +0.072 A 
ATOM     22  C   UNL     1      -5.711   0.955  -1.232  0.00  0.00    +0.263 A 
ATOM     23  O   UNL     1      -5.138   1.159  -2.288  0.00  0.00    -0.267 OA
ATOM     24  C   UNL     1      -7.947   0.182  -2.328  0.00  0.00    +0.023 A 
ATOM     25  C   UNL     1      -9.192  -0.252  -2.077  0.00  0.00    +0.048 A 
ATOM     26  S   UNL     1      -9.267  -0.285  -0.296  0.00  0.00    -0.077 S 
ENDBRANCH  16  17
ENDBRANCH   8  16
TORSDOF 3
