REMARK  Name = ZINC02860862
REMARK  8 active torsions:
REMARK  status: ('A' for Active; 'I' for Inactive)
REMARK    1  A    between atoms: C_1  and  C_2
REMARK    2  A    between atoms: C_2  and  C_4
REMARK    3  A    between atoms: C_2  and  O_21
REMARK    4  A    between atoms: N_6  and  C_7
REMARK    5  A    between atoms: C_7  and  N_9
REMARK    6  A    between atoms: N_9  and  C_10
REMARK    7  A    between atoms: C_11  and  C_19
REMARK    8  A    between atoms: O_21  and  C_22
REMARK                            x       y       z     vdW  Elec       q    Type
REMARK                         _______ _______ _______ _____ _____    ______ ____
ROOT
ATOM      1  C   UNL     1      -2.696   8.812  -4.631  0.00  0.00    +0.259 C 
ATOM      2  O   UNL     1      -2.525   7.993  -5.509  0.00  0.00    -0.271 OA
ATOM      3  N   UNL     1      -2.343   8.524  -3.363  0.00  0.00    -0.265 N 
ATOM      4  H   UNL     1      -2.479   9.179  -2.661  0.00  0.00    +0.157 HD
ENDROOT
BRANCH   1   6
ATOM      5  C   UNL     1      -2.272  11.254  -4.705  0.00  0.00    +0.062 C 
ATOM      6  C   UNL     1      -3.303  10.152  -4.959  0.00  0.00    +0.256 C 
BRANCH   6   7
ATOM      7  O   UNL     1      -3.695  10.174  -6.332  0.00  0.00    -0.478 OA
BRANCH   7   8
ATOM      8  C   UNL     1      -4.687  11.037  -6.677  0.00  0.00    +0.140 A 
ATOM      9  C   UNL     1      -5.193  11.924  -5.738  0.00  0.00    +0.048 A 
ATOM     10  C   UNL     1      -6.198  12.804  -6.091  0.00  0.00    +0.023 A 
ATOM     11  C   UNL     1      -6.708  12.794  -7.378  0.00  0.00    +0.043 A 
ATOM     12  C   UNL     1      -6.209  11.906  -8.314  0.00  0.00    +0.043 A 
ATOM     13  C   UNL     1      -5.200  11.028  -7.967  0.00  0.00    +0.084 A 
ATOM     14 CL   UNL     1      -4.575   9.913  -9.142  0.00  0.00    -0.080 Cl
ATOM     15 CL   UNL     1      -7.975  13.896  -7.816  0.00  0.00    -0.083 Cl
ENDBRANCH   7   8
ENDBRANCH   6   7
ENDBRANCH   1   6
BRANCH   3  16
ATOM     16  C   UNL     1      -1.800   7.325  -3.070  0.00  0.00    +0.141 C 
ATOM     17  S   UNL     1      -1.559   6.169  -4.309  0.00  0.00    -0.018 S 
BRANCH  16  18
ATOM     18  N   UNL     1      -1.447   7.037  -1.801  0.00  0.00    -0.290 N 
ATOM     19  H   UNL     1      -1.584   7.692  -1.099  0.00  0.00    +0.154 HD
BRANCH  18  20
ATOM     20  C   UNL     1      -0.889   5.804  -1.500  0.00  0.00    +0.089 A 
ATOM     21  C   UNL     1      -0.466   5.327  -0.268  0.00  0.00    +0.084 A 
ATOM     22  C   UNL     1       0.090   3.986  -0.221  0.00  0.00    -0.018 A 
ATOM     23  C   UNL     1       0.134   3.340  -1.407  0.00  0.00    -0.004 A 
ATOM     24  S   UNL     1      -0.550   4.485  -2.571  0.00  0.00    -0.077 S 
ATOM     25  C   UNL     1       0.651   1.958  -1.664  0.00  0.00    +0.043 C 
ATOM     26  C   UNL     1       1.473   1.515  -0.445  0.00  0.00    +0.005 C 
ATOM     27  C   UNL     1       0.673   1.812   0.827  0.00  0.00    +0.005 C 
ATOM     28  C   UNL     1       0.596   3.322   1.054  0.00  0.00    +0.037 C 
BRANCH  21  29
ATOM     29  C   UNL     1      -0.574   6.128   0.915  0.00  0.00    +0.102 C 
ATOM     30  N   UNL     1      -0.659   6.763   1.853  0.00  0.00    -0.191 NA
ENDBRANCH  21  29
ENDBRANCH  18  20
ENDBRANCH  16  18
ENDBRANCH   3  16
TORSDOF 7
