REMARK  Name = ZINC25155881
REMARK  11 active torsions:
REMARK  status: ('A' for Active; 'I' for Inactive)
REMARK    1  A    between atoms: C_1  and  C_2
REMARK    2  A    between atoms: C_3  and  C_14
REMARK    3  A    between atoms: C_4  and  C_13
REMARK    4  A    between atoms: C_9  and  S_11
REMARK    5  A    between atoms: S_11  and  C_12
REMARK    6  A    between atoms: C_14  and  C_15
REMARK    7  A    between atoms: C_15  and  C_16
REMARK    8  A    between atoms: N_18  and  C_19
REMARK    9  A    between atoms: C_19  and  C_20
REMARK   10  A    between atoms: C_20  and  C_22
REMARK   11  A    between atoms: C_20  and  N_27
REMARK                            x       y       z     vdW  Elec       q    Type
REMARK                         _______ _______ _______ _____ _____    ______ ____
ROOT
ATOM      1  C   UNL     1       5.158   5.324  -2.442  0.00  0.00    +0.213 C 
ATOM      2  O   UNL     1       5.077   5.592  -1.262  0.00  0.00    -0.276 OA
ATOM      3  N   UNL     1       5.546   6.267  -3.322  0.00  0.00    -0.317 N 
ATOM      4  H   UNL     1       5.619   6.024  -4.393  0.00  0.00    +0.149 HD
ENDROOT
BRANCH   1   5
ATOM      5  C   UNL     1       4.823   3.936  -2.923  0.00  0.00    +0.100 C 
BRANCH   5   6
ATOM      6  C   UNL     1       4.414   3.067  -1.732  0.00  0.00    +0.048 C 
BRANCH   6   9
ATOM      7  C   UNL     1       6.486   1.027  -1.881  0.00  0.00    +0.066 C 
ATOM      8  C   UNL     1       5.073   0.696  -2.286  0.00  0.00    +0.047 A 
ATOM      9  C   UNL     1       4.079   1.679  -2.213  0.00  0.00    -0.005 A 
ATOM     10  C   UNL     1       2.809   1.367  -2.581  0.00  0.00    +0.048 A 
ATOM     11  N   UNL     1       2.538   0.107  -3.011  0.00  0.00    -0.200 N 
ATOM     12  C   UNL     1       3.530  -0.830  -3.070  0.00  0.00    +0.254 A 
ATOM     13  N   UNL     1       4.779  -0.514  -2.706  0.00  0.00    -0.216 NA
ATOM     14  N   UNL     1       2.987  -1.956  -3.520  0.00  0.00    -0.183 NA
ATOM     15  C   UNL     1       1.689  -1.768  -3.748  0.00  0.00    +0.211 A 
ATOM     16  N   UNL     1       1.367  -0.524  -3.452  0.00  0.00    -0.137 NA
ATOM     17  C   UNL     1       1.718   2.404  -2.515  0.00  0.00    +0.066 C 
BRANCH  15  18
ATOM     18  S   UNL     1       0.574  -2.992  -4.351  0.00  0.00    -0.088 S 
ATOM     19  C   UNL     1       1.611  -4.466  -4.559  0.00  0.00    +0.093 C 
ENDBRANCH  15  18
ENDBRANCH   6   9
ENDBRANCH   5   6
ENDBRANCH   1   5
BRANCH   3  20
ATOM     20  C   UNL     1       5.872   7.617  -2.854  0.00  0.00    +0.094 C 
BRANCH  20  21
ATOM     21  C   UNL     1       6.113   8.530  -4.058  0.00  0.00    -0.013 C 
BRANCH  21  22
ATOM     22  N   UNL     1       4.886   8.616  -4.861  0.00  0.00    +0.386 N 
ATOM     23  C   UNL     1       5.009   9.659  -5.911  0.00  0.00    -0.078 C 
ATOM     24  C   UNL     1       3.918   9.260  -6.937  0.00  0.00    -0.020 C 
ATOM     25  C   UNL     1       3.984   7.715  -6.928  0.00  0.00    -0.020 C 
ATOM     26  C   UNL     1       4.632   7.349  -5.580  0.00  0.00    -0.078 C 
ATOM     27  H   UNL     1       4.078   8.845  -4.150  0.00  0.00    -0.081 HD
ENDBRANCH  21  22
BRANCH  21  28
ATOM     28  C   UNL     1       6.496   9.905  -3.577  0.00  0.00    -0.022 A 
ATOM     29  C   UNL     1       7.711  10.506  -3.589  0.00  0.00    +0.009 A 
ATOM     30  C   UNL     1       7.828  11.791  -3.092  0.00  0.00    +0.008 A 
ATOM     31  C   UNL     1       6.727  12.408  -2.598  0.00  0.00    +0.045 A 
ATOM     32  S   UNL     1       5.469  11.163  -2.835  0.00  0.00    -0.103 S 
ENDBRANCH  21  28
ENDBRANCH  20  21
ENDBRANCH   3  20
TORSDOF 8
