REMARK  Name = ZINC36493482
REMARK  14 active torsions:
REMARK  status: ('A' for Active; 'I' for Inactive)
REMARK    1  A    between atoms: C_1  and  C_2
REMARK    2  A    between atoms: C_2  and  C_3
REMARK    3  A    between atoms: C_3  and  C_4
REMARK    4  A    between atoms: C_4  and  C_5
REMARK    5  A    between atoms: N_7  and  C_8
REMARK    6  A    between atoms: N_7  and  C_14
REMARK    7  A    between atoms: C_14  and  C_16
REMARK    8  A    between atoms: C_14  and  C_25
REMARK    9  A    between atoms: C_16  and  C_18
REMARK   10  A    between atoms: C_16  and  C_19
REMARK   11  A    between atoms: N_27  and  C_28
REMARK   12  A    between atoms: C_28  and  S_29
REMARK   13  A    between atoms: S_29  and  C_32
REMARK   14  A    between atoms: C_35  and  C_38
REMARK                            x       y       z     vdW  Elec       q    Type
REMARK                         _______ _______ _______ _____ _____    ______ ____
ROOT
ATOM      1  C   UNL     1      -3.995  -4.778  -0.985  0.00  0.00    +0.169 C 
ENDROOT
BRANCH   1   2
ATOM      2  C   UNL     1      -4.489  -5.168  -2.354  0.00  0.00    +0.235 C 
ATOM      3  O   UNL     1      -3.743  -5.108  -3.308  0.00  0.00    -0.274 OA
ATOM      4  N   UNL     1      -5.761  -5.583  -2.518  0.00  0.00    -0.295 N 
ATOM      5  H   UNL     1      -6.366  -5.604  -1.761  0.00  0.00    +0.150 HD
BRANCH   4   6
ATOM      6  C   UNL     1      -6.229  -6.004  -3.841  0.00  0.00    +0.278 C 
BRANCH   6   7
ATOM      7  S   UNL     1      -6.016  -7.797  -4.016  0.00  0.00    +0.013 S 
ATOM      8  O   UNL     1      -6.108  -8.169  -5.385  0.00  0.00    -0.168 OA
ATOM      9  O   UNL     1      -4.930  -8.241  -3.216  0.00  0.00    -0.168 OA
BRANCH   7  10
ATOM     10  C   UNL     1      -7.446  -8.498  -3.263  0.00  0.00    +0.090 A 
ATOM     11  C   UNL     1      -7.471  -8.716  -1.898  0.00  0.00    +0.027 A 
ATOM     12  C   UNL     1      -8.593  -9.266  -1.306  0.00  0.00    +0.005 A 
ATOM     13  C   UNL     1      -9.690  -9.597  -2.080  0.00  0.00    -0.050 A 
ATOM     14  C   UNL     1      -9.665  -9.378  -3.444  0.00  0.00    +0.005 A 
ATOM     15  C   UNL     1      -8.545  -8.824  -4.035  0.00  0.00    +0.027 A 
ATOM     16  C   UNL     1     -10.913 -10.198  -1.435  0.00  0.00    +0.044 C 
ENDBRANCH   7  10
ENDBRANCH   6   7
ENDBRANCH   4   6
ENDBRANCH   1   2
BRANCH   1  19
ATOM     17  C   UNL     1      -3.368  -2.479  -0.476  0.00  0.00    +0.216 C 
ATOM     18  O   UNL     1      -2.665  -1.506  -0.651  0.00  0.00    -0.276 OA
ATOM     19  N   UNL     1      -3.082  -3.638  -1.101  0.00  0.00    -0.286 N 
BRANCH  19  20
ATOM     20  C   UNL     1      -1.859  -3.758  -1.898  0.00  0.00    +0.077 C 
ATOM     21  C   UNL     1      -0.654  -3.354  -1.046  0.00  0.00    +0.022 C 
ATOM     22  C   UNL     1       0.624  -3.480  -1.878  0.00  0.00    +0.002 C 
ATOM     23  C   UNL     1       0.531  -2.561  -3.098  0.00  0.00    +0.000 C 
ATOM     24  C   UNL     1      -0.674  -2.965  -3.950  0.00  0.00    +0.002 C 
ATOM     25  C   UNL     1      -1.952  -2.840  -3.118  0.00  0.00    +0.022 C 
ENDBRANCH  19  20
BRANCH  17  26
ATOM     26  C   UNL     1      -4.561  -2.391   0.441  0.00  0.00    +0.096 C 
BRANCH  26  27
ATOM     27  C   UNL     1      -4.586  -1.018   1.115  0.00  0.00    +0.009 C 
BRANCH  27  29
ATOM     28  C   UNL     1      -5.822   0.444   2.720  0.00  0.00    +0.004 C 
ATOM     29  C   UNL     1      -5.797  -0.929   2.046  0.00  0.00    -0.003 C 
ENDBRANCH  27  29
ENDBRANCH  26  27
ENDBRANCH  17  26
ENDBRANCH   1  19
BRANCH   1  30
ATOM     30  C   UNL     1      -3.257  -5.960  -0.353  0.00  0.00    +0.045 C 
ATOM     31  C   UNL     1      -2.605  -5.512   0.957  0.00  0.00    +0.015 C 
BRANCH  30  32
ATOM     32  C   UNL     1      -4.236  -7.071  -0.073  0.00  0.00    -0.042 A 
ATOM     33  C   UNL     1      -5.485  -6.779   0.443  0.00  0.00    +0.004 A 
ATOM     34  C   UNL     1      -6.383  -7.798   0.699  0.00  0.00    +0.000 A 
ATOM     35  C   UNL     1      -6.031  -9.110   0.441  0.00  0.00    +0.000 A 
ATOM     36  C   UNL     1      -4.783  -9.402  -0.076  0.00  0.00    +0.000 A 
ATOM     37  C   UNL     1      -3.887  -8.382  -0.336  0.00  0.00    +0.004 A 
ENDBRANCH  30  32
ENDBRANCH   1  30
TORSDOF 11
