REMARK  Name = ZINC35671286
REMARK  12 active torsions:
REMARK  status: ('A' for Active; 'I' for Inactive)
REMARK    1  A    between atoms: C_1  and  C_2
REMARK    2  A    between atoms: C_2  and  N_3
REMARK    3  A    between atoms: N_3  and  C_4
REMARK    4  A    between atoms: N_3  and  C_6
REMARK    5  A    between atoms: C_4  and  C_5
REMARK    6  A    between atoms: C_6  and  C_8
REMARK    7  A    between atoms: C_6  and  C_24
REMARK    8  A    between atoms: C_8  and  N_9
REMARK    9  A    between atoms: C_27  and  C_30
REMARK   10  A    between atoms: C_30  and  C_31
REMARK   11  A    between atoms: C_30  and  C_32
REMARK   12  A    between atoms: C_30  and  C_33
REMARK                            x       y       z     vdW  Elec       q    Type
REMARK                         _______ _______ _______ _____ _____    ______ ____
ROOT
ATOM      1  C   UNL     1       0.062  -0.282  -3.134  0.00  0.00    -0.017 C 
ENDROOT
BRANCH   1   2
ATOM      2  C   UNL     1      -0.633   0.993  -3.538  0.00  0.00    -0.059 A 
ATOM      3  C   UNL     1      -0.083   2.216  -3.202  0.00  0.00    +0.002 A 
ATOM      4  C   UNL     1      -0.721   3.385  -3.572  0.00  0.00    +0.004 A 
ATOM      5  C   UNL     1      -1.907   3.331  -4.279  0.00  0.00    -0.042 A 
ATOM      6  C   UNL     1      -2.456   2.108  -4.616  0.00  0.00    +0.004 A 
ATOM      7  C   UNL     1      -1.817   0.939  -4.249  0.00  0.00    +0.002 A 
BRANCH   5   8
ATOM      8  C   UNL     1      -2.603   4.606  -4.682  0.00  0.00    -0.013 C 
ATOM      9  C   UNL     1      -1.676   5.431  -5.577  0.00  0.00    +0.015 C 
ATOM     10  C   UNL     1      -3.884   4.268  -5.447  0.00  0.00    +0.015 C 
ATOM     11  C   UNL     1      -2.954   5.413  -3.430  0.00  0.00    +0.015 C 
ENDBRANCH   5   8
ENDBRANCH   1   2
BRANCH   1  12
ATOM     12  N   UNL     1       0.048  -0.405  -1.670  0.00  0.00    +0.385 N 
ATOM     13  H   UNL     1       0.984  -0.285  -1.313  0.00  0.00    -0.081 HD
BRANCH  12  15
ATOM     14  C   UNL     1      -0.330   1.007   0.295  0.00  0.00    -0.017 C 
ATOM     15  C   UNL     1      -0.829   0.627  -1.100  0.00  0.00    -0.081 C 
ENDBRANCH  12  15
BRANCH  12  16
ATOM     16  C   UNL     1      -0.452  -1.734  -1.295  0.00  0.00    -0.081 C 
ATOM     17  C   UNL     1       0.107  -2.781  -2.260  0.00  0.00    -0.017 C 
ENDBRANCH  12  16
ENDBRANCH   1  12
BRANCH   1  18
ATOM     18  C   UNL     1       1.509  -0.253  -3.629  0.00  0.00    +0.115 C 
BRANCH  18  19
ATOM     19  N   UNL     1       2.170  -1.514  -3.282  0.00  0.00    -0.300 N 
ATOM     20  C   UNL     1       2.712  -1.687  -2.047  0.00  0.00    +0.202 A 
ATOM     21  N   UNL     1       3.308  -2.776  -1.681  0.00  0.00    -0.235 NA
ATOM     22  C   UNL     1       3.438  -3.852  -2.527  0.00  0.00    +0.107 A 
ATOM     23  C   UNL     1       4.060  -5.088  -2.254  0.00  0.00    +0.081 A 
ATOM     24  C   UNL     1       4.067  -6.018  -3.268  0.00  0.00    +0.070 A 
ATOM     25  S   UNL     1       3.225  -5.243  -4.611  0.00  0.00    -0.073 S 
ATOM     26  C   UNL     1       2.882  -3.695  -3.811  0.00  0.00    +0.105 A 
ATOM     27  C   UNL     1       2.241  -2.520  -4.186  0.00  0.00    +0.268 A 
ATOM     28  O   UNL     1       1.758  -2.397  -5.300  0.00  0.00    -0.266 OA
ATOM     29  S   UNL     1       4.788  -7.612  -3.156  0.00  0.00    -0.107 S 
ATOM     30  C   UNL     1       6.046  -7.345  -1.863  0.00  0.00    +0.171 C 
ATOM     31  C   UNL     1       5.482  -6.436  -0.809  0.00  0.00    +0.227 C 
ATOM     32  O   UNL     1       5.807  -6.664   0.338  0.00  0.00    -0.275 OA
ATOM     33  N   UNL     1       4.663  -5.407  -1.005  0.00  0.00    -0.282 N 
ATOM     34  H   UNL     1       4.463  -4.836  -0.246  0.00  0.00    +0.155 HD
ENDBRANCH  18  19
ENDBRANCH   1  18
TORSDOF 7
