REMARK  Name = ZINC51121299
REMARK  3 active torsions:
REMARK  status: ('A' for Active; 'I' for Inactive)
REMARK    1  A    between atoms: C_3  and  N_18
REMARK    2  A    between atoms: C_6  and  C_7
REMARK    3  A    between atoms: N_18  and  N_19
REMARK                            x       y       z     vdW  Elec       q    Type
REMARK                         _______ _______ _______ _____ _____    ______ ____
ROOT
ATOM      1  C   UNL     1      -1.266  -0.763   0.011  0.00  0.00    +0.270 C 
ATOM      2  O   UNL     1      -2.328  -0.171   0.024  0.00  0.00    -0.268 OA
ATOM      3  N   UNL     1      -1.246  -2.110   0.003  0.00  0.00    -0.259 N 
ATOM      4  C   UNL     1      -2.438  -2.823   0.011  0.00  0.00    +0.165 A 
ATOM      5  N   UNL     1      -3.664  -2.361   0.020  0.00  0.00    -0.229 NA
ATOM      6  C   UNL     1      -4.730  -3.173   0.027  0.00  0.00    +0.054 A 
ATOM      7  C   UNL     1      -4.437  -4.494   0.026  0.00  0.00    +0.014 A 
ATOM      8  S   UNL     1      -2.660  -4.491   0.004  0.00  0.00    -0.057 S 
ATOM      9  C   UNL     1      -5.669  -5.346   0.040  0.00  0.00    +0.045 C 
ATOM     10  C   UNL     1      -6.801  -4.390   0.478  0.00  0.00    +0.011 C 
ATOM     11  C   UNL     1      -6.249  -3.021   0.032  0.00  0.00    +0.056 C 
ATOM     12  H   UNL     1      -0.399  -2.582  -0.008  0.00  0.00    +0.157 HD
ENDROOT
BRANCH   1  18
ATOM     13  C   UNL     1      -0.017   1.396   0.010  0.00  0.00    +0.038 A 
ATOM     14  C   UNL     1       1.195   2.062   0.002  0.00  0.00    +0.049 A 
ATOM     15  C   UNL     1       2.363   1.298  -0.013  0.00  0.00    +0.155 A 
ATOM     16  N   UNL     1       2.287  -0.029  -0.020  0.00  0.00    -0.132 NA
ATOM     17  N   UNL     1       1.163  -0.648  -0.013  0.00  0.00    -0.143 NA
ATOM     18  C   UNL     1       0.002  -0.004   0.002  0.00  0.00    +0.148 A 
BRANCH  15  19
ATOM     19  N   UNL     1       3.600   1.922  -0.022  0.00  0.00    -0.266 N 
ATOM     20  H   UNL     1       3.655   2.890  -0.018  0.00  0.00    +0.167 HD
BRANCH  19  21
ATOM     21  N   UNL     1       4.742   1.173  -0.037  0.00  0.00    -0.255 NA
ATOM     22  H   UNL     1       5.561   1.763  -0.042  0.00  0.00    +0.140 HD
ATOM     23  H   UNL     1       4.764   0.531   0.741  0.00  0.00    +0.140 HD
ENDBRANCH  19  21
ENDBRANCH  15  19
ENDBRANCH   1  18
TORSDOF 3
