REMARK  Name = ZINC12480332
REMARK  10 active torsions:
REMARK  status: ('A' for Active; 'I' for Inactive)
REMARK    1  A    between atoms: C_1  and  N_2
REMARK    2  A    between atoms: C_6  and  C_7
REMARK    3  A    between atoms: C_7  and  C_9
REMARK    4  A    between atoms: C_7  and  N_19
REMARK    5  A    between atoms: N_11  and  C_12
REMARK    6  A    between atoms: C_12  and  C_13
REMARK    7  A    between atoms: N_19  and  C_20
REMARK    8  A    between atoms: C_20  and  C_21
REMARK    9  A    between atoms: C_28  and  C_30
REMARK   10  A    between atoms: C_30  and  N_31
REMARK                            x       y       z     vdW  Elec       q    Type
REMARK                         _______ _______ _______ _____ _____    ______ ____
ROOT
ATOM      1  N   UNL     1      -0.234  -4.936  -2.329  0.00  0.00    -0.279 N 
ATOM      2  C   UNL     1      -0.044  -3.775  -1.670  0.00  0.00    +0.238 C 
ATOM      3  O   UNL     1       0.017  -2.732  -2.286  0.00  0.00    -0.274 OA
ENDROOT
BRANCH   1   4
ATOM      4  C   UNL     1      -0.217  -4.958  -3.794  0.00  0.00    +0.209 C 
BRANCH   4  10
ATOM      5  C   UNL     1       2.387  -4.313  -5.348  0.00  0.00    +0.148 C 
ATOM      6  N   UNL     1       1.953  -5.655  -4.952  0.00  0.00    -0.352 N 
ATOM      7  C   UNL     1       2.626  -6.814  -5.203  0.00  0.00    +0.085 A 
ATOM      8  C   UNL     1       1.911  -7.837  -4.691  0.00  0.00    +0.019 A 
ATOM      9  C   UNL     1       0.757  -7.288  -4.098  0.00  0.00    +0.025 A 
ATOM     10  C   UNL     1       0.811  -5.952  -4.269  0.00  0.00    +0.048 A 
ENDBRANCH   4  10
BRANCH   4  11
ATOM     11  C   UNL     1      -1.577  -5.358  -4.306  0.00  0.00    +0.240 C 
ATOM     12  O   UNL     1      -2.550  -5.252  -3.589  0.00  0.00    -0.273 OA
ATOM     13  N   UNL     1      -1.712  -5.832  -5.560  0.00  0.00    -0.311 N 
ATOM     14  H   UNL     1      -0.926  -5.985  -6.108  0.00  0.00    +0.149 HD
BRANCH  13  15
ATOM     15  C   UNL     1      -3.046  -6.118  -6.095  0.00  0.00    +0.135 C 
BRANCH  15  16
ATOM     16  C   UNL     1      -2.919  -6.642  -7.527  0.00  0.00    +0.135 C 
ATOM     17  C   UNL     1      -4.317  -6.869  -8.143  0.00  0.00    +0.035 C 
ATOM     18  C   UNL     1      -4.149  -8.146  -8.996  0.00  0.00    +0.031 C 
ATOM     19  C   UNL     1      -2.669  -8.540  -8.795  0.00  0.00    +0.160 C 
ATOM     20  O   UNL     1      -2.295  -7.945  -7.532  0.00  0.00    -0.375 OA
ENDBRANCH  15  16
ENDBRANCH  13  15
ENDBRANCH   4  11
ENDBRANCH   1   4
BRANCH   1  21
ATOM     21  C   UNL     1      -0.457  -6.175  -1.580  0.00  0.00    +0.145 C 
BRANCH  21  22
ATOM     22  C   UNL     1      -1.859  -6.668  -1.831  0.00  0.00    -0.012 A 
ATOM     23  C   UNL     1      -2.063  -7.851  -2.516  0.00  0.00    +0.006 A 
ATOM     24  C   UNL     1      -3.349  -8.303  -2.746  0.00  0.00    +0.000 A 
ATOM     25  C   UNL     1      -4.431  -7.573  -2.290  0.00  0.00    +0.001 A 
ATOM     26  C   UNL     1      -4.228  -6.390  -1.605  0.00  0.00    +0.020 A 
ATOM     27  C   UNL     1      -2.941  -5.940  -1.370  0.00  0.00    +0.046 A 
ATOM     28 CL   UNL     1      -2.684  -4.458  -0.502  0.00  0.00    -0.083 Cl
ENDBRANCH  21  22
ENDBRANCH   1  21
BRANCH   2  29
ATOM     29  C   UNL     1       0.091  -3.774  -0.170  0.00  0.00    +0.241 C 
BRANCH  29  30
ATOM     30  N   UNL     1       0.441  -2.427   0.288  0.00  0.00    -0.235 N 
ATOM     31  C   UNL     1      -0.432  -1.426   0.641  0.00  0.00    +0.090 A 
ATOM     32  C   UNL     1      -1.818  -1.325   0.692  0.00  0.00    +0.029 A 
ATOM     33  C   UNL     1      -2.400  -0.158   1.099  0.00  0.00    +0.002 A 
ATOM     34  C   UNL     1      -1.620   0.932   1.464  0.00  0.00    +0.002 A 
ATOM     35  C   UNL     1      -0.258   0.859   1.423  0.00  0.00    +0.032 A 
ATOM     36  C   UNL     1       0.364  -0.327   1.009  0.00  0.00    +0.113 A 
ATOM     37  N   UNL     1       1.654  -0.691   0.869  0.00  0.00    -0.129 NA
ATOM     38  N   UNL     1       1.733  -1.905   0.452  0.00  0.00    -0.064 NA
ENDBRANCH  29  30
ENDBRANCH   2  29
TORSDOF 9
