REMARK  Name = ZINC20254660
REMARK  6 active torsions:
REMARK  status: ('A' for Active; 'I' for Inactive)
REMARK    1  A    between atoms: C_1  and  C_2
REMARK    2  A    between atoms: C_5  and  N_19
REMARK    3  A    between atoms: C_7  and  N_8
REMARK    4  A    between atoms: N_8  and  S_9
REMARK    5  A    between atoms: S_9  and  N_12
REMARK    6  A    between atoms: C_15  and  C_18
REMARK                            x       y       z     vdW  Elec       q    Type
REMARK                         _______ _______ _______ _____ _____    ______ ____
ROOT
ATOM      1  N   UNL     1      -4.834   0.910   0.030  0.00  0.00    -0.206 N 
ATOM      2  H   UNL     1      -5.677   1.276  -0.575  0.00  0.00    +0.175 HD
ENDROOT
BRANCH   1   9
ATOM      3  C   UNL     1      -5.189   3.723   0.231  0.00  0.00    +0.046 C 
ATOM      4  C   UNL     1      -3.826   3.085   0.303  0.00  0.00    -0.028 A 
ATOM      5  C   UNL     1      -2.703   3.873   0.472  0.00  0.00    +0.007 A 
ATOM      6  C   UNL     1      -1.452   3.291   0.545  0.00  0.00    +0.023 A 
ATOM      7  C   UNL     1      -1.318   1.912   0.436  0.00  0.00    +0.026 A 
ATOM      8  C   UNL     1      -2.443   1.118   0.267  0.00  0.00    +0.047 A 
ATOM      9  C   UNL     1      -3.699   1.705   0.200  0.00  0.00    +0.054 A 
BRANCH   7  10
ATOM     10  N   UNL     1      -0.052   1.325   0.504  0.00  0.00    -0.358 N 
ATOM     11  H   UNL     1       0.054   0.234   0.418  0.00  0.00    +0.142 HD
ATOM     12  H   UNL     1       0.839   1.955   0.643  0.00  0.00    +0.142 HD
ENDBRANCH   7  10
ENDBRANCH   1   9
BRANCH   1  13
ATOM     13  S   UNL     1      -4.912  -0.584   0.740  0.00  0.00    +0.112 S 
ATOM     14  O   UNL     1      -6.223  -1.080   0.501  0.00  0.00    -0.138 OA
ATOM     15  O   UNL     1      -3.746  -1.288   0.335  0.00  0.00    -0.138 OA
BRANCH  13  16
ATOM     16  N   UNL     1      -4.784  -0.357   2.376  0.00  0.00    -0.164 NA
ATOM     17  C   UNL     1      -3.469  -0.366   3.031  0.00  0.00    +0.111 C 
ATOM     18  C   UNL     1      -3.320   0.929   3.844  0.00  0.00    +0.020 C 
ATOM     19  C   UNL     1      -4.502   1.059   4.808  0.00  0.00    -0.012 C 
ATOM     20  C   UNL     1      -5.806   1.139   4.011  0.00  0.00    +0.020 C 
ATOM     21  C   UNL     1      -5.983  -0.148   3.199  0.00  0.00    +0.111 C 
ATOM     22  C   UNL     1      -4.338   2.329   5.646  0.00  0.00    +0.007 C 
ENDBRANCH  13  16
ENDBRANCH   1  13
TORSDOF 4
