REMARK  Name = ZINC32908709
REMARK  8 active torsions:
REMARK  status: ('A' for Active; 'I' for Inactive)
REMARK    1  A    between atoms: C_1  and  N_2
REMARK    2  A    between atoms: N_2  and  C_3
REMARK    3  A    between atoms: N_2  and  C_4
REMARK    4  A    between atoms: C_4  and  C_5
REMARK    5  A    between atoms: C_8  and  C_11
REMARK    6  A    between atoms: C_16  and  C_17
REMARK    7  A    between atoms: C_17  and  N_18
REMARK    8  A    between atoms: C_19  and  C_21
REMARK                            x       y       z     vdW  Elec       q    Type
REMARK                         _______ _______ _______ _____ _____    ______ ____
ROOT
ATOM      1  C   UNL     1      -1.231   2.305  -0.106  0.00  0.00    -0.013 A 
ATOM      2  C   UNL     1      -2.184   2.050  -1.090  0.00  0.00    +0.009 A 
ATOM      3  C   UNL     1      -3.466   2.542  -0.949  0.00  0.00    +0.001 A 
ATOM      4  C   UNL     1      -3.805   3.288   0.165  0.00  0.00    +0.000 A 
ATOM      5  C   UNL     1      -2.863   3.544   1.145  0.00  0.00    +0.006 A 
ATOM      6  C   UNL     1      -1.579   3.053   1.017  0.00  0.00    -0.023 A 
ENDROOT
BRANCH   1  10
ATOM      7  C   UNL     1       2.718   0.786  -0.528  0.00  0.00    -0.064 A 
ATOM      8  C   UNL     1       1.974   0.468   0.594  0.00  0.00    +0.002 A 
ATOM      9  C   UNL     1       0.692   0.960   0.737  0.00  0.00    +0.009 A 
ATOM     10  C   UNL     1       0.149   1.778  -0.251  0.00  0.00    -0.018 A 
ATOM     11  C   UNL     1       0.903   2.096  -1.379  0.00  0.00    +0.009 A 
ATOM     12  C   UNL     1       2.184   1.598  -1.511  0.00  0.00    +0.002 A 
BRANCH   7  13
ATOM     13  C   UNL     1       4.117   0.245  -0.678  0.00  0.00    -0.044 C 
BRANCH  13  15
ATOM     14  C   UNL     1       5.418  -1.492  -1.752  0.00  0.00    -0.096 C 
ATOM     15  N   UNL     1       4.070  -1.047  -1.376  0.00  0.00    +0.379 N 
ATOM     16  C   UNL     1       3.389  -2.061  -0.560  0.00  0.00    -0.096 C 
ATOM     17  H   UNL     1       3.489  -0.911  -2.300  0.00  0.00    -0.082 HD
ENDBRANCH  13  15
ENDBRANCH   7  13
ENDBRANCH   1  10
BRANCH   6  18
ATOM     18  C   UNL     1      -0.555   3.328   2.088  0.00  0.00    +0.140 C 
BRANCH  18  19
ATOM     19  N   UNL     1       0.401   4.327   1.604  0.00  0.00    -0.305 N 
ATOM     20  C   UNL     1       1.468   4.658   2.357  0.00  0.00    +0.280 C 
ATOM     21  O   UNL     1       1.638   4.128   3.437  0.00  0.00    -0.267 OA
ATOM     22  H   UNL     1       0.247   4.807   0.626  0.00  0.00    +0.149 HD
BRANCH  20  23
ATOM     23  C   UNL     1       2.436   5.668   1.868  0.00  0.00    +0.193 A 
ATOM     24  C   UNL     1       3.500   5.981   2.645  0.00  0.00    +0.103 A 
ATOM     25  C   UNL     1       4.460   6.984   2.161  0.00  0.00    +0.193 A 
ATOM     26  O   UNL     1       5.435   7.304   2.818  0.00  0.00    -0.287 OA
ATOM     27  C   UNL     1       4.188   7.584   0.841  0.00  0.00    +0.064 A 
ATOM     28  C   UNL     1       5.036   8.544   0.291  0.00  0.00    +0.015 A 
ATOM     29  C   UNL     1       4.750   9.077  -0.935  0.00  0.00    +0.001 A 
ATOM     30  C   UNL     1       3.623   8.668  -1.633  0.00  0.00    +0.004 A 
ATOM     31  C   UNL     1       2.772   7.721  -1.106  0.00  0.00    +0.047 A 
ATOM     32  C   UNL     1       3.043   7.165   0.141  0.00  0.00    +0.139 A 
ATOM     33  O   UNL     1       2.227   6.233   0.670  0.00  0.00    -0.450 OA
ENDBRANCH  20  23
ENDBRANCH  18  19
ENDBRANCH   6  18
TORSDOF 6
