REMARK  Name = ZINC07824513
REMARK  6 active torsions:
REMARK  status: ('A' for Active; 'I' for Inactive)
REMARK    1  A    between atoms: C_1  and  C_2
REMARK    2  A    between atoms: C_2  and  C_4
REMARK    3  A    between atoms: C_2  and  O_17
REMARK    4  A    between atoms: O_17  and  C_18
REMARK    5  A    between atoms: C_18  and  C_20
REMARK    6  A    between atoms: C_22  and  C_30
REMARK                            x       y       z     vdW  Elec       q    Type
REMARK                         _______ _______ _______ _____ _____    ______ ____
ROOT
ATOM      1  C   UNL     1      -0.773   1.583  -1.241  0.00  0.00    +0.062 C 
ATOM      2  C   UNL     1      -0.023   1.093  -0.001  0.00  0.00    +0.259 C 
ENDROOT
BRANCH   2   3
ATOM      3  C   UNL     1       1.385   1.630  -0.020  0.00  0.00    +0.261 C 
ATOM      4  O   UNL     1       1.748   2.411   0.834  0.00  0.00    -0.271 OA
ATOM      5  N   UNL     1       2.240   1.244  -0.988  0.00  0.00    -0.258 N 
ATOM      6  C   UNL     1       1.827   0.294  -2.031  0.00  0.00    +0.209 C 
ATOM      7  C   UNL     1       2.937  -0.690  -2.274  0.00  0.00    +0.235 C 
ATOM      8  O   UNL     1       2.671  -1.810  -2.657  0.00  0.00    -0.274 OA
ATOM      9  N   UNL     1       4.222  -0.345  -2.068  0.00  0.00    -0.283 N 
ATOM     10  C   UNL     1       4.553   0.923  -1.579  0.00  0.00    +0.055 A 
ATOM     11  C   UNL     1       3.556   1.730  -1.027  0.00  0.00    +0.058 A 
ATOM     12  C   UNL     1       3.870   2.983  -0.534  0.00  0.00    +0.025 A 
ATOM     13  C   UNL     1       5.176   3.437  -0.591  0.00  0.00    +0.002 A 
ATOM     14  C   UNL     1       6.164   2.641  -1.140  0.00  0.00    +0.002 A 
ATOM     15  C   UNL     1       5.858   1.386  -1.634  0.00  0.00    +0.025 A 
ATOM     16  H   UNL     1       4.927  -0.984  -2.260  0.00  0.00    +0.155 HD
ENDBRANCH   2   3
BRANCH   2  17
ATOM     17  O   UNL     1      -0.703   1.562   1.193  0.00  0.00    -0.449 OA
BRANCH  17  18
ATOM     18  C   UNL     1      -1.658   0.762   1.707  0.00  0.00    +0.341 C 
ATOM     19  O   UNL     1      -1.915  -0.298   1.172  0.00  0.00    -0.245 OA
BRANCH  18  20
ATOM     20  C   UNL     1      -2.393   1.174   2.921  0.00  0.00    +0.070 A 
ATOM     21  C   UNL     1      -2.038   2.322   3.620  0.00  0.00    +0.039 A 
ATOM     22  C   UNL     1      -2.757   2.683   4.757  0.00  0.00    +0.046 A 
ATOM     23  N   UNL     1      -3.758   1.964   5.201  0.00  0.00    -0.251 NA
ATOM     24  C   UNL     1      -4.150   0.847   4.585  0.00  0.00    +0.072 A 
ATOM     25  C   UNL     1      -3.479   0.408   3.416  0.00  0.00    +0.014 A 
ATOM     26  C   UNL     1      -3.897  -0.765   2.774  0.00  0.00    +0.011 A 
ATOM     27  C   UNL     1      -4.945  -1.473   3.280  0.00  0.00    +0.001 A 
ATOM     28  C   UNL     1      -5.608  -1.046   4.429  0.00  0.00    +0.002 A 
ATOM     29  C   UNL     1      -5.229   0.089   5.077  0.00  0.00    +0.028 A 
BRANCH  22  30
ATOM     30  C   UNL     1      -2.367   3.934   5.502  0.00  0.00    +0.038 C 
ATOM     31  C   UNL     1      -0.993   4.536   5.202  0.00  0.00    +0.010 C 
ATOM     32  C   UNL     1      -1.242   3.821   6.532  0.00  0.00    +0.010 C 
ENDBRANCH  22  30
ENDBRANCH  18  20
ENDBRANCH  17  18
ENDBRANCH   2  17
TORSDOF 5
