REMARK  Name = ZINC14994430
REMARK  10 active torsions:
REMARK  status: ('A' for Active; 'I' for Inactive)
REMARK    1  A    between atoms: C_1  and  C_2
REMARK    2  A    between atoms: C_2  and  C_3
REMARK    3  A    between atoms: C_2  and  C_4
REMARK    4  A    between atoms: C_2  and  N_5
REMARK    5  A    between atoms: C_6  and  C_8
REMARK    6  A    between atoms: N_10  and  C_26
REMARK    7  A    between atoms: C_12  and  C_15
REMARK    8  A    between atoms: N_17  and  C_18
REMARK    9  A    between atoms: C_18  and  C_19
REMARK   10  A    between atoms: C_25  and  N_69
REMARK                            x       y       z     vdW  Elec       q    Type
REMARK                         _______ _______ _______ _____ _____    ______ ____
ROOT
ATOM      1  C   UNL     1      -2.453   0.870   0.018  0.00  0.00    +0.100 A 
ATOM      2  C   UNL     1      -2.454  -0.508   0.011  0.00  0.00    +0.102 A 
ATOM      3  N   UNL     1      -3.601  -1.207   0.013  0.00  0.00    -0.349 N 
ATOM      4  C   UNL     1      -4.816  -0.633   0.023  0.00  0.00    +0.102 A 
ATOM      5  C   UNL     1      -4.963   0.737   0.031  0.00  0.00    +0.100 A 
ATOM      6  C   UNL     1      -3.748   1.570   0.035  0.00  0.00    +0.206 A 
ATOM      7  O   UNL     1      -3.813   2.788   0.046  0.00  0.00    -0.286 OA
ENDROOT
BRANCH   3   8
ATOM      8  C   UNL     1      -3.524  -2.670   0.005  0.00  0.00    +0.087 C 
ATOM      9  C   UNL     1      -4.223  -3.210  -1.244  0.00  0.00    +0.025 C 
ATOM     10  C   UNL     1      -4.143  -4.738  -1.253  0.00  0.00    +0.002 C 
ATOM     11  C   UNL     1      -4.829  -5.292  -0.003  0.00  0.00    +0.000 C 
ATOM     12  C   UNL     1      -4.130  -4.752   1.246  0.00  0.00    +0.002 C 
ATOM     13  C   UNL     1      -4.211  -3.224   1.254  0.00  0.00    +0.025 C 
ENDBRANCH   3   8
BRANCH   1  15
ATOM     14  N   UNL     1      -0.011   0.966   0.007  0.00  0.00    -0.306 N 
ATOM     15  C   UNL     1      -1.187   1.624   0.017  0.00  0.00    +0.250 C 
ATOM     16  O   UNL     1      -1.204   2.840   0.023  0.00  0.00    -0.270 OA
ATOM     17  H   UNL     1       0.002  -0.004   0.002  0.00  0.00    +0.150 HD
BRANCH  14  19
ATOM     18  C   UNL     1       1.329   2.589   1.253  0.00  0.00    +0.031 C 
ATOM     19  C   UNL     1       1.248   1.716  -0.001  0.00  0.00    +0.026 C 
ATOM     20  C   UNL     1       2.424   0.737  -0.017  0.00  0.00    +0.031 C 
ATOM     21  C   UNL     1       1.305   2.603  -1.246  0.00  0.00    +0.031 C 
ENDBRANCH  14  19
ENDBRANCH   1  15
BRANCH   5  22
ATOM     22  C   UNL     1      -6.301   1.353   0.041  0.00  0.00    +0.249 C 
ATOM     23  O   UNL     1      -6.413   2.564   0.048  0.00  0.00    -0.270 OA
ATOM     24  N   UNL     1      -7.401   0.574   0.043  0.00  0.00    -0.311 N 
ATOM     25  H   UNL     1      -7.311  -0.392   0.037  0.00  0.00    +0.149 HD
BRANCH  24  26
ATOM     26  C   UNL     1      -8.732   1.187   0.053  0.00  0.00    +0.106 C 
BRANCH  26  27
ATOM     27  C   UNL     1      -9.798   0.090   0.053  0.00  0.00    -0.011 C 
ATOM     28  C   UNL     1     -11.186   0.726  -0.058  0.00  0.00    +0.001 C 
ATOM     29  C   UNL     1     -12.250  -0.374   0.004  0.00  0.00    -0.018 C 
ATOM     30  C   UNL     1     -12.091  -1.158   1.308  0.00  0.00    -0.079 C 
ATOM     31  C   UNL     1      -9.710  -0.708   1.356  0.00  0.00    -0.074 C 
ATOM     32  C   UNL     1     -10.605  -2.622   2.538  0.00  0.00    -0.096 C 
ATOM     33  N   UNL     1     -10.743  -1.766   1.341  0.00  0.00    +0.378 N 
ATOM     34  H   UNL     1     -10.617  -2.343   0.502  0.00  0.00    -0.082 HD
ENDBRANCH  26  27
ENDBRANCH  24  26
ENDBRANCH   5  22
TORSDOF 6
