REMARK  Name = ZINC17243627
REMARK  8 active torsions:
REMARK  status: ('A' for Active; 'I' for Inactive)
REMARK    1  A    between atoms: C_1  and  C_2
REMARK    2  A    between atoms: C_3  and  C_27
REMARK    3  A    between atoms: C_4  and  C_19
REMARK    4  A    between atoms: C_9  and  C_11
REMARK    5  A    between atoms: C_15  and  O_17
REMARK    6  A    between atoms: C_22  and  O_25
REMARK    7  A    between atoms: O_25  and  C_26
REMARK    8  A    between atoms: N_29  and  C_30
REMARK                            x       y       z     vdW  Elec       q    Type
REMARK                         _______ _______ _______ _____ _____    ______ ____
ROOT
ATOM      1  C   UNL     1       7.174   2.157  -2.623  0.00  0.00    +0.061 C 
ATOM      2  C   UNL     1       6.612   2.615  -1.302  0.00  0.00    +0.018 C 
ATOM      3  C   UNL     1       5.644   3.542  -1.296  0.00  0.00    +0.060 C 
ATOM      4  C   UNL     1       5.007   4.058  -0.033  0.00  0.00    +0.177 C 
ATOM      5  N   UNL     1       5.791   3.623   1.120  0.00  0.00    -0.220 N 
ATOM      6  C   UNL     1       6.769   2.685   1.052  0.00  0.00    +0.219 A 
ATOM      7  N   UNL     1       7.263   2.525   2.248  0.00  0.00    -0.193 NA
ATOM      8  C   UNL     1       6.633   3.344   3.107  0.00  0.00    +0.183 A 
ATOM      9  N   UNL     1       5.723   4.035   2.450  0.00  0.00    -0.147 NA
ATOM     10  N   UNL     1       7.109   2.067  -0.144  0.00  0.00    -0.287 N 
ATOM     11  H   UNL     1       7.675   1.280  -0.162  0.00  0.00    +0.155 HD
ENDROOT
BRANCH   8  12
ATOM     12  C   UNL     1       6.915   3.452   4.560  0.00  0.00    +0.024 A 
ATOM     13  C   UNL     1       6.193   4.347   5.347  0.00  0.00    +0.012 A 
ATOM     14  C   UNL     1       6.454   4.443   6.699  0.00  0.00    +0.004 A 
ATOM     15  C   UNL     1       7.437   3.660   7.274  0.00  0.00    +0.045 A 
ATOM     16  C   UNL     1       8.165   2.770   6.496  0.00  0.00    +0.118 A 
ATOM     17  C   UNL     1       7.906   2.664   5.139  0.00  0.00    +0.057 A 
BRANCH  16  18
ATOM     18  O   UNL     1       9.131   2.003   7.065  0.00  0.00    -0.507 OA
ATOM     19  H   UNL     1      10.008   2.411   7.067  0.00  0.00    +0.292 HD
ENDBRANCH  16  18
ENDBRANCH   8  12
BRANCH   4  20
ATOM     20  C   UNL     1       3.605   3.515   0.080  0.00  0.00    -0.018 A 
ATOM     21  C   UNL     1       2.531   4.385   0.131  0.00  0.00    +0.009 A 
ATOM     22  C   UNL     1       1.245   3.890   0.234  0.00  0.00    +0.046 A 
ATOM     23  C   UNL     1       1.032   2.520   0.287  0.00  0.00    +0.120 A 
ATOM     24  C   UNL     1       2.112   1.651   0.242  0.00  0.00    +0.046 A 
ATOM     25  C   UNL     1       3.395   2.150   0.132  0.00  0.00    +0.009 A 
BRANCH  23  26
ATOM     26  O   UNL     1      -0.232   2.031   0.389  0.00  0.00    -0.495 OA
ATOM     27  C   UNL     1      -0.376   0.611   0.438  0.00  0.00    +0.277 C 
ENDBRANCH  23  26
ENDBRANCH   4  20
BRANCH   3  28
ATOM     28  C   UNL     1       5.200   4.061  -2.535  0.00  0.00    +0.248 C 
ATOM     29  O   UNL     1       5.696   3.664  -3.574  0.00  0.00    -0.270 OA
ATOM     30  N   UNL     1       4.228   4.994  -2.566  0.00  0.00    -0.280 N 
ATOM     31  H   UNL     1       3.780   5.255  -1.746  0.00  0.00    +0.155 HD
BRANCH  30  32
ATOM     32  C   UNL     1       3.864   5.586  -3.780  0.00  0.00    +0.052 A 
ATOM     33  C   UNL     1       4.814   5.792  -4.777  0.00  0.00    +0.026 A 
ATOM     34  C   UNL     1       4.405   6.378  -5.964  0.00  0.00    +0.021 A 
ATOM     35  C   UNL     1       3.081   6.745  -6.114  0.00  0.00    +0.111 A 
ATOM     36  N   UNL     1       2.207   6.541  -5.148  0.00  0.00    -0.261 NA
ATOM     37  C   UNL     1       2.553   5.982  -4.006  0.00  0.00    +0.134 A 
ENDBRANCH  30  32
ENDBRANCH   3  28
TORSDOF 6
