REMARK  Name = ZINC13987612
REMARK  10 active torsions:
REMARK  status: ('A' for Active; 'I' for Inactive)
REMARK    1  A    between atoms: C_1  and  C_2
REMARK    2  A    between atoms: C_8  and  N_10
REMARK    3  A    between atoms: C_14  and  C_16
REMARK    4  A    between atoms: C_16  and  S_17
REMARK    5  A    between atoms: S_17  and  C_18
REMARK    6  A    between atoms: N_28  and  C_29
REMARK    7  A    between atoms: C_29  and  C_31
REMARK    8  A    between atoms: C_29  and  C_32
REMARK    9  A    between atoms: C_32  and  O_33
REMARK   10  A    between atoms: O_33  and  C_34
REMARK                            x       y       z     vdW  Elec       q    Type
REMARK                         _______ _______ _______ _____ _____    ______ ____
ROOT
ATOM      1  S   UNL     1       0.867   3.989   0.540  0.00  0.00    -0.078 S 
ENDROOT
BRANCH   1   2
ATOM      2  C   UNL     1       1.124   2.259   0.329  0.00  0.00    +0.173 A 
ATOM      3  N   UNL     1       2.347   1.796   0.404  0.00  0.00    -0.223 NA
ATOM      4  C   UNL     1       2.616   0.483   0.253  0.00  0.00    +0.079 A 
ATOM      5  C   UNL     1       3.921  -0.011   0.332  0.00  0.00    +0.028 A 
ATOM      6  C   UNL     1       4.149  -1.349   0.171  0.00  0.00    +0.002 A 
ATOM      7  C   UNL     1       3.101  -2.228  -0.071  0.00  0.00    +0.001 A 
ATOM      8  C   UNL     1       1.813  -1.775  -0.153  0.00  0.00    +0.015 A 
ATOM      9  C   UNL     1       1.552  -0.414   0.007  0.00  0.00    +0.065 A 
ATOM     10  C   UNL     1       0.190   0.129  -0.073  0.00  0.00    +0.263 A 
ATOM     11  O   UNL     1      -0.767  -0.594  -0.282  0.00  0.00    -0.267 OA
ATOM     12  N   UNL     1       0.039   1.463   0.095  0.00  0.00    -0.282 N 
BRANCH  12  13
ATOM     13  C   UNL     1      -1.298   2.059   0.019  0.00  0.00    +0.115 C 
ATOM     14  C   UNL     1      -1.970   1.640  -1.290  0.00  0.00    +0.033 C 
BRANCH  13  15
ATOM     15  C   UNL     1      -2.139   1.576   1.202  0.00  0.00    +0.184 C 
BRANCH  15  16
ATOM     16  O   UNL     1      -2.374   0.172   1.078  0.00  0.00    -0.381 OA
ATOM     17  C   UNL     1      -3.155  -0.382   2.139  0.00  0.00    +0.194 C 
ENDBRANCH  15  16
ENDBRANCH  13  15
ENDBRANCH  12  13
ENDBRANCH   1   2
BRANCH   1  18
ATOM     18  C   UNL     1       2.573   4.530   0.810  0.00  0.00    +0.173 C 
BRANCH  18  23
ATOM     19  N   UNL     1       4.967   8.613   1.650  0.00  0.00    -0.296 N 
ATOM     20  C   UNL     1       3.795   7.985   1.429  0.00  0.00    +0.306 C 
ATOM     21  O   UNL     1       2.760   8.621   1.400  0.00  0.00    -0.252 OA
ATOM     22  N   UNL     1       3.771   6.651   1.241  0.00  0.00    -0.239 N 
ATOM     23  C   UNL     1       2.599   6.022   1.020  0.00  0.00    +0.231 C 
ATOM     24  O   UNL     1       1.567   6.657   0.991  0.00  0.00    -0.274 OA
ATOM     25  H   UNL     1       5.793   8.105   1.674  0.00  0.00    +0.151 HD
ATOM     26  H   UNL     1       4.597   6.143   1.265  0.00  0.00    +0.159 HD
BRANCH  19  33
ATOM     27  C   UNL     1       6.646  10.296  -0.004  0.00  0.00    +0.009 C 
ATOM     28  C   UNL     1       6.369  10.609   1.468  0.00  0.00    +0.006 C 
ATOM     29  C   UNL     1       6.396  12.123   1.681  0.00  0.00    +0.005 C 
ATOM     30  C   UNL     1       6.119  12.436   3.153  0.00  0.00    +0.000 C 
ATOM     31  C   UNL     1       4.743  11.891   3.540  0.00  0.00    +0.002 C 
ATOM     32  C   UNL     1       4.716  10.376   3.326  0.00  0.00    +0.022 C 
ATOM     33  C   UNL     1       4.993  10.064   1.855  0.00  0.00    +0.077 C 
ENDBRANCH  19  33
ENDBRANCH  18  23
ENDBRANCH   1  18
TORSDOF 7
