REMARK  Name = ZINC09664474
REMARK  7 active torsions:
REMARK  status: ('A' for Active; 'I' for Inactive)
REMARK    1  A    between atoms: C_6  and  C_7
REMARK    2  A    between atoms: C_10  and  S_19
REMARK    3  A    between atoms: N_11  and  C_12
REMARK    4  A    between atoms: C_12  and  C_13
REMARK    5  A    between atoms: S_19  and  C_20
REMARK    6  A    between atoms: C_20  and  C_21
REMARK    7  A    between atoms: N_27  and  C_28
REMARK                            x       y       z     vdW  Elec       q    Type
REMARK                         _______ _______ _______ _____ _____    ______ ____
ROOT
ATOM      1  S   UNL     1       4.862  -0.949  -0.861  0.00  0.00    -0.078 S 
ENDROOT
BRANCH   1   5
ATOM      2  C   UNL     1       7.126  -3.594  -2.635  0.00  0.00    +0.165 A 
ATOM      3  N   UNL     1       7.765  -3.376  -1.510  0.00  0.00    -0.128 NA
ATOM      4  N   UNL     1       7.132  -2.506  -0.807  0.00  0.00    -0.122 NA
ATOM      5  C   UNL     1       6.044  -2.122  -1.437  0.00  0.00    +0.192 A 
ATOM      6  N   UNL     1       6.004  -2.797  -2.623  0.00  0.00    -0.300 N 
BRANCH   2  12
ATOM      7  C   UNL     1       8.456  -5.536  -3.451  0.00  0.00    +0.014 A 
ATOM      8  C   UNL     1       8.831  -6.399  -4.460  0.00  0.00    +0.039 A 
ATOM      9  C   UNL     1       8.302  -6.254  -5.732  0.00  0.00    +0.123 A 
ATOM     10  C   UNL     1       7.391  -5.244  -5.998  0.00  0.00    +0.039 A 
ATOM     11  C   UNL     1       7.006  -4.378  -4.997  0.00  0.00    +0.014 A 
ATOM     12  C   UNL     1       7.535  -4.520  -3.713  0.00  0.00    +0.019 A 
ATOM     13  F   UNL     1       8.677  -7.099  -6.717  0.00  0.00    -0.205 F 
ENDBRANCH   2  12
BRANCH   6  14
ATOM     14  C   UNL     1       4.980  -2.695  -3.666  0.00  0.00    +0.157 C 
BRANCH  14  15
ATOM     15  C   UNL     1       5.281  -1.490  -4.559  0.00  0.00    +0.138 C 
ATOM     16  C   UNL     1       4.231  -1.398  -5.687  0.00  0.00    +0.035 C 
ATOM     17  C   UNL     1       5.092  -0.969  -6.906  0.00  0.00    +0.031 C 
ATOM     18  C   UNL     1       6.419  -1.708  -6.603  0.00  0.00    +0.160 C 
ATOM     19  O   UNL     1       6.564  -1.650  -5.176  0.00  0.00    -0.375 OA
ENDBRANCH  14  15
ENDBRANCH   6  14
ENDBRANCH   1   5
BRANCH   1  20
ATOM     20  C   UNL     1       5.598  -0.519   0.736  0.00  0.00    +0.153 C 
BRANCH  20  21
ATOM     21  C   UNL     1       4.732   0.501   1.429  0.00  0.00    +0.146 A 
ATOM     22  N   UNL     1       4.947   1.790   1.233  0.00  0.00    -0.199 NA
ATOM     23  C   UNL     1       4.185   2.695   1.844  0.00  0.00    +0.217 A 
ATOM     24  N   UNL     1       3.207   2.300   2.652  0.00  0.00    -0.181 NA
ATOM     25  C   UNL     1       2.994   1.003   2.846  0.00  0.00    +0.224 A 
ATOM     26  N   UNL     1       3.760   0.104   2.232  0.00  0.00    -0.198 NA
ATOM     27  N   UNL     1       1.979   0.588   3.686  0.00  0.00    -0.284 N 
ATOM     28  N   UNL     1       4.411   4.040   1.638  0.00  0.00    -0.327 N 
ATOM     29  H   UNL     1       1.789  -0.358   3.786  0.00  0.00    +0.155 HD
ATOM     30  H   UNL     1       3.855   4.699   2.083  0.00  0.00    +0.145 HD
ATOM     31  H   UNL     1       5.125   4.328   1.048  0.00  0.00    +0.145 HD
BRANCH  27  32
ATOM     32  C   UNL     1       1.224   1.531   4.391  0.00  0.00    +0.034 A 
ATOM     33  C   UNL     1       1.819   2.703   4.840  0.00  0.00    +0.026 A 
ATOM     34  C   UNL     1       1.071   3.635   5.532  0.00  0.00    +0.040 A 
ATOM     35  C   UNL     1      -0.269   3.398   5.787  0.00  0.00    +0.124 A 
ATOM     36  C   UNL     1      -0.863   2.228   5.346  0.00  0.00    +0.040 A 
ATOM     37  C   UNL     1      -0.120   1.295   4.649  0.00  0.00    +0.026 A 
ATOM     38  F   UNL     1      -0.998   4.309   6.468  0.00  0.00    -0.205 F 
ENDBRANCH  27  32
ENDBRANCH  20  21
ENDBRANCH   1  20
TORSDOF 7
