REMARK  Name = ZINC45724193
REMARK  8 active torsions:
REMARK  status: ('A' for Active; 'I' for Inactive)
REMARK    1  A    between atoms: C_1  and  C_2
REMARK    2  A    between atoms: C_2  and  C_3
REMARK    3  A    between atoms: C_2  and  C_4
REMARK    4  A    between atoms: C_2  and  C_5
REMARK    5  A    between atoms: C_11  and  N_13
REMARK    6  A    between atoms: N_16  and  C_17
REMARK    7  A    between atoms: C_22  and  C_23
REMARK    8  A    between atoms: C_23  and  C_24
REMARK                            x       y       z     vdW  Elec       q    Type
REMARK                         _______ _______ _______ _____ _____    ______ ____
ROOT
ATOM      1  N   UNL     1       2.147   1.390  -1.297  0.00  0.00    -0.296 N 
ATOM      2  C   UNL     1       3.310   1.978  -0.952  0.00  0.00    +0.304 C 
ATOM      3  O   UNL     1       4.273   1.296  -0.661  0.00  0.00    -0.253 OA
ATOM      4  N   UNL     1       3.405   3.322  -0.929  0.00  0.00    -0.269 N 
ATOM      5  H   UNL     1       1.379   1.935  -1.529  0.00  0.00    +0.151 HD
ATOM      6  H   UNL     1       2.661   3.866  -1.234  0.00  0.00    +0.156 HD
ENDROOT
BRANCH   1  12
ATOM      7  C   UNL     1       0.588  -0.483  -1.098  0.00  0.00    +0.015 C 
ATOM      8  C   UNL     1       0.480  -2.009  -1.123  0.00  0.00    +0.006 C 
ATOM      9  C   UNL     1       0.956  -2.532  -2.480  0.00  0.00    +0.000 C 
ATOM     10  C   UNL     1       2.413  -2.119  -2.703  0.00  0.00    +0.002 C 
ATOM     11  C   UNL     1       2.520  -0.593  -2.678  0.00  0.00    +0.022 C 
ATOM     12  C   UNL     1       2.044  -0.071  -1.321  0.00  0.00    +0.078 C 
BRANCH   7  14
ATOM     13  C   UNL     1       0.079   1.569   0.234  0.00  0.00    +0.011 C 
ATOM     14  C   UNL     1       0.112   0.039   0.259  0.00  0.00    -0.033 C 
ATOM     15  C   UNL     1       1.072  -0.433   1.353  0.00  0.00    +0.011 C 
ATOM     16  C   UNL     1      -1.292  -0.496   0.547  0.00  0.00    +0.011 C 
ENDBRANCH   7  14
ENDBRANCH   1  12
BRANCH   4  17
ATOM     17  C   UNL     1       4.575   3.934  -0.467  0.00  0.00    +0.038 A 
ATOM     18  C   UNL     1       5.424   3.250   0.394  0.00  0.00    +0.023 A 
ATOM     19  C   UNL     1       6.578   3.856   0.849  0.00  0.00    +0.002 A 
ATOM     20  C   UNL     1       6.890   5.143   0.448  0.00  0.00    +0.000 A 
ATOM     21  C   UNL     1       6.047   5.826  -0.408  0.00  0.00    +0.006 A 
ATOM     22  C   UNL     1       4.894   5.223  -0.872  0.00  0.00    -0.017 A 
BRANCH  22  23
ATOM     23  C   UNL     1       3.978   5.967  -1.810  0.00  0.00    +0.132 C 
BRANCH  23  24
ATOM     24  C   UNL     1       2.887   6.640  -1.019  0.00  0.00    +0.215 C 
ATOM     25  O   UNL     1       2.855   6.527   0.188  0.00  0.00    -0.276 OA
ATOM     26  N   UNL     1       1.946   7.367  -1.653  0.00  0.00    -0.329 N 
ATOM     27  H   UNL     1       1.971   7.458  -2.618  0.00  0.00    +0.145 HD
ATOM     28  H   UNL     1       1.243   7.801  -1.144  0.00  0.00    +0.145 HD
ENDBRANCH  23  24
ENDBRANCH  22  23
ENDBRANCH   4  17
TORSDOF 5
