REMARK  Name = ZINC03339280
REMARK  8 active torsions:
REMARK  status: ('A' for Active; 'I' for Inactive)
REMARK    1  A    between atoms: C_1  and  C_2
REMARK    2  A    between atoms: C_5  and  O_24
REMARK    3  A    between atoms: C_6  and  N_8
REMARK    4  A    between atoms: N_8  and  C_9
REMARK    5  A    between atoms: C_9  and  C_11
REMARK    6  A    between atoms: C_9  and  C_12
REMARK    7  A    between atoms: N_17  and  C_18
REMARK    8  A    between atoms: O_24  and  C_25
REMARK                            x       y       z     vdW  Elec       q    Type
REMARK                         _______ _______ _______ _____ _____    ______ ____
ROOT
ATOM      1  C   UNL     1       0.665  -2.931   4.742  0.00  0.00    +0.240 C 
ATOM      2  O   UNL     1       1.069  -4.042   4.469  0.00  0.00    -0.273 OA
ATOM      3  N   UNL     1       0.769  -2.468   6.003  0.00  0.00    -0.239 N 
ATOM      4  C   UNL     1       1.321  -3.239   6.961  0.00  0.00    +0.306 C 
ATOM      5  O   UNL     1       1.725  -4.352   6.687  0.00  0.00    -0.252 OA
ATOM      6  N   UNL     1       1.425  -2.776   8.222  0.00  0.00    -0.296 N 
ATOM      7  H   UNL     1       0.446  -1.580   6.222  0.00  0.00    +0.159 HD
ATOM      8  H   UNL     1       1.102  -1.888   8.441  0.00  0.00    +0.151 HD
ENDROOT
BRANCH   6   9
ATOM      9  C   UNL     1       2.025  -3.614   9.263  0.00  0.00    +0.074 C 
ATOM     10  C   UNL     1       0.959  -4.543   9.848  0.00  0.00    +0.022 C 
ATOM     11  C   UNL     1       1.585  -5.418  10.935  0.00  0.00    +0.002 C 
ATOM     12  C   UNL     1       2.150  -4.528  12.044  0.00  0.00    +0.000 C 
ATOM     13  C   UNL     1       3.216  -3.600  11.460  0.00  0.00    +0.002 C 
ATOM     14  C   UNL     1       2.589  -2.724  10.372  0.00  0.00    +0.022 C 
ENDBRANCH   6   9
BRANCH   1  15
ATOM     15  C   UNL     1       0.048  -2.069   3.671  0.00  0.00    +0.154 C 
ATOM     16  C   UNL     1      -1.392  -1.727   4.059  0.00  0.00    +0.038 C 
BRANCH  15  17
ATOM     17  N   UNL     1       0.052  -2.794   2.398  0.00  0.00    -0.330 N 
ATOM     18  H   UNL     1       0.065  -3.764   2.392  0.00  0.00    +0.147 HD
BRANCH  17  24
ATOM     19  C   UNL     1      -0.018   1.503   0.010  0.00  0.00    +0.044 C 
ATOM     20  C   UNL     1       0.002  -0.004   0.002  0.00  0.00    -0.048 A 
ATOM     21  C   UNL     1       0.006  -0.687  -1.200  0.00  0.00    +0.007 A 
ATOM     22  C   UNL     1       0.025  -2.070  -1.214  0.00  0.00    +0.048 A 
ATOM     23  C   UNL     1       0.041  -2.775  -0.022  0.00  0.00    +0.141 A 
ATOM     24  C   UNL     1       0.037  -2.087   1.190  0.00  0.00    +0.070 A 
ATOM     25  C   UNL     1       0.023  -0.700   1.196  0.00  0.00    +0.030 A 
BRANCH  23  26
ATOM     26  O   UNL     1       0.059  -4.134  -0.034  0.00  0.00    -0.493 OA
ATOM     27  C   UNL     1       0.061  -4.772  -1.313  0.00  0.00    +0.277 C 
ENDBRANCH  23  26
ENDBRANCH  17  24
ENDBRANCH  15  17
ENDBRANCH   1  15
TORSDOF 5
