REMARK  Name = ZINC45681696
REMARK  8 active torsions:
REMARK  status: ('A' for Active; 'I' for Inactive)
REMARK    1  A    between atoms: C_1  and  C_2
REMARK    2  A    between atoms: C_2  and  C_4
REMARK    3  A    between atoms: C_2  and  N_10
REMARK    4  A    between atoms: N_6  and  C_7
REMARK    5  A    between atoms: N_13  and  C_16
REMARK    6  A    between atoms: C_16  and  C_17
REMARK    7  A    between atoms: N_19  and  C_20
REMARK    8  A    between atoms: C_20  and  C_25
REMARK                            x       y       z     vdW  Elec       q    Type
REMARK                         _______ _______ _______ _____ _____    ______ ____
ROOT
ATOM      1  C   UNL     1      -3.137  -5.827  -1.009  0.00  0.00    +0.228 C 
ATOM      2  O   UNL     1      -1.946  -5.689  -1.191  0.00  0.00    -0.274 OA
ATOM      3  N   UNL     1      -3.680  -7.061  -1.002  0.00  0.00    -0.305 N 
ATOM      4  H   UNL     1      -4.641  -7.168  -0.932  0.00  0.00    +0.150 HD
ENDROOT
BRANCH   3   5
ATOM      5  C   UNL     1      -2.817  -8.241  -1.098  0.00  0.00    +0.060 C 
ATOM      6  C   UNL     1      -3.677  -9.519  -1.183  0.00  0.00    +0.030 C 
ATOM      7  C   UNL     1      -3.782  -9.806  -2.702  0.00  0.00    +0.002 C 
ATOM      8  C   UNL     1      -2.373  -9.427  -3.220  0.00  0.00    +0.002 C 
ATOM      9  C   UNL     1      -1.988  -8.183  -2.393  0.00  0.00    +0.030 C 
BRANCH   5  10
ATOM     10  C   UNL     1      -1.903  -8.311   0.098  0.00  0.00    -0.020 A 
ATOM     11  C   UNL     1      -0.713  -9.010   0.016  0.00  0.00    +0.009 A 
ATOM     12  C   UNL     1       0.128  -9.077   1.111  0.00  0.00    +0.050 A 
ATOM     13  C   UNL     1      -0.221  -8.444   2.295  0.00  0.00    +0.162 A 
ATOM     14  C   UNL     1      -1.416  -7.740   2.376  0.00  0.00    +0.162 A 
ATOM     15  C   UNL     1      -2.253  -7.672   1.272  0.00  0.00    +0.055 A 
ATOM     16  O   UNL     1      -1.774  -7.105   3.525  0.00  0.00    -0.485 OA
ATOM     17  C   UNL     1      -1.089  -7.500   4.719  0.00  0.00    +0.270 C 
ATOM     18  C   UNL     1       0.413  -7.566   4.412  0.00  0.00    +0.270 C 
ATOM     19  O   UNL     1       0.615  -8.523   3.366  0.00  0.00    -0.485 OA
ENDBRANCH   5  10
ENDBRANCH   3   5
BRANCH   1  20
ATOM     20  C   UNL     1      -4.011  -4.619  -0.791  0.00  0.00    +0.180 C 
BRANCH  20  24
ATOM     21  N   UNL     1      -2.218  -0.909   0.156  0.00  0.00    +0.389 N 
ATOM     22  C   UNL     1      -3.137  -0.960  -0.989  0.00  0.00    -0.062 C 
ATOM     23  C   UNL     1      -4.029  -2.198  -0.873  0.00  0.00    +0.066 C 
ATOM     24  N   UNL     1      -3.188  -3.403  -0.844  0.00  0.00    -0.298 NA
ATOM     25  C   UNL     1      -2.245  -3.355   0.283  0.00  0.00    +0.066 C 
ATOM     26  C   UNL     1      -1.368  -2.107   0.158  0.00  0.00    -0.062 C 
ATOM     27  H   UNL     1      -2.751  -0.874   1.013  0.00  0.00    -0.081 HD
BRANCH  21  29
ATOM     28  C   UNL     1      -2.259   1.538   0.066  0.00  0.00    -0.004 C 
ATOM     29  C   UNL     1      -1.375   0.289   0.054  0.00  0.00    +0.016 C 
BRANCH  29  30
ATOM     30  C   UNL     1      -0.424   0.335   1.223  0.00  0.00    +0.199 C 
ATOM     31  O   UNL     1      -0.720  -0.207   2.266  0.00  0.00    -0.278 OA
ATOM     32  N   UNL     1       0.754   0.980   1.108  0.00  0.00    -0.314 N 
ATOM     33  H   UNL     1       0.990   1.414   0.273  0.00  0.00    +0.149 HD
BRANCH  32  34
ATOM     34  C   UNL     1       1.678   1.025   2.244  0.00  0.00    +0.073 C 
ATOM     35  C   UNL     1       2.353   2.362   2.553  0.00  0.00    +0.024 C 
ATOM     36  C   UNL     1       3.164   1.219   1.938  0.00  0.00    +0.024 C 
ENDBRANCH  32  34
ENDBRANCH  29  30
ENDBRANCH  21  29
ENDBRANCH  20  24
ENDBRANCH   1  20
TORSDOF 7
