REMARK  Name = ZINC39659610
REMARK  6 active torsions:
REMARK  status: ('A' for Active; 'I' for Inactive)
REMARK    1  A    between atoms: C_1  and  C_2
REMARK    2  A    between atoms: C_2  and  C_34
REMARK    3  A    between atoms: C_5  and  C_8
REMARK    4  A    between atoms: C_8  and  N_9
REMARK    5  A    between atoms: C_10  and  C_12
REMARK    6  A    between atoms: C_23  and  C_25
REMARK                            x       y       z     vdW  Elec       q    Type
REMARK                         _______ _______ _______ _____ _____    ______ ____
ROOT
ATOM      1  C   UNL     1       3.764  -2.634   5.360  0.00  0.00    +0.100 C 
ATOM      2  C   UNL     1       2.620  -1.792   5.971  0.00  0.00    +0.121 C 
ATOM      3  N   UNL     1       3.031  -1.567   7.377  0.00  0.00    -0.296 N 
ATOM      4  C   UNL     1       4.492  -1.329   7.300  0.00  0.00    +0.115 C 
ATOM      5  C   UNL     1       4.990  -2.326   6.235  0.00  0.00    -0.004 C 
ATOM      6  C   UNL     1       6.093  -1.691   5.394  0.00  0.00    -0.010 C 
ATOM      7  C   UNL     1       7.324  -1.448   6.273  0.00  0.00    -0.082 C 
ATOM      8  N   UNL     1       7.784  -2.723   6.837  0.00  0.00    +0.379 N 
ATOM      9  C   UNL     1       6.751  -3.281   7.719  0.00  0.00    -0.082 C 
ATOM     10  C   UNL     1       5.497  -3.602   6.902  0.00  0.00    -0.010 C 
ATOM     11  C   UNL     1       2.252  -1.576   8.476  0.00  0.00    +0.248 C 
ATOM     12  O   UNL     1       2.723  -1.279   9.558  0.00  0.00    -0.270 OA
ATOM     13  H   UNL     1       7.971  -3.373   6.088  0.00  0.00    -0.086 HD
ATOM     14  H   UNL     1       8.629  -2.570   7.366  0.00  0.00    -0.086 HD
ENDROOT
BRANCH  11  15
ATOM     15  C   UNL     1       0.834  -1.944   8.369  0.00  0.00    +0.052 A 
ATOM     16  C   UNL     1       0.108  -1.621   7.266  0.00  0.00    +0.059 A 
ATOM     17  S   UNL     1      -1.431  -2.219   7.556  0.00  0.00    -0.096 S 
ATOM     18  C   UNL     1      -1.195  -2.932   9.161  0.00  0.00    +0.020 A 
ATOM     19  C   UNL     1       0.160  -2.675   9.444  0.00  0.00    +0.001 A 
ATOM     20  C   UNL     1       0.660  -3.135  10.677  0.00  0.00    +0.010 A 
ATOM     21  C   UNL     1      -0.158  -3.810  11.550  0.00  0.00    +0.001 A 
ATOM     22  C   UNL     1      -1.489  -4.054  11.244  0.00  0.00    +0.001 A 
ATOM     23  C   UNL     1      -2.009  -3.605  10.046  0.00  0.00    +0.015 A 
ENDBRANCH  11  15
BRANCH   1  25
ATOM     24  N   UNL     1       4.501  -3.110   3.048  0.00  0.00    -0.312 N 
ATOM     25  C   UNL     1       4.018  -2.217   3.935  0.00  0.00    +0.218 C 
ATOM     26  O   UNL     1       3.788  -1.078   3.585  0.00  0.00    -0.275 OA
ATOM     27  H   UNL     1       4.684  -4.020   3.327  0.00  0.00    +0.149 HD
BRANCH  24  28
ATOM     28  C   UNL     1       4.748  -2.705   1.662  0.00  0.00    +0.138 C 
BRANCH  28  33
ATOM     29  C   UNL     1       3.153  -5.070  -1.497  0.00  0.00    +0.074 C 
ATOM     30  C   UNL     1       4.415  -5.370  -0.687  0.00  0.00    +0.165 C 
ATOM     31  O   UNL     1       5.544  -4.715  -1.291  0.00  0.00    -0.347 OA
ATOM     32  C   UNL     1       5.680  -3.469  -0.566  0.00  0.00    +0.196 C 
ATOM     33  C   UNL     1       5.290  -3.897   0.871  0.00  0.00    +0.164 C 
ATOM     34  O   UNL     1       4.258  -4.879   0.650  0.00  0.00    -0.342 OA
ATOM     35  C   UNL     1       4.659  -6.880  -0.654  0.00  0.00    +0.074 C 
ENDBRANCH  28  33
ENDBRANCH  24  28
ENDBRANCH   1  25
TORSDOF 4
