REMARK  Name = ZINC39672761
REMARK  9 active torsions:
REMARK  status: ('A' for Active; 'I' for Inactive)
REMARK    1  A    between atoms: C_1  and  O_2
REMARK    2  A    between atoms: O_2  and  C_3
REMARK    3  A    between atoms: C_5  and  C_11
REMARK    4  A    between atoms: C_7  and  O_9
REMARK    5  A    between atoms: O_9  and  C_10
REMARK    6  A    between atoms: C_15  and  C_24
REMARK    7  A    between atoms: N_26  and  C_27
REMARK    8  A    between atoms: C_27  and  C_28
REMARK    9  A    between atoms: C_28  and  N_34
REMARK                            x       y       z     vdW  Elec       q    Type
REMARK                         _______ _______ _______ _____ _____    ______ ____
ROOT
ATOM      1  C   UNL     1      -2.454  -4.629  -0.007  0.00  0.00    +0.247 C 
ATOM      2  O   UNL     1      -1.478  -5.351  -0.068  0.00  0.00    -0.270 OA
ATOM      3  N   UNL     1      -3.683  -5.167   0.127  0.00  0.00    -0.296 N 
ATOM      4  C   UNL     1      -4.988  -4.467   0.100  0.00  0.00    +0.121 C 
ATOM      5  C   UNL     1      -5.924  -5.414  -0.683  0.00  0.00    +0.100 C 
ATOM      6  C   UNL     1      -5.293  -6.808  -0.525  0.00  0.00    -0.004 C 
ATOM      7  C   UNL     1      -4.033  -6.594   0.326  0.00  0.00    +0.115 C 
ATOM      8  C   UNL     1      -4.909  -7.372  -1.890  0.00  0.00    -0.010 C 
ATOM      9  C   UNL     1      -4.337  -8.781  -1.712  0.00  0.00    -0.082 C 
ATOM     10  N   UNL     1      -5.338  -9.640  -1.069  0.00  0.00    +0.379 N 
ATOM     11  C   UNL     1      -5.632  -9.143   0.280  0.00  0.00    -0.082 C 
ATOM     12  C   UNL     1      -6.260  -7.749   0.187  0.00  0.00    -0.010 C 
ATOM     13  H   UNL     1      -6.184  -9.639  -1.619  0.00  0.00    -0.086 HD
ATOM     14  H   UNL     1      -4.981 -10.582  -1.008  0.00  0.00    -0.086 HD
ENDROOT
BRANCH   1  17
ATOM     15  C   UNL     1      -3.115  -0.948   0.391  0.00  0.00    +0.124 A 
ATOM     16  C   UNL     1      -3.269  -2.323   0.461  0.00  0.00    +0.059 A 
ATOM     17  C   UNL     1      -2.293  -3.161  -0.079  0.00  0.00    +0.044 A 
ATOM     18  C   UNL     1      -1.165  -2.610  -0.688  0.00  0.00    +0.059 A 
ATOM     19  C   UNL     1      -1.019  -1.234  -0.753  0.00  0.00    +0.124 A 
ATOM     20  C   UNL     1      -1.994  -0.404  -0.220  0.00  0.00    +0.091 A 
BRANCH  15  22
ATOM     21  C   UNL     1      -3.844   1.276   0.805  0.00  0.00    +0.277 C 
ATOM     22  O   UNL     1      -4.065  -0.131   0.917  0.00  0.00    -0.495 OA
ENDBRANCH  15  22
BRANCH  19  23
ATOM     23  O   UNL     1       0.080  -0.696  -1.345  0.00  0.00    -0.495 OA
ATOM     24  C   UNL     1       0.167   0.730  -1.378  0.00  0.00    +0.277 C 
ENDBRANCH  19  23
ENDBRANCH   1  17
BRANCH   5  25
ATOM     25  C   UNL     1      -7.309  -5.393  -0.090  0.00  0.00    +0.218 C 
ATOM     26  O   UNL     1      -7.465  -5.094   1.075  0.00  0.00    -0.275 OA
ATOM     27  N   UNL     1      -8.374  -5.706  -0.854  0.00  0.00    -0.313 N 
ATOM     28  H   UNL     1      -8.249  -5.945  -1.786  0.00  0.00    +0.149 HD
BRANCH  27  29
ATOM     29  C   UNL     1      -9.721  -5.685  -0.278  0.00  0.00    +0.126 C 
BRANCH  29  30
ATOM     30  C   UNL     1     -10.750  -5.955  -1.377  0.00  0.00    +0.038 C 
ATOM     31  C   UNL     1     -12.161  -5.805  -0.802  0.00  0.00    +0.024 C 
ATOM     32  C   UNL     1     -12.357  -6.807   0.337  0.00  0.00    +0.002 C 
ATOM     33  C   UNL     1     -12.172  -8.229  -0.197  0.00  0.00    +0.000 C 
ATOM     34  C   UNL     1     -10.762  -8.379  -0.771  0.00  0.00    +0.002 C 
ATOM     35  C   UNL     1     -10.566  -7.377  -1.911  0.00  0.00    +0.024 C 
BRANCH  30  36
ATOM     36  N   UNL     1     -10.562  -4.993  -2.471  0.00  0.00    -0.291 NA
ATOM     37  C   UNL     1     -10.543  -3.614  -1.962  0.00  0.00    +0.113 C 
ATOM     38  C   UNL     1     -10.286  -2.651  -3.124  0.00  0.00    +0.175 C 
ATOM     39  O   UNL     1     -11.287  -2.844  -4.127  0.00  0.00    -0.377 OA
ATOM     40  C   UNL     1     -11.333  -4.176  -4.645  0.00  0.00    +0.175 C 
ATOM     41  C   UNL     1     -11.601  -5.155  -3.499  0.00  0.00    +0.113 C 
ENDBRANCH  30  36
ENDBRANCH  29  30
ENDBRANCH  27  29
ENDBRANCH   5  25
TORSDOF 7
