REMARK  Name = ZINC39227396
REMARK  8 active torsions:
REMARK  status: ('A' for Active; 'I' for Inactive)
REMARK    1  A    between atoms: C_1  and  C_2
REMARK    2  A    between atoms: C_2  and  C_3
REMARK    3  A    between atoms: C_2  and  C_4
REMARK    4  A    between atoms: C_2  and  N_6
REMARK    5  A    between atoms: C_7  and  C_9
REMARK    6  A    between atoms: C_13  and  C_15
REMARK    7  A    between atoms: C_21  and  O_32
REMARK    8  A    between atoms: N_28  and  C_31
REMARK                            x       y       z     vdW  Elec       q    Type
REMARK                         _______ _______ _______ _____ _____    ______ ____
ROOT
ATOM      1  C   UNL     1       6.052  -0.344  -4.273  0.00  0.00    -0.017 A 
ATOM      2  C   UNL     1       6.741   0.451  -3.359  0.00  0.00    +0.012 A 
ATOM      3  C   UNL     1       8.054   0.790  -3.600  0.00  0.00    +0.046 A 
ATOM      4  C   UNL     1       8.697   0.342  -4.751  0.00  0.00    +0.127 A 
ATOM      5  C   UNL     1       8.016  -0.452  -5.658  0.00  0.00    +0.023 A 
ATOM      6  C   UNL     1       6.698  -0.797  -5.419  0.00  0.00    +0.018 A 
ATOM      7  C   UNL     1       8.683  -0.969  -6.907  0.00  0.00    +0.152 C 
ATOM      8  C   UNL     1       9.939  -0.145  -7.200  0.00  0.00    +0.084 C 
ATOM      9  C   UNL     1      10.753  -0.027  -5.907  0.00  0.00    +0.110 C 
ATOM     10  O   UNL     1       9.991   0.707  -4.952  0.00  0.00    -0.485 OA
ATOM     11  C   UNL     1      11.058  -1.425  -5.365  0.00  0.00    +0.029 C 
ATOM     12  C   UNL     1      11.940  -1.303  -4.120  0.00  0.00    -0.075 C 
ATOM     13  N   UNL     1      13.193  -0.623  -4.469  0.00  0.00    +0.378 N 
ATOM     14  C   UNL     1      12.911   0.745  -4.919  0.00  0.00    -0.075 C 
ATOM     15  C   UNL     1      12.066   0.703  -6.195  0.00  0.00    +0.029 C 
ATOM     16  C   UNL     1      14.069  -0.579  -3.291  0.00  0.00    -0.096 C 
ATOM     17  H   UNL     1      13.655  -1.131  -5.209  0.00  0.00    -0.082 HD
ENDROOT
BRANCH   1  22
ATOM     18  C   UNL     1       2.664  -0.609  -2.643  0.00  0.00    +0.037 A 
ATOM     19  C   UNL     1       1.987  -1.412  -3.565  0.00  0.00    +0.013 A 
ATOM     20  C   UNL     1       2.633  -1.857  -4.700  0.00  0.00    +0.001 A 
ATOM     21  C   UNL     1       3.950  -1.512  -4.933  0.00  0.00    +0.008 A 
ATOM     22  C   UNL     1       4.637  -0.712  -4.021  0.00  0.00    -0.017 A 
ATOM     23  C   UNL     1       3.991  -0.254  -2.877  0.00  0.00    +0.021 A 
BRANCH  18  25
ATOM     24  N   UNL     1       0.688  -0.476  -1.203  0.00  0.00    -0.296 N 
ATOM     25  C   UNL     1       1.972  -0.132  -1.427  0.00  0.00    +0.245 C 
ATOM     26  O   UNL     1       2.560   0.570  -0.629  0.00  0.00    -0.270 OA
ATOM     27  H   UNL     1       0.218  -1.037  -1.840  0.00  0.00    +0.150 HD
BRANCH  24  29
ATOM     28  C   UNL     1      -0.019   1.526   0.010  0.00  0.00    +0.045 C 
ATOM     29  C   UNL     1       0.002  -0.004   0.002  0.00  0.00    +0.090 C 
ATOM     30  C   UNL     1       0.742  -0.511   1.242  0.00  0.00    +0.045 C 
BRANCH  29  31
ATOM     31  C   UNL     1      -1.379  -0.514   0.013  0.00  0.00    -0.080 C 
ATOM     32  C   UNL     1      -2.480  -0.920   0.021  0.00  0.00    +0.006 C 
ENDBRANCH  29  31
ENDBRANCH  24  29
ENDBRANCH  18  25
ENDBRANCH   1  22
BRANCH   7  33
ATOM     33  O   UNL     1       7.778  -0.862  -8.008  0.00  0.00    -0.387 OA
ATOM     34  H   UNL     1       6.959  -1.363  -7.894  0.00  0.00    +0.210 HD
ENDBRANCH   7  33
TORSDOF 5
