REMARK  Name = ZINC19989456
REMARK  6 active torsions:
REMARK  status: ('A' for Active; 'I' for Inactive)
REMARK    1  A    between atoms: C_1  and  C_2
REMARK    2  A    between atoms: C_9  and  N_13
REMARK    3  A    between atoms: C_10  and  C_11
REMARK    4  A    between atoms: C_14  and  C_16
REMARK    5  A    between atoms: C_16  and  N_17
REMARK    6  A    between atoms: C_25  and  C_29
REMARK                            x       y       z     vdW  Elec       q    Type
REMARK                         _______ _______ _______ _____ _____    ______ ____
ROOT
ATOM      1  N   UNL     1       3.980  -3.440  -2.420  0.00  0.00    -0.278 N 
ATOM      2  C   UNL     1       3.888  -2.213  -1.871  0.00  0.00    +0.235 C 
ATOM      3  O   UNL     1       3.959  -1.227  -2.574  0.00  0.00    -0.274 OA
ATOM      4  H   UNL     1       3.916  -4.334  -1.783  0.00  0.00    +0.155 HD
ENDROOT
BRANCH   1  12
ATOM      5  C   UNL     1       4.869  -3.776 -10.185  0.00  0.00    +0.008 C 
ATOM      6  C   UNL     1       4.408  -4.106  -8.764  0.00  0.00    -0.009 C 
ATOM      7  C   UNL     1       5.205  -5.299  -8.229  0.00  0.00    +0.008 C 
ATOM      8  C   UNL     1       4.589  -5.791  -6.919  0.00  0.00    +0.037 C 
ATOM      9  C   UNL     1       4.448  -4.609  -5.969  0.00  0.00    -0.018 A 
ATOM     10  C   UNL     1       4.483  -3.338  -6.429  0.00  0.00    -0.004 A 
ATOM     11  S   UNL     1       4.284  -2.330  -4.988  0.00  0.00    -0.077 S 
ATOM     12  C   UNL     1       4.155  -3.576  -3.791  0.00  0.00    +0.090 A 
ATOM     13  C   UNL     1       4.276  -4.741  -4.533  0.00  0.00    +0.084 A 
ATOM     14  C   UNL     1       4.653  -2.897  -7.850  0.00  0.00    +0.046 C 
BRANCH  13  15
ATOM     15  C   UNL     1       4.228  -6.028  -3.907  0.00  0.00    +0.102 C 
ATOM     16  N   UNL     1       4.190  -7.049  -3.410  0.00  0.00    -0.191 NA
ENDBRANCH  13  15
ENDBRANCH   1  12
BRANCH   2  17
ATOM     17  C   UNL     1       3.698  -2.066  -0.383  0.00  0.00    +0.209 C 
BRANCH  17  18
ATOM     18  N   UNL     1       3.629  -0.644  -0.038  0.00  0.00    -0.256 N 
ATOM     19  C   UNL     1       2.397   0.025  -0.021  0.00  0.00    +0.079 A 
ATOM     20  C   UNL     1       1.206  -0.683  -0.014  0.00  0.00    +0.027 A 
ATOM     21  C   UNL     1       0.002  -0.004   0.002  0.00  0.00    +0.002 A 
ATOM     22  C   UNL     1      -0.017   1.379   0.010  0.00  0.00    +0.004 A 
ATOM     23  C   UNL     1       1.168   2.092   0.002  0.00  0.00    +0.047 A 
ATOM     24  C   UNL     1       2.378   1.419  -0.013  0.00  0.00    +0.143 A 
ATOM     25  O   UNL     1       3.552   2.104  -0.020  0.00  0.00    -0.478 OA
ATOM     26  C   UNL     1       4.655   1.496   0.658  0.00  0.00    +0.256 C 
ATOM     27  C   UNL     1       4.751   0.043   0.269  0.00  0.00    +0.261 C 
ATOM     28  O   UNL     1       5.831  -0.507   0.231  0.00  0.00    -0.271 OA
ATOM     29  C   UNL     1       4.446   1.606   2.170  0.00  0.00    +0.062 C 
ENDBRANCH  17  18
ENDBRANCH   2  17
TORSDOF 4
