REMARK  Name = ZINC39665407
REMARK  12 active torsions:
REMARK  status: ('A' for Active; 'I' for Inactive)
REMARK    1  A    between atoms: C_1  and  C_2
REMARK    2  A    between atoms: C_2  and  C_4
REMARK    3  A    between atoms: C_2  and  O_33
REMARK    4  A    between atoms: C_4  and  N_5
REMARK    5  A    between atoms: C_6  and  C_8
REMARK    6  A    between atoms: C_19  and  C_21
REMARK    7  A    between atoms: C_21  and  C_23
REMARK    8  A    between atoms: C_21  and  O_26
REMARK    9  A    between atoms: C_23  and  C_24
REMARK   10  A    between atoms: C_23  and  C_25
REMARK   11  A    between atoms: O_26  and  C_27
REMARK   12  A    between atoms: O_33  and  C_34
REMARK                            x       y       z     vdW  Elec       q    Type
REMARK                         _______ _______ _______ _____ _____    ______ ____
ROOT
ATOM      1  C   UNL     1      -3.219  -1.583  -1.986  0.00  0.00    +0.100 C 
ATOM      2  C   UNL     1      -2.213  -1.902  -0.857  0.00  0.00    +0.121 C 
ATOM      3  N   UNL     1      -3.053  -2.370   0.270  0.00  0.00    -0.297 N 
ATOM      4  C   UNL     1      -4.104  -3.196  -0.371  0.00  0.00    +0.115 C 
ATOM      5  C   UNL     1      -4.457  -2.436  -1.665  0.00  0.00    -0.004 C 
ATOM      6  C   UNL     1      -4.728  -3.421  -2.799  0.00  0.00    -0.010 C 
ATOM      7  C   UNL     1      -5.997  -4.218  -2.484  0.00  0.00    -0.082 C 
ATOM      8  N   UNL     1      -7.129  -3.297  -2.328  0.00  0.00    +0.379 N 
ATOM      9  C   UNL     1      -6.902  -2.414  -1.178  0.00  0.00    -0.082 C 
ATOM     10  C   UNL     1      -5.671  -1.541  -1.437  0.00  0.00    -0.010 C 
ATOM     11  C   UNL     1      -2.896  -2.107   1.583  0.00  0.00    +0.257 C 
ATOM     12  O   UNL     1      -2.031  -1.339   1.947  0.00  0.00    -0.272 OA
ATOM     13  H   UNL     1      -7.226  -2.740  -3.164  0.00  0.00    -0.086 HD
ATOM     14  H   UNL     1      -7.975  -3.828  -2.182  0.00  0.00    -0.086 HD
ENDROOT
BRANCH   1  16
ATOM     15  N   UNL     1      -4.006   0.480  -3.102  0.00  0.00    -0.312 N 
ATOM     16  C   UNL     1      -3.574  -0.118  -1.974  0.00  0.00    +0.218 C 
ATOM     17  O   UNL     1      -3.470   0.522  -0.949  0.00  0.00    -0.275 OA
ATOM     18  H   UNL     1      -4.088  -0.032  -3.921  0.00  0.00    +0.149 HD
BRANCH  15  19
ATOM     19  C   UNL     1      -4.351   1.904  -3.089  0.00  0.00    +0.148 C 
BRANCH  19  21
ATOM     20  C   UNL     1      -5.169   3.817  -4.473  0.00  0.00    +0.053 C 
ATOM     21  C   UNL     1      -4.809   2.330  -4.486  0.00  0.00    +0.187 C 
BRANCH  21  22
ATOM     22  O   UNL     1      -3.754   2.103  -5.423  0.00  0.00    -0.488 OA
BRANCH  22  23
ATOM     23  C   UNL     1      -4.109   1.942  -6.724  0.00  0.00    +0.121 A 
ATOM     24  C   UNL     1      -3.150   1.610  -7.671  0.00  0.00    +0.045 A 
ATOM     25  C   UNL     1      -3.514   1.446  -8.993  0.00  0.00    +0.004 A 
ATOM     26  C   UNL     1      -4.833   1.612  -9.374  0.00  0.00    +0.000 A 
ATOM     27  C   UNL     1      -5.791   1.943  -8.433  0.00  0.00    +0.004 A 
ATOM     28  C   UNL     1      -5.433   2.102  -7.109  0.00  0.00    +0.045 A 
ENDBRANCH  22  23
ENDBRANCH  21  22
ENDBRANCH  19  21
ENDBRANCH  15  19
ENDBRANCH   1  16
BRANCH  11  29
ATOM     29  C   UNL     1      -3.794  -2.766   2.597  0.00  0.00    +0.261 C 
BRANCH  29  30
ATOM     30  C   UNL     1      -3.489  -4.264   2.652  0.00  0.00    +0.033 C 
ATOM     31  C   UNL     1      -2.062  -4.475   3.164  0.00  0.00    +0.011 C 
ATOM     32  C   UNL     1      -4.476  -4.952   3.597  0.00  0.00    +0.011 C 
ENDBRANCH  29  30
BRANCH  29  33
ATOM     33  O   UNL     1      -3.568  -2.186   3.883  0.00  0.00    -0.479 OA
BRANCH  33  34
ATOM     34  C   UNL     1      -4.654  -2.010   4.681  0.00  0.00    +0.122 A 
ATOM     35  C   UNL     1      -4.513  -1.409   5.923  0.00  0.00    +0.045 A 
ATOM     36  C   UNL     1      -5.619  -1.232   6.732  0.00  0.00    +0.004 A 
ATOM     37  C   UNL     1      -6.864  -1.653   6.305  0.00  0.00    +0.000 A 
ATOM     38  C   UNL     1      -7.007  -2.253   5.068  0.00  0.00    +0.004 A 
ATOM     39  C   UNL     1      -5.905  -2.427   4.252  0.00  0.00    +0.045 A 
ENDBRANCH  33  34
ENDBRANCH  29  33
ENDBRANCH  11  29
TORSDOF 9
