REMARK  Name = ZINC06283263
REMARK  10 active torsions:
REMARK  status: ('A' for Active; 'I' for Inactive)
REMARK    1  A    between atoms: C_1  and  C_2
REMARK    2  A    between atoms: C_8  and  C_10
REMARK    3  A    between atoms: C_8  and  C_24
REMARK    4  A    between atoms: C_8  and  N_65
REMARK    5  A    between atoms: C_14  and  O_22
REMARK    6  A    between atoms: O_22  and  C_23
REMARK    7  A    between atoms: N_28  and  C_29
REMARK    8  A    between atoms: C_29  and  C_30
REMARK    9  A    between atoms: C_33  and  O_36
REMARK   10  A    between atoms: O_36  and  C_37
REMARK                            x       y       z     vdW  Elec       q    Type
REMARK                         _______ _______ _______ _____ _____    ______ ____
ROOT
ATOM      1  C   UNL     1      -0.168   0.955  -1.872  0.00  0.00    +0.039 C 
ENDROOT
BRANCH   1   2
ATOM      2  C   UNL     1       0.952   1.888  -1.489  0.00  0.00    +0.011 A 
ATOM      3  C   UNL     1       2.240   1.484  -1.615  0.00  0.00    +0.017 A 
ATOM      4  C   UNL     1       3.306   2.414  -1.238  0.00  0.00    +0.002 A 
ATOM      5  C   UNL     1       4.653   2.054  -1.352  0.00  0.00    +0.055 A 
ATOM      6  C   UNL     1       5.632   2.954  -0.984  0.00  0.00    +0.121 A 
ATOM      7  C   UNL     1       5.284   4.214  -0.502  0.00  0.00    +0.047 A 
ATOM      8  C   UNL     1       3.962   4.580  -0.386  0.00  0.00    +0.030 A 
ATOM      9  C   UNL     1       2.959   3.688  -0.751  0.00  0.00    +0.049 A 
ATOM     10  N   UNL     1       1.628   4.036  -0.642  0.00  0.00    -0.322 N 
ATOM     11  H   UNL     1       1.389   4.915  -0.306  0.00  0.00    +0.169 HD
ATOM     12  C   UNL     1       0.657   3.176  -0.995  0.00  0.00    +0.251 A 
ATOM     13  O   UNL     1      -0.508   3.518  -0.885  0.00  0.00    -0.268 OA
BRANCH   6  14
ATOM     14  O   UNL     1       6.943   2.610  -1.093  0.00  0.00    -0.495 OA
ATOM     15  C   UNL     1       7.906   3.588  -0.695  0.00  0.00    +0.277 C 
ENDBRANCH   6  14
ENDBRANCH   1   2
BRANCH   1  22
ATOM     16  C   UNL     1      -4.415  -0.953  -0.285  0.00  0.00    +0.005 C 
ATOM     17  C   UNL     1      -3.197  -0.109   0.097  0.00  0.00    -0.031 C 
ATOM     18  C   UNL     1      -2.485  -0.750   1.292  0.00  0.00    -0.001 C 
ATOM     19  C   UNL     1      -1.235   0.067   1.629  0.00  0.00    -0.018 C 
ATOM     20  C   UNL     1      -0.326   0.131   0.399  0.00  0.00    -0.077 C 
ATOM     21  C   UNL     1      -2.231  -0.041  -1.089  0.00  0.00    -0.074 C 
ATOM     22  N   UNL     1      -1.061   0.779  -0.708  0.00  0.00    +0.389 N 
ATOM     23  H   UNL     1      -1.388   1.701  -0.396  0.00  0.00    -0.080 HD
ENDBRANCH   1  22
BRANCH   1  24
ATOM     24  C   UNL     1       0.406  -0.369  -2.304  0.00  0.00    +0.143 A 
ATOM     25  N   UNL     1       1.050  -1.227  -1.550  0.00  0.00    -0.115 NA
ATOM     26  N   UNL     1       1.378  -2.234  -2.284  0.00  0.00    -0.023 NA
ATOM     27  N   UNL     1       0.967  -2.037  -3.488  0.00  0.00    -0.044 NA
ATOM     28  N   UNL     1       0.363  -0.898  -3.541  0.00  0.00    -0.226 N 
BRANCH  28  29
ATOM     29  C   UNL     1      -0.255  -0.295  -4.724  0.00  0.00    +0.182 C 
BRANCH  29  30
ATOM     30  C   UNL     1       0.787   0.468  -5.501  0.00  0.00    -0.026 A 
ATOM     31  C   UNL     1       0.953   1.824  -5.285  0.00  0.00    +0.009 A 
ATOM     32  C   UNL     1       1.911   2.525  -5.992  0.00  0.00    +0.046 A 
ATOM     33  C   UNL     1       2.701   1.869  -6.926  0.00  0.00    +0.120 A 
ATOM     34  C   UNL     1       2.529   0.510  -7.144  0.00  0.00    +0.046 A 
ATOM     35  C   UNL     1       1.573  -0.187  -6.431  0.00  0.00    +0.009 A 
BRANCH  33  36
ATOM     36  O   UNL     1       3.640   2.558  -7.626  0.00  0.00    -0.495 OA
ATOM     37  C   UNL     1       3.761   3.954  -7.349  0.00  0.00    +0.277 C 
ENDBRANCH  33  36
ENDBRANCH  29  30
ENDBRANCH  28  29
ENDBRANCH   1  24
TORSDOF 7
