REMARK  Name = ZINC48406531
REMARK  7 active torsions:
REMARK  status: ('A' for Active; 'I' for Inactive)
REMARK    1  A    between atoms: C_1  and  C_2
REMARK    2  A    between atoms: C_5  and  N_9
REMARK    3  A    between atoms: N_9  and  C_10
REMARK    4  A    between atoms: C_10  and  C_12
REMARK    5  A    between atoms: C_10  and  C_13
REMARK    6  A    between atoms: N_15  and  C_16
REMARK    7  A    between atoms: C_18  and  C_21
REMARK                            x       y       z     vdW  Elec       q    Type
REMARK                         _______ _______ _______ _____ _____    ______ ____
ROOT
ATOM      1  C   UNL     1       0.076  -4.910   1.241  0.00  0.00    +0.154 C 
ATOM      2  C   UNL     1      -1.356  -5.079   1.751  0.00  0.00    +0.038 C 
ENDROOT
BRANCH   1   3
ATOM      3  C   UNL     1       0.694  -6.266   1.019  0.00  0.00    +0.239 C 
ATOM      4  O   UNL     1       1.082  -6.583  -0.085  0.00  0.00    -0.273 OA
ATOM      5  N   UNL     1       0.815  -7.128   2.049  0.00  0.00    -0.253 N 
ATOM      6  H   UNL     1       0.504  -6.874   2.932  0.00  0.00    +0.158 HD
BRANCH   5   7
ATOM      7  C   UNL     1       1.383  -8.377   1.845  0.00  0.00    +0.224 A 
ATOM      8  C   UNL     1       1.561  -9.338   2.788  0.00  0.00    +0.092 A 
ATOM      9  C   UNL     1       2.167 -10.442   2.172  0.00  0.00    +0.082 A 
ATOM     10  N   UNL     1       2.348 -10.159   0.912  0.00  0.00    -0.081 NA
ATOM     11  O   UNL     1       1.852  -8.853   0.679  0.00  0.00    -0.339 OA
ATOM     12  C   UNL     1       2.545 -11.734   2.850  0.00  0.00    +0.069 C 
ENDBRANCH   5   7
ENDBRANCH   1   3
BRANCH   1  13
ATOM     13  N   UNL     1       0.059  -4.169  -0.023  0.00  0.00    -0.333 N 
ATOM     14  H   UNL     1       0.062  -4.648  -0.867  0.00  0.00    +0.147 HD
BRANCH  13  19
ATOM     15  C   UNL     1      -0.018   1.503   0.010  0.00  0.00    +0.047 C 
ATOM     16  C   UNL     1       0.002  -0.004   0.002  0.00  0.00    -0.015 A 
ATOM     17  C   UNL     1       0.006  -0.688  -1.200  0.00  0.00    +0.008 A 
ATOM     18  C   UNL     1       0.025  -2.068  -1.211  0.00  0.00    +0.023 A 
ATOM     19  C   UNL     1       0.041  -2.772  -0.014  0.00  0.00    +0.030 A 
ATOM     20  C   UNL     1       0.037  -2.085   1.193  0.00  0.00    +0.061 A 
ATOM     21  C   UNL     1       0.023  -0.702   1.198  0.00  0.00    +0.128 A 
ATOM     22  F   UNL     1       0.024  -0.031   2.371  0.00  0.00    -0.205 F 
ENDBRANCH  13  19
ENDBRANCH   1  13
TORSDOF 4
