REMARK  Name = ZINC24338075
REMARK  17 active torsions:
REMARK  status: ('A' for Active; 'I' for Inactive)
REMARK    1  A    between atoms: C_1  and  C_2
REMARK    2  A    between atoms: C_3  and  C_30
REMARK    3  A    between atoms: C_4  and  N_11
REMARK    4  A    between atoms: C_6  and  C_7
REMARK    5  A    between atoms: C_7  and  O_9
REMARK    6  A    between atoms: O_9  and  C_10
REMARK    7  A    between atoms: C_12  and  C_14
REMARK    8  A    between atoms: C_14  and  N_15
REMARK    9  A    between atoms: N_18  and  C_21
REMARK   10  A    between atoms: C_21  and  C_22
REMARK   11  A    between atoms: N_24  and  C_25
REMARK   12  A    between atoms: C_25  and  C_26
REMARK   13  A    between atoms: C_26  and  C_27
REMARK   14  A    between atoms: C_27  and  O_28
REMARK   15  A    between atoms: O_28  and  C_29
REMARK   16  A    between atoms: C_30  and  O_32
REMARK   17  A    between atoms: O_32  and  C_33
REMARK                            x       y       z     vdW  Elec       q    Type
REMARK                         _______ _______ _______ _____ _____    ______ ____
ROOT
ATOM      1  N   UNL     1       1.217   3.800  -2.482  0.00  0.00    -0.278 N 
ATOM      2  C   UNL     1       1.240   4.665  -3.515  0.00  0.00    +0.232 C 
ATOM      3  O   UNL     1       1.288   5.858  -3.305  0.00  0.00    -0.274 OA
ATOM      4  H   UNL     1       1.173   2.717  -2.672  0.00  0.00    +0.155 HD
ENDROOT
BRANCH   1   8
ATOM      5  C   UNL     1       1.246   3.546   2.530  0.00  0.00    +0.046 C 
ATOM      6  C   UNL     1       1.266   4.253   1.199  0.00  0.00    -0.014 A 
ATOM      7  C   UNL     1       1.232   3.542   0.009  0.00  0.00    +0.091 A 
ATOM      8  C   UNL     1       1.248   4.272  -1.185  0.00  0.00    +0.087 A 
ATOM      9  S   UNL     1       1.317   5.914  -0.635  0.00  0.00    -0.066 S 
ATOM     10  C   UNL     1       1.323   5.618   1.123  0.00  0.00    +0.102 A 
BRANCH  10  11
ATOM     11  C   UNL     1       1.371   6.593   2.213  0.00  0.00    +0.346 C 
ATOM     12  O   UNL     1       1.368   6.213   3.369  0.00  0.00    -0.244 OA
BRANCH  11  13
ATOM     13  O   UNL     1       1.420   7.912   1.937  0.00  0.00    -0.464 OA
ATOM     14  C   UNL     1       1.465   8.807   3.050  0.00  0.00    +0.280 C 
ENDBRANCH  11  13
ENDBRANCH  10  11
BRANCH   7  15
ATOM     15  C   UNL     1       1.175   2.076   0.002  0.00  0.00    +0.342 C 
ATOM     16  O   UNL     1       2.204   1.428  -0.011  0.00  0.00    -0.245 OA
BRANCH  15  17
ATOM     17  O   UNL     1      -0.018   1.448   0.010  0.00  0.00    -0.464 OA
ATOM     18  C   UNL     1       0.002  -0.004   0.002  0.00  0.00    +0.280 C 
ENDBRANCH  15  17
ENDBRANCH   7  15
ENDBRANCH   1   8
BRANCH   2  19
ATOM     19  C   UNL     1       1.206   4.150  -4.931  0.00  0.00    +0.180 C 
BRANCH  19  20
ATOM     20  N   UNL     1       1.240   5.282  -5.865  0.00  0.00    -0.298 NA
ATOM     21  C   UNL     1       0.016   6.089  -5.760  0.00  0.00    +0.066 C 
ATOM     22  C   UNL     1       0.125   7.300  -6.690  0.00  0.00    -0.063 C 
ATOM     23  N   UNL     1       0.332   6.839  -8.069  0.00  0.00    +0.387 N 
ATOM     24  C   UNL     1       1.556   6.032  -8.174  0.00  0.00    -0.063 C 
ATOM     25  C   UNL     1       1.446   4.821  -7.245  0.00  0.00    +0.066 C 
ATOM     26  H   UNL     1      -0.521   6.200  -8.345  0.00  0.00    -0.081 HD
BRANCH  23  27
ATOM     27  C   UNL     1       0.366   7.971  -9.004  0.00  0.00    +0.019 C 
BRANCH  27  28
ATOM     28  C   UNL     1      -0.990   8.628  -9.048  0.00  0.00    +0.196 C 
ATOM     29  O   UNL     1      -1.896   8.194  -8.368  0.00  0.00    -0.278 OA
ATOM     30  N   UNL     1      -1.196   9.696  -9.843  0.00  0.00    -0.317 N 
ATOM     31  H   UNL     1      -0.374  10.089 -10.460  0.00  0.00    +0.149 HD
BRANCH  30  32
ATOM     32  C   UNL     1      -2.514  10.334  -9.886  0.00  0.00    +0.106 C 
BRANCH  32  33
ATOM     33  C   UNL     1      -2.478  11.514 -10.859  0.00  0.00    +0.047 C 
BRANCH  33  34
ATOM     34  C   UNL     1      -3.855  12.180 -10.904  0.00  0.00    +0.161 C 
BRANCH  34  35
ATOM     35  O   UNL     1      -3.821  13.282 -11.813  0.00  0.00    -0.383 OA
ATOM     36  C   UNL     1      -5.065  13.977 -11.930  0.00  0.00    +0.193 C 
ENDBRANCH  34  35
ENDBRANCH  33  34
ENDBRANCH  32  33
ENDBRANCH  30  32
ENDBRANCH  27  28
ENDBRANCH  23  27
ENDBRANCH  19  20
ENDBRANCH   2  19
TORSDOF 13
