REMARK  Name = ZINC36849528
REMARK  8 active torsions:
REMARK  status: ('A' for Active; 'I' for Inactive)
REMARK    1  A    between atoms: C_1  and  C_2
REMARK    2  A    between atoms: C_2  and  N_9
REMARK    3  A    between atoms: C_10  and  C_12
REMARK    4  A    between atoms: C_12  and  S_13
REMARK    5  A    between atoms: S_13  and  C_14
REMARK    6  A    between atoms: N_19  and  C_20
REMARK    7  A    between atoms: C_23  and  S_26
REMARK    8  A    between atoms: S_26  and  C_27
REMARK                            x       y       z     vdW  Elec       q    Type
REMARK                         _______ _______ _______ _____ _____    ______ ____
ROOT
ATOM      1  C   UNL     1       0.909  -1.066  -6.499  0.00  0.00    +0.160 A 
ATOM      2  N   UNL     1       2.092  -1.647  -6.438  0.00  0.00    -0.133 NA
ATOM      3  N   UNL     1       2.818  -1.845  -7.590  0.00  0.00    -0.125 NA
ATOM      4  C   UNL     1       2.328  -1.453  -8.750  0.00  0.00    +0.187 A 
ATOM      5  S   UNL     1       0.755  -0.766  -8.254  0.00  0.00    -0.024 S 
ATOM      6  N   UNL     1       2.884  -1.553 -10.020  0.00  0.00    -0.292 N 
ATOM      7  H   UNL     1       2.441  -1.139 -10.777  0.00  0.00    +0.154 HD
ENDROOT
BRANCH   6   8
ATOM      8  C   UNL     1       4.084  -2.251 -10.206  0.00  0.00    +0.033 A 
ATOM      9  C   UNL     1       4.919  -1.925 -11.267  0.00  0.00    +0.024 A 
ATOM     10  C   UNL     1       6.102  -2.613 -11.450  0.00  0.00    +0.017 A 
ATOM     11  C   UNL     1       6.457  -3.631 -10.574  0.00  0.00    +0.013 A 
ATOM     12  C   UNL     1       5.622  -3.956  -9.512  0.00  0.00    +0.017 A 
ATOM     13  C   UNL     1       4.441  -3.264  -9.326  0.00  0.00    +0.024 A 
BRANCH  11  14
ATOM     14  S   UNL     1       7.966  -4.509 -10.808  0.00  0.00    -0.056 S 
BRANCH  14  15
ATOM     15  C   UNL     1       7.991  -5.710  -9.449  0.00  0.00    +0.404 C 
ATOM     16  F   UNL     1       7.961  -5.031  -8.226  0.00  0.00    -0.197 F 
ATOM     17  F   UNL     1       6.874  -6.546  -9.545  0.00  0.00    -0.197 F 
ENDBRANCH  14  15
ENDBRANCH  11  14
ENDBRANCH   6   8
BRANCH   1  18
ATOM     18  S   UNL     1      -0.220  -0.692  -5.199  0.00  0.00    -0.088 S 
BRANCH  18  19
ATOM     19  C   UNL     1       0.619  -1.286  -3.705  0.00  0.00    +0.172 C 
BRANCH  19  21
ATOM     20  N   UNL     1       0.171  -1.384  -1.274  0.00  0.00    -0.308 N 
ATOM     21  C   UNL     1      -0.251  -1.024  -2.502  0.00  0.00    +0.224 C 
ATOM     22  O   UNL     1      -1.330  -0.489  -2.640  0.00  0.00    -0.275 OA
ATOM     23  H   UNL     1       1.034  -1.812  -1.164  0.00  0.00    +0.149 HD
BRANCH  20  25
ATOM     24  C   UNL     1      -0.936   0.375  -0.010  0.00  0.00    +0.033 C 
ATOM     25  C   UNL     1      -0.675  -1.129  -0.105  0.00  0.00    +0.052 C 
ATOM     26  C   UNL     1      -2.009  -1.846  -0.305  0.00  0.00    +0.049 C 
ATOM     27  C   UNL     1      -1.940  -3.285   0.278  0.00  0.00    +0.168 C 
ATOM     28  S   UNL     1      -0.963  -2.950   1.809  0.00  0.00    -0.029 S 
ATOM     29  O   UNL     1      -1.829  -2.442   2.814  0.00  0.00    -0.174 OA
ATOM     30  O   UNL     1      -0.139  -4.073   2.092  0.00  0.00    -0.174 OA
ATOM     31  C   UNL     1       0.082  -1.580   1.159  0.00  0.00    +0.191 C 
ENDBRANCH  20  25
ENDBRANCH  19  21
ENDBRANCH  18  19
ENDBRANCH   1  18
TORSDOF 7
