REMARK  Name = ZINC06877455
REMARK  9 active torsions:
REMARK  status: ('A' for Active; 'I' for Inactive)
REMARK    1  A    between atoms: C_1  and  C_2
REMARK    2  A    between atoms: C_2  and  C_3
REMARK    3  A    between atoms: C_8  and  N_9
REMARK    4  A    between atoms: N_12  and  C_13
REMARK    5  A    between atoms: C_13  and  C_15
REMARK    6  A    between atoms: C_13  and  C_16
REMARK    7  A    between atoms: C_20  and  N_21
REMARK    8  A    between atoms: C_29  and  C_30
REMARK    9  A    between atoms: C_29  and  N_60
REMARK                            x       y       z     vdW  Elec       q    Type
REMARK                         _______ _______ _______ _____ _____    ______ ____
ROOT
ATOM      1  C   UNL     1      -0.944  -0.519  -0.018  0.00  0.00    +0.007 A 
ATOM      2  C   UNL     1      -1.622  -0.922  -1.165  0.00  0.00    -0.034 A 
ATOM      3  C   UNL     1      -2.900  -1.363  -0.997  0.00  0.00    -0.021 A 
ATOM      4  S   UNL     1      -3.170  -1.226   0.748  0.00  0.00    -0.077 S 
ATOM      5  C   UNL     1      -1.562  -0.586   1.192  0.00  0.00    +0.090 A 
ATOM      6  C   UNL     1      -3.830  -1.843  -2.063  0.00  0.00    -0.035 C 
ATOM      7  C   UNL     1      -1.857  -1.803  -3.467  0.00  0.00    -0.074 C 
ATOM      8  C   UNL     1      -1.016  -0.896  -2.566  0.00  0.00    +0.018 C 
ATOM      9  N   UNL     1      -3.279  -1.413  -3.371  0.00  0.00    +0.383 N 
ATOM     10  H   UNL     1      -3.351  -0.392  -3.446  0.00  0.00    -0.081 HD
ENDROOT
BRANCH   5  11
ATOM     11  N   UNL     1      -1.068  -0.241   2.455  0.00  0.00    -0.317 N 
ATOM     12  C   UNL     1      -1.704  -0.455   3.644  0.00  0.00    +0.092 A 
ATOM     13  C   UNL     1      -0.913   0.008   4.634  0.00  0.00    +0.019 A 
ATOM     14  C   UNL     1       0.248   0.536   4.036  0.00  0.00    +0.019 A 
ATOM     15  C   UNL     1       0.128   0.371   2.703  0.00  0.00    +0.092 A 
ENDBRANCH   5  11
BRANCH   1  16
ATOM     16  C   UNL     1       0.474  -0.015  -0.115  0.00  0.00    +0.104 C 
ATOM     17  C   UNL     1       0.496   1.495   0.127  0.00  0.00    +0.033 C 
BRANCH  16  21
ATOM     18  N   UNL     1       3.403  -1.267   1.720  0.00  0.00    -0.269 N 
ATOM     19  C   UNL     1       2.643  -0.652   0.792  0.00  0.00    +0.304 C 
ATOM     20  O   UNL     1       3.170  -0.068  -0.135  0.00  0.00    -0.252 OA
ATOM     21  N   UNL     1       1.300  -0.684   0.893  0.00  0.00    -0.292 N 
ATOM     22  H   UNL     1       2.988  -1.664   2.501  0.00  0.00    +0.156 HD
ATOM     23  H   UNL     1       0.880  -1.149   1.633  0.00  0.00    +0.151 HD
BRANCH  18  29
ATOM     24  C   UNL     1       5.616  -1.489   2.662  0.00  0.00    -0.026 A 
ATOM     25  C   UNL     1       6.986  -1.554   2.497  0.00  0.00    +0.005 A 
ATOM     26  C   UNL     1       7.536  -1.462   1.232  0.00  0.00    +0.000 A 
ATOM     27  C   UNL     1       6.718  -1.305   0.128  0.00  0.00    +0.002 A 
ATOM     28  C   UNL     1       5.347  -1.245   0.286  0.00  0.00    +0.023 A 
ATOM     29  C   UNL     1       4.792  -1.332   1.556  0.00  0.00    +0.038 A 
BRANCH  24  31
ATOM     30  C   UNL     1       4.616  -3.040   4.318  0.00  0.00    +0.009 C 
ATOM     31  C   UNL     1       5.017  -1.590   4.041  0.00  0.00    +0.033 C 
ENDBRANCH  24  31
ENDBRANCH  18  29
ENDBRANCH  16  21
ENDBRANCH   1  16
BRANCH   9  32
ATOM     32  C   UNL     1      -4.049  -2.032  -4.472  0.00  0.00    -0.082 C 
ATOM     33  C   UNL     1      -3.876  -3.552  -4.457  0.00  0.00    -0.017 C 
ENDBRANCH   9  32
TORSDOF 6
