REMARK  Name = ZINC23220530
REMARK  8 active torsions:
REMARK  status: ('A' for Active; 'I' for Inactive)
REMARK    1  A    between atoms: C_1  and  C_2
REMARK    2  A    between atoms: C_15  and  C_17
REMARK    3  A    between atoms: C_17  and  O_18
REMARK    4  A    between atoms: O_18  and  C_19
REMARK    5  A    between atoms: C_19  and  C_21
REMARK    6  A    between atoms: C_21  and  C_22
REMARK    7  A    between atoms: C_22  and  C_23
REMARK    8  A    between atoms: C_23  and  C_25
REMARK                            x       y       z     vdW  Elec       q    Type
REMARK                         _______ _______ _______ _____ _____    ______ ____
ROOT
ATOM      1  C   UNL     1      -0.868   5.851  -2.272  0.00  0.00    +0.029 C 
ATOM      2  C   UNL     1       0.304   5.916  -1.290  0.00  0.00    +0.087 C 
ATOM      3  C   UNL     1       1.522   5.225  -1.905  0.00  0.00    +0.118 C 
ATOM      4  C   UNL     1       2.540   4.924  -0.837  0.00  0.00    +0.219 C 
ATOM      5  O   UNL     1       3.541   5.604  -0.751  0.00  0.00    -0.275 OA
ATOM      6  N   UNL     1       2.347   3.902   0.025  0.00  0.00    -0.284 N 
ATOM      7  C   UNL     1       1.157   3.166  -0.000  0.00  0.00    +0.055 A 
ATOM      8  C   UNL     1       1.177   1.781   0.000  0.00  0.00    +0.025 A 
ATOM      9  C   UNL     1      -0.013   1.076   0.008  0.00  0.00    +0.002 A 
ATOM     10  C   UNL     1      -1.221   1.748   0.017  0.00  0.00    +0.002 A 
ATOM     11  C   UNL     1      -1.249   3.131   0.020  0.00  0.00    +0.025 A 
ATOM     12  C   UNL     1      -0.062   3.845  -0.002  0.00  0.00    +0.058 A 
ATOM     13  N   UNL     1      -0.071   5.246  -0.043  0.00  0.00    -0.264 N 
ATOM     14  C   UNL     1      -0.418   5.963   1.044  0.00  0.00    +0.258 C 
ATOM     15  O   UNL     1      -0.422   7.175   0.995  0.00  0.00    -0.271 OA
ATOM     16  H   UNL     1       3.128   3.643   0.755  0.00  0.00    +0.155 HD
ENDROOT
BRANCH  14  17
ATOM     17  C   UNL     1      -0.801   5.259   2.320  0.00  0.00    +0.328 C 
BRANCH  17  18
ATOM     18  O   UNL     1      -1.130   6.243   3.336  0.00  0.00    -0.455 OA
BRANCH  18  19
ATOM     19  C   UNL     1      -1.495   5.777   4.540  0.00  0.00    +0.308 C 
ATOM     20  O   UNL     1      -1.539   4.586   4.739  0.00  0.00    -0.251 OA
BRANCH  19  21
ATOM     21  C   UNL     1      -1.851   6.739   5.644  0.00  0.00    +0.128 C 
BRANCH  21  22
ATOM     22  C   UNL     1      -2.228   5.955   6.903  0.00  0.00    +0.091 C 
BRANCH  22  23
ATOM     23  C   UNL     1      -2.584   6.917   8.007  0.00  0.00    +0.170 C 
ATOM     24  O   UNL     1      -2.540   8.114   7.806  0.00  0.00    -0.291 OA
BRANCH  23  25
ATOM     25  C   UNL     1      -2.967   6.427   9.273  0.00  0.00    +0.056 A 
ATOM     26  C   UNL     1      -3.326   7.135  10.416  0.00  0.00    +0.020 A 
ATOM     27  C   UNL     1      -3.662   6.403  11.522  0.00  0.00    +0.028 A 
ATOM     28  C   UNL     1      -3.621   5.042  11.457  0.00  0.00    +0.079 A 
ATOM     29  S   UNL     1      -3.112   4.737   9.828  0.00  0.00    -0.074 S 
ATOM     30 CL   UNL     1      -3.989   3.891  12.704  0.00  0.00    -0.076 Cl
ENDBRANCH  23  25
ENDBRANCH  22  23
ENDBRANCH  21  22
ENDBRANCH  19  21
ENDBRANCH  18  19
ENDBRANCH  17  18
ENDBRANCH  14  17
TORSDOF 7
