REMARK  Name = ZINC12531457
REMARK  12 active torsions:
REMARK  status: ('A' for Active; 'I' for Inactive)
REMARK    1  A    between atoms: C_1  and  C_2
REMARK    2  A    between atoms: C_4  and  C_18
REMARK    3  A    between atoms: C_5  and  C_17
REMARK    4  A    between atoms: N_6  and  C_7
REMARK    5  A    between atoms: C_10  and  O_13
REMARK    6  A    between atoms: O_13  and  C_14
REMARK    7  A    between atoms: C_18  and  C_20
REMARK    8  A    between atoms: C_20  and  C_22
REMARK    9  A    between atoms: C_20  and  O_23
REMARK   10  A    between atoms: O_23  and  C_24
REMARK   11  A    between atoms: C_24  and  C_26
REMARK   12  A    between atoms: C_35  and  O_38
REMARK                            x       y       z     vdW  Elec       q    Type
REMARK                         _______ _______ _______ _____ _____    ______ ____
ROOT
ATOM      1  C   UNL     1       0.042  -3.378  -1.450  0.00  0.00    +0.205 C 
ATOM      2  O   UNL     1       0.058  -4.471  -0.923  0.00  0.00    -0.288 OA
ENDROOT
BRANCH   1   6
ATOM      3  C   UNL     1      -0.018   1.503   0.010  0.00  0.00    +0.064 C 
ATOM      4  C   UNL     1       0.002  -0.004   0.002  0.00  0.00    +0.022 A 
ATOM      5  C   UNL     1       0.008  -0.777  -1.097  0.00  0.00    +0.034 A 
ATOM      6  C   UNL     1       0.029  -2.168  -0.626  0.00  0.00    +0.042 A 
ATOM      7  C   UNL     1       0.034  -2.101   0.755  0.00  0.00    +0.032 A 
ATOM      8  N   UNL     1       0.024  -0.802   1.111  0.00  0.00    -0.317 N 
ATOM      9  C   UNL     1       0.054  -3.276   1.698  0.00  0.00    +0.064 C 
BRANCH   8  10
ATOM     10  C   UNL     1       0.030  -0.335   2.434  0.00  0.00    +0.047 A 
ATOM     11  C   UNL     1       1.134  -0.563   3.245  0.00  0.00    +0.030 A 
ATOM     12  C   UNL     1       1.140  -0.103   4.547  0.00  0.00    +0.048 A 
ATOM     13  C   UNL     1       0.044   0.587   5.045  0.00  0.00    +0.127 A 
ATOM     14  C   UNL     1      -1.059   0.815   4.234  0.00  0.00    +0.048 A 
ATOM     15  C   UNL     1      -1.064   0.361   2.930  0.00  0.00    +0.030 A 
BRANCH  13  16
ATOM     16  O   UNL     1       0.051   1.040   6.326  0.00  0.00    -0.434 OA
BRANCH  16  17
ATOM     17  C   UNL     1      -1.111   1.742   6.772  0.00  0.00    +0.541 C 
ATOM     18  F   UNL     1      -1.306   2.875   5.975  0.00  0.00    -0.166 F 
ATOM     19  F   UNL     1      -2.228   0.905   6.675  0.00  0.00    -0.166 F 
ENDBRANCH  16  17
ENDBRANCH  13  16
ENDBRANCH   8  10
ENDBRANCH   1   6
BRANCH   1  20
ATOM     20  C   UNL     1       0.035  -3.267  -2.953  0.00  0.00    +0.244 C 
ATOM     21  C   UNL     1      -1.366  -2.875  -3.429  0.00  0.00    +0.061 C 
BRANCH  20  22
ATOM     22  O   UNL     1       0.398  -4.524  -3.526  0.00  0.00    -0.453 OA
BRANCH  22  23
ATOM     23  C   UNL     1       1.030  -4.495  -4.710  0.00  0.00    +0.314 C 
ATOM     24  O   UNL     1       1.267  -3.436  -5.242  0.00  0.00    -0.250 OA
BRANCH  23  25
ATOM     25  C   UNL     1       1.444  -5.782  -5.375  0.00  0.00    +0.071 C 
ATOM     26  C   UNL     1       2.407  -6.542  -4.460  0.00  0.00    +0.021 C 
ATOM     27  C   UNL     1       2.828  -7.849  -5.136  0.00  0.00    -0.007 C 
ATOM     28  C   UNL     1       1.589  -8.708  -5.399  0.00  0.00    +0.007 C 
ATOM     29  C   UNL     1       0.626  -7.948  -6.314  0.00  0.00    -0.007 C 
ATOM     30  C   UNL     1       0.206  -6.641  -5.638  0.00  0.00    +0.021 C 
ATOM     31  C   UNL     1       1.322  -7.636  -7.640  0.00  0.00    +0.038 C 
ATOM     32  C   UNL     1       2.560  -6.777  -7.377  0.00  0.00    +0.068 C 
ATOM     33  C   UNL     1       3.523  -7.537  -6.462  0.00  0.00    +0.038 C 
ATOM     34  C   UNL     1       2.140  -5.470  -6.701  0.00  0.00    +0.052 C 
BRANCH  32  35
ATOM     35  O   UNL     1       3.210  -6.485  -8.615  0.00  0.00    -0.389 OA
ATOM     36  H   UNL     1       3.505  -7.269  -9.099  0.00  0.00    +0.210 HD
ENDBRANCH  32  35
ENDBRANCH  23  25
ENDBRANCH  22  23
ENDBRANCH  20  22
ENDBRANCH   1  20
TORSDOF 9
