REMARK  Name = ZINC06405584
REMARK  7 active torsions:
REMARK  status: ('A' for Active; 'I' for Inactive)
REMARK    1  A    between atoms: C_1  and  C_2
REMARK    2  A    between atoms: C_5  and  C_33
REMARK    3  A    between atoms: C_9  and  C_14
REMARK    4  A    between atoms: C_14  and  C_16
REMARK    5  A    between atoms: C_14  and  N_66
REMARK    6  A    between atoms: N_20  and  C_21
REMARK    7  A    between atoms: C_29  and  C_32
REMARK                            x       y       z     vdW  Elec       q    Type
REMARK                         _______ _______ _______ _____ _____    ______ ____
ROOT
ATOM      1  C   UNL     1       3.510   0.737  -0.027  0.00  0.00    +0.039 C 
ENDROOT
BRANCH   1  10
ATOM      2  C   UNL     1       6.159  -1.878  -3.669  0.00  0.00    +0.044 C 
ATOM      3  C   UNL     1       6.092  -0.439  -4.111  0.00  0.00    -0.041 A 
ATOM      4  C   UNL     1       6.675  -0.054  -5.285  0.00  0.00    +0.004 A 
ATOM      5  C   UNL     1       6.618   1.269  -5.701  0.00  0.00    +0.005 A 
ATOM      6  C   UNL     1       5.975   2.220  -4.938  0.00  0.00    -0.026 A 
ATOM      7  C   UNL     1       5.375   1.851  -3.739  0.00  0.00    +0.052 A 
ATOM      8  C   UNL     1       5.434   0.508  -3.320  0.00  0.00    +0.002 A 
ATOM      9  C   UNL     1       4.798   0.131  -2.056  0.00  0.00    +0.018 A 
ATOM     10  C   UNL     1       4.174   1.092  -1.333  0.00  0.00    +0.011 A 
ATOM     11  C   UNL     1       4.139   2.423  -1.800  0.00  0.00    +0.251 A 
ATOM     12  O   UNL     1       3.568   3.271  -1.136  0.00  0.00    -0.268 OA
ATOM     13  N   UNL     1       4.724   2.781  -2.956  0.00  0.00    -0.322 N 
ATOM     14  H   UNL     1       4.685   3.706  -3.246  0.00  0.00    +0.169 HD
ATOM     15  C   UNL     1       5.921   3.652  -5.402  0.00  0.00    +0.046 C 
ENDBRANCH   1  10
BRANCH   1  22
ATOM     16  C   UNL     1       3.284   1.401   2.290  0.00  0.00    -0.077 C 
ATOM     17  C   UNL     1       3.735   2.431   3.328  0.00  0.00    -0.015 C 
ATOM     18  C   UNL     1       5.241   2.287   3.562  0.00  0.00    -0.018 C 
ATOM     19  C   UNL     1       5.976   2.468   2.231  0.00  0.00    -0.015 C 
ATOM     20  C   UNL     1       5.460   1.437   1.225  0.00  0.00    -0.077 C 
ATOM     21  C   UNL     1       5.709   3.354   4.554  0.00  0.00    +0.007 C 
ATOM     22  N   UNL     1       4.010   1.645   1.025  0.00  0.00    +0.389 N 
ATOM     23  H   UNL     1       3.851   2.616   0.731  0.00  0.00    -0.080 HD
ENDBRANCH   1  22
BRANCH   1  24
ATOM     24  C   UNL     1       2.019   0.912  -0.158  0.00  0.00    +0.143 A 
ATOM     25  N   UNL     1       1.363   2.046  -0.177  0.00  0.00    -0.115 NA
ATOM     26  N   UNL     1       0.109   1.779  -0.302  0.00  0.00    -0.023 NA
ATOM     27  N   UNL     1      -0.052   0.503  -0.362  0.00  0.00    -0.044 NA
ATOM     28  N   UNL     1       1.103  -0.067  -0.277  0.00  0.00    -0.227 N 
BRANCH  28  29
ATOM     29  C   UNL     1       1.366  -1.507  -0.305  0.00  0.00    +0.111 C 
ATOM     30  C   UNL     1       0.865  -2.092  -1.627  0.00  0.00    +0.027 C 
ATOM     31  C   UNL     1       1.141  -3.597  -1.656  0.00  0.00    +0.002 C 
ATOM     32  C   UNL     1       0.412  -4.271  -0.492  0.00  0.00    +0.000 C 
ATOM     33  C   UNL     1       0.913  -3.687   0.830  0.00  0.00    +0.002 C 
ATOM     34  C   UNL     1       0.638  -2.182   0.860  0.00  0.00    +0.027 C 
ENDBRANCH  28  29
ENDBRANCH   1  24
TORSDOF 4
