REMARK  Name = ZINC12768916
REMARK  14 active torsions:
REMARK  status: ('A' for Active; 'I' for Inactive)
REMARK    1  A    between atoms: C_1  and  C_2
REMARK    2  A    between atoms: C_2  and  C_3
REMARK    3  A    between atoms: C_3  and  C_4
REMARK    4  A    between atoms: C_4  and  N_5
REMARK    5  A    between atoms: C_6  and  N_35
REMARK    6  A    between atoms: C_7  and  N_14
REMARK    7  A    between atoms: N_14  and  C_15
REMARK    8  A    between atoms: C_15  and  C_16
REMARK    9  A    between atoms: C_16  and  O_17
REMARK   10  A    between atoms: O_17  and  C_18
REMARK   11  A    between atoms: C_19  and  C_21
REMARK   12  A    between atoms: C_24  and  N_27
REMARK   13  A    between atoms: C_28  and  C_34
REMARK   14  A    between atoms: C_30  and  C_32
REMARK                            x       y       z     vdW  Elec       q    Type
REMARK                         _______ _______ _______ _____ _____    ______ ____
ROOT
ATOM      1  N   UNL     1       2.428   3.754  -0.449  0.00  0.00    -0.258 N 
ATOM      2  C   UNL     1       2.461   5.091  -0.281  0.00  0.00    +0.251 C 
ATOM      3  O   UNL     1       3.529   5.664  -0.169  0.00  0.00    -0.270 OA
ENDROOT
BRANCH   1   6
ATOM      4  N   UNL     1      -0.432   1.483  -0.053  0.00  0.00    -0.280 N 
ATOM      5  C   UNL     1       0.773   2.102   0.186  0.00  0.00    +0.127 A 
ATOM      6  C   UNL     1       1.198   3.101  -0.667  0.00  0.00    +0.140 A 
ATOM      7  C   UNL     1       0.381   3.456  -1.757  0.00  0.00    +0.277 A 
ATOM      8  O   UNL     1       0.733   4.335  -2.526  0.00  0.00    -0.266 OA
ATOM      9  N   UNL     1      -0.791   2.818  -1.946  0.00  0.00    -0.273 N 
ATOM     10  H   UNL     1      -1.369   3.067  -2.722  0.00  0.00    +0.173 HD
ATOM     11  C   UNL     1      -1.191   1.851  -1.101  0.00  0.00    +0.331 A 
ATOM     12  O   UNL     1      -2.256   1.296  -1.292  0.00  0.00    -0.246 OA
BRANCH   5  13
ATOM     13  N   UNL     1       1.545   1.730   1.260  0.00  0.00    -0.343 N 
ATOM     14  H   UNL     1       2.329   2.249   1.496  0.00  0.00    +0.144 HD
ATOM     15  H   UNL     1       1.305   0.948   1.782  0.00  0.00    +0.144 HD
ENDBRANCH   5  13
BRANCH   4  16
ATOM     16  C   UNL     1      -0.896   0.422   0.844  0.00  0.00    +0.128 C 
BRANCH  16  17
ATOM     17  C   UNL     1      -1.724   1.035   1.975  0.00  0.00    +0.021 C 
BRANCH  17  19
ATOM     18  C   UNL     1      -3.036   0.540   4.043  0.00  0.00    +0.004 C 
ATOM     19  C   UNL     1      -2.208  -0.073   2.912  0.00  0.00    -0.002 C 
ENDBRANCH  17  19
ENDBRANCH  16  17
ENDBRANCH   4  16
ENDBRANCH   1   6
BRANCH   2  20
ATOM     20  C   UNL     1       1.202   5.860  -0.232  0.00  0.00    +0.037 A 
ATOM     21  C   UNL     1      -0.001   5.216   0.065  0.00  0.00    +0.015 A 
ATOM     22  C   UNL     1      -1.173   5.937   0.115  0.00  0.00    +0.028 A 
ATOM     23  C   UNL     1      -1.161   7.304  -0.141  0.00  0.00    +0.066 A 
ATOM     24  C   UNL     1       0.034   7.948  -0.444  0.00  0.00    +0.028 A 
ATOM     25  C   UNL     1       1.210   7.234  -0.489  0.00  0.00    +0.015 A 
BRANCH  23  26
ATOM     26  N   UNL     1      -2.354   8.033  -0.096  0.00  0.00    -0.235 N 
ATOM     27  C   UNL     1      -3.580   7.587  -0.478  0.00  0.00    +0.060 A 
ATOM     28  C   UNL     1      -4.463   8.593  -0.274  0.00  0.00    +0.085 A 
ATOM     29  C   UNL     1      -3.758   9.688   0.241  0.00  0.00    +0.079 A 
ATOM     30  N   UNL     1      -2.498   9.354   0.347  0.00  0.00    -0.170 NA
ATOM     31  C   UNL     1      -4.351  11.024   0.609  0.00  0.00    +0.069 C 
ATOM     32 CL   UNL     1      -6.167   8.537  -0.599  0.00  0.00    -0.080 Cl
ATOM     33  C   UNL     1      -3.899   6.221  -1.028  0.00  0.00    +0.067 C 
ENDBRANCH  23  26
ENDBRANCH   2  20
BRANCH   1  34
ATOM     34  C   UNL     1       3.671   2.979  -0.406  0.00  0.00    +0.142 C 
BRANCH  34  35
ATOM     35  C   UNL     1       4.205   2.793  -1.828  0.00  0.00    +0.179 C 
BRANCH  35  36
ATOM     36  O   UNL     1       4.570   4.064  -2.370  0.00  0.00    -0.381 OA
ATOM     37  C   UNL     1       5.084   4.002  -3.702  0.00  0.00    +0.194 C 
ENDBRANCH  35  36
ENDBRANCH  34  35
ENDBRANCH   1  34
TORSDOF 10
