REMARK  Name = ZINC59267043
REMARK  12 active torsions:
REMARK  status: ('A' for Active; 'I' for Inactive)
REMARK    1  A    between atoms: C_1  and  C_2
REMARK    2  A    between atoms: C_2  and  O_3
REMARK    3  A    between atoms: O_3  and  C_4
REMARK    4  A    between atoms: C_4  and  C_6
REMARK    5  A    between atoms: C_7  and  C_36
REMARK    6  A    between atoms: C_12  and  C_14
REMARK    7  A    between atoms: C_17  and  O_22
REMARK    8  A    between atoms: C_19  and  O_20
REMARK    9  A    between atoms: O_20  and  C_21
REMARK   10  A    between atoms: O_22  and  C_23
REMARK   11  A    between atoms: C_26  and  C_32
REMARK   12  A    between atoms: C_28  and  N_29
REMARK                            x       y       z     vdW  Elec       q    Type
REMARK                         _______ _______ _______ _____ _____    ______ ____
ROOT
ATOM      1  C   UNL     1       3.061  -0.380  -2.966  0.00  0.00    +0.019 A 
ATOM      2  C   UNL     1       4.358  -0.826  -3.137  0.00  0.00    +0.013 A 
ATOM      3  C   UNL     1       5.410  -0.125  -2.581  0.00  0.00    +0.047 A 
ATOM      4  C   UNL     1       5.167   1.029  -1.848  0.00  0.00    +0.132 A 
ATOM      5  C   UNL     1       3.867   1.478  -1.676  0.00  0.00    +0.092 A 
ATOM      6  C   UNL     1       2.813   0.776  -2.240  0.00  0.00    +0.129 A 
ENDROOT
BRANCH   1  13
ATOM      7  C   UNL     1       1.400  -2.121  -2.534  0.00  0.00    +0.078 C 
ATOM      8  C   UNL     1       1.396  -3.434  -2.850  0.00  0.00    +0.021 C 
ATOM      9  N   UNL     1       1.846  -3.869  -4.064  0.00  0.00    -0.273 N 
ATOM     10  C   UNL     1       2.316  -3.054  -5.016  0.00  0.00    +0.304 C 
ATOM     11  O   UNL     1       2.695  -3.534  -6.067  0.00  0.00    -0.252 OA
ATOM     12  N   UNL     1       2.383  -1.718  -4.849  0.00  0.00    -0.288 N 
ATOM     13  C   UNL     1       1.915  -1.147  -3.575  0.00  0.00    +0.147 C 
ATOM     14  C   UNL     1       0.887  -4.436  -1.846  0.00  0.00    +0.061 C 
ATOM     15  H   UNL     1       1.824  -4.821  -4.246  0.00  0.00    +0.156 HD
ATOM     16  H   UNL     1       2.727  -1.146  -5.553  0.00  0.00    +0.151 HD
BRANCH   7  17
ATOM     17  C   UNL     1       0.933  -1.669  -1.278  0.00  0.00    +0.339 C 
ATOM     18  O   UNL     1      -0.176  -1.179  -1.181  0.00  0.00    -0.245 OA
BRANCH  17  19
ATOM     19  O   UNL     1       1.719  -1.782  -0.186  0.00  0.00    -0.462 OA
BRANCH  19  21
ATOM     20  C   UNL     1       2.211  -1.492   2.162  0.00  0.00    +0.048 C 
ATOM     21  C   UNL     1       1.145  -1.405   1.067  0.00  0.00    +0.229 C 
ENDBRANCH  19  21
ENDBRANCH  17  19
ENDBRANCH   7  17
ENDBRANCH   1  13
BRANCH   6  22
ATOM     22  O   UNL     1       1.538   1.216  -2.078  0.00  0.00    -0.495 OA
ATOM     23  C   UNL     1       1.364   2.464  -1.403  0.00  0.00    +0.277 C 
ENDBRANCH   6  22
BRANCH   4  24
ATOM     24  O   UNL     1       6.203   1.717  -1.300  0.00  0.00    -0.454 OA
BRANCH  24  25
ATOM     25  C   UNL     1       6.933   2.525  -2.113  0.00  0.00    +0.159 A 
ATOM     26  C   UNL     1       6.553   2.707  -3.436  0.00  0.00    +0.049 A 
ATOM     27  C   UNL     1       7.297   3.529  -4.260  0.00  0.00    +0.016 A 
ATOM     28  C   UNL     1       8.419   4.170  -3.768  0.00  0.00    +0.057 A 
ATOM     29  C   UNL     1       8.800   3.990  -2.451  0.00  0.00    +0.048 A 
ATOM     30  C   UNL     1       8.056   3.173  -1.621  0.00  0.00    +0.169 A 
BRANCH  28  31
ATOM     31  C   UNL     1       9.229   5.065  -4.670  0.00  0.00    +0.417 C 
ATOM     32  F   UNL     1       8.653   5.088  -5.944  0.00  0.00    -0.166 F 
ATOM     33  F   UNL     1       9.249   6.361  -4.144  0.00  0.00    -0.166 F 
ATOM     34  F   UNL     1      10.537   4.577  -4.759  0.00  0.00    -0.166 F 
ENDBRANCH  28  31
BRANCH  30  35
ATOM     35  N   UNL     1       8.461   2.986  -0.210  0.00  0.00    +0.060 N 
ATOM     36  O   UNL     1       9.440   3.551   0.218  0.00  0.00    -0.126 OA
ATOM     37  O   UNL     1       7.813   2.268   0.515  0.00  0.00    -0.126 OA
ENDBRANCH  30  35
ENDBRANCH  24  25
ENDBRANCH   4  24
TORSDOF 9
