REMARK  Name = ZINC16468066
REMARK  8 active torsions:
REMARK  status: ('A' for Active; 'I' for Inactive)
REMARK    1  A    between atoms: C_1  and  C_2
REMARK    2  A    between atoms: C_2  and  C_28
REMARK    3  A    between atoms: C_3  and  C_4
REMARK    4  A    between atoms: C_6  and  C_11
REMARK    5  A    between atoms: C_8  and  C_9
REMARK    6  A    between atoms: C_8  and  C_10
REMARK    7  A    between atoms: N_16  and  C_19
REMARK    8  A    between atoms: C_22  and  N_25
REMARK                            x       y       z     vdW  Elec       q    Type
REMARK                         _______ _______ _______ _____ _____    ______ ____
ROOT
ATOM      1  C   UNL     1       2.849   2.128   1.988  0.00  0.00    +0.220 C 
ATOM      2  O   UNL     1       3.447   1.602   2.902  0.00  0.00    -0.275 OA
ATOM      3  N   UNL     1       2.154   1.374   1.115  0.00  0.00    -0.298 N 
ATOM      4  C   UNL     1       1.421   1.992  -0.001  0.00  0.00    +0.126 C 
ATOM      5  C   UNL     1      -0.018   1.465   0.010  0.00  0.00    +0.124 C 
ATOM      6  N   UNL     1       0.002  -0.004   0.002  0.00  0.00    -0.327 N 
ATOM      7  C   UNL     1       0.640  -0.535   1.214  0.00  0.00    +0.124 C 
ATOM      8  C   UNL     1       2.106  -0.090   1.252  0.00  0.00    +0.126 C 
ENDROOT
BRANCH   6   9
ATOM      9  C   UNL     1      -1.286  -0.521  -0.153  0.00  0.00    +0.030 A 
ATOM     10  C   UNL     1      -2.372   0.338  -0.269  0.00  0.00    +0.025 A 
ATOM     11  C   UNL     1      -3.643  -0.177  -0.428  0.00  0.00    +0.034 A 
ATOM     12  C   UNL     1      -3.838  -1.546  -0.461  0.00  0.00    +0.126 A 
ATOM     13  C   UNL     1      -2.760  -2.404  -0.340  0.00  0.00    +0.034 A 
ATOM     14  C   UNL     1      -1.485  -1.896  -0.186  0.00  0.00    +0.025 A 
BRANCH  12  15
ATOM     15  N   UNL     1      -5.203  -2.094  -0.625  0.00  0.00    +0.056 N 
ATOM     16  O   UNL     1      -5.376  -3.299  -0.655  0.00  0.00    -0.126 OA
ATOM     17  O   UNL     1      -6.153  -1.340  -0.732  0.00  0.00    -0.126 OA
ENDBRANCH  12  15
ENDBRANCH   6   9
BRANCH   1  19
ATOM     18  C   UNL     1       2.163   4.467   2.884  0.00  0.00    +0.030 C 
ATOM     19  C   UNL     1       2.885   3.627   1.828  0.00  0.00    +0.089 C 
ATOM     20  C   UNL     1       3.692   4.427   2.852  0.00  0.00    -0.016 C 
ATOM     21  C   UNL     1       4.402   3.646   3.959  0.00  0.00    +0.012 C 
ATOM     22  C   UNL     1       4.421   5.677   2.354  0.00  0.00    +0.012 C 
BRANCH  18  25
ATOM     23  C   UNL     1       0.504   5.872   4.675  0.00  0.00    +0.038 C 
ATOM     24  C   UNL     1       0.700   4.386   4.837  0.00  0.00    -0.079 C 
ATOM     25  C   UNL     1       1.471   3.733   4.003  0.00  0.00    -0.023 C 
ATOM     26  C   UNL     1       0.008   3.652   5.956  0.00  0.00    +0.038 C 
ENDBRANCH  18  25
ENDBRANCH   1  19
TORSDOF 4
