REMARK  Name = ZINC09341165
REMARK  8 active torsions:
REMARK  status: ('A' for Active; 'I' for Inactive)
REMARK    1  A    between atoms: C_1  and  C_2
REMARK    2  A    between atoms: C_12  and  C_13
REMARK    3  A    between atoms: C_13  and  C_14
REMARK    4  A    between atoms: N_16  and  C_17
REMARK    5  A    between atoms: C_17  and  C_18
REMARK    6  A    between atoms: C_18  and  C_20
REMARK    7  A    between atoms: C_18  and  O_22
REMARK    8  A    between atoms: C_20  and  O_21
REMARK                            x       y       z     vdW  Elec       q    Type
REMARK                         _______ _______ _______ _____ _____    ______ ____
ROOT
ATOM      1  C   UNL     1      -0.480  -2.289  -7.236  0.00  0.00    +0.045 C 
ATOM      2  C   UNL     1      -0.535  -2.988  -5.902  0.00  0.00    -0.029 A 
ATOM      3  C   UNL     1      -0.967  -2.281  -4.693  0.00  0.00    +0.021 A 
ATOM      4  C   UNL     1      -1.338  -0.934  -4.742  0.00  0.00    +0.019 A 
ATOM      5  C   UNL     1      -1.737  -0.289  -3.603  0.00  0.00    -0.005 A 
ATOM      6  C   UNL     1      -1.779  -0.972  -2.391  0.00  0.00    +0.128 A 
ATOM      7  C   UNL     1      -1.412  -2.310  -2.327  0.00  0.00    +0.093 A 
ATOM      8  C   UNL     1      -1.003  -2.978  -3.472  0.00  0.00    +0.143 A 
ATOM      9  O   UNL     1      -0.645  -4.276  -3.412  0.00  0.00    -0.422 OA
ATOM     10  C   UNL     1      -0.249  -4.917  -4.516  0.00  0.00    +0.341 A 
ATOM     11  O   UNL     1       0.070  -6.089  -4.427  0.00  0.00    -0.245 OA
ATOM     12  C   UNL     1      -0.186  -4.295  -5.778  0.00  0.00    +0.049 A 
ATOM     13  O   UNL     1      -2.177  -0.362  -1.244  0.00  0.00    -0.485 OA
ATOM     14  C   UNL     1      -2.188   1.065  -1.219  0.00  0.00    +0.111 C 
ATOM     15  C   UNL     1      -0.753   1.593  -1.232  0.00  0.00    +0.048 C 
ATOM     16  C   UNL     1      -0.013   1.086   0.008  0.00  0.00    +0.004 C 
ATOM     17  C   UNL     1      -0.729   1.579   1.267  0.00  0.00    +0.000 C 
ATOM     18  C   UNL     1      -2.164   1.049   1.278  0.00  0.00    +0.004 C 
ATOM     19  C   UNL     1      -2.905   1.555   0.039  0.00  0.00    +0.048 C 
ATOM     20  C   UNL     1      -2.929   1.569  -2.462  0.00  0.00    +0.053 C 
ATOM     21  C   UNL     1      -2.123   1.166  -3.699  0.00  0.00    +0.043 C 
ENDROOT
BRANCH  12  22
ATOM     22  C   UNL     1       0.267  -5.076  -6.985  0.00  0.00    +0.138 C 
BRANCH  22  23
ATOM     23  C   UNL     1       1.762  -4.953  -7.131  0.00  0.00    +0.218 C 
ATOM     24  O   UNL     1       2.397  -4.296  -6.333  0.00  0.00    -0.275 OA
ATOM     25  N   UNL     1       2.394  -5.572  -8.147  0.00  0.00    -0.312 N 
ATOM     26  H   UNL     1       1.886  -6.098  -8.785  0.00  0.00    +0.149 HD
BRANCH  25  27
ATOM     27  C   UNL     1       3.847  -5.453  -8.289  0.00  0.00    +0.137 C 
BRANCH  27  28
ATOM     28  C   UNL     1       4.307  -6.245  -9.514  0.00  0.00    +0.157 C 
BRANCH  28  29
ATOM     29  O   UNL     1       3.956  -7.620  -9.351  0.00  0.00    -0.388 OA
ATOM     30  H   UNL     1       4.354  -8.039  -8.575  0.00  0.00    +0.210 HD
ENDBRANCH  28  29
BRANCH  28  31
ATOM     31  C   UNL     1       5.825  -6.120  -9.662  0.00  0.00    +0.188 C 
BRANCH  31  32
ATOM     32  O   UNL     1       6.240  -6.761 -10.869  0.00  0.00    -0.392 OA
ATOM     33  H   UNL     1       7.194  -6.721 -11.028  0.00  0.00    +0.210 HD
ENDBRANCH  31  32
ENDBRANCH  28  31
ENDBRANCH  27  28
ENDBRANCH  25  27
ENDBRANCH  22  23
ENDBRANCH  12  22
TORSDOF 7
