REMARK  Name = ZINC13063933
REMARK  13 active torsions:
REMARK  status: ('A' for Active; 'I' for Inactive)
REMARK    1  A    between atoms: C_1  and  C_2
REMARK    2  A    between atoms: C_2  and  C_3
REMARK    3  A    between atoms: C_3  and  C_5
REMARK    4  A    between atoms: C_3  and  N_70
REMARK    5  A    between atoms: N_9  and  C_10
REMARK    6  A    between atoms: C_10  and  C_11
REMARK    7  A    between atoms: C_18  and  C_19
REMARK    8  A    between atoms: C_18  and  N_70
REMARK    9  A    between atoms: C_22  and  O_25
REMARK   10  A    between atoms: O_25  and  C_26
REMARK   11  A    between atoms: C_27  and  C_28
REMARK   12  A    between atoms: C_27  and  N_70
REMARK   13  A    between atoms: C_33  and  C_40
REMARK                            x       y       z     vdW  Elec       q    Type
REMARK                         _______ _______ _______ _____ _____    ______ ____
ROOT
ATOM      1  N   UNL     1       0.862   4.145  -1.162  0.00  0.00    +0.392 N 
ATOM      2  H   UNL     1      -0.042   4.578  -0.942  0.00  0.00    -0.080 HD
ENDROOT
BRANCH   1   3
ATOM      3  C   UNL     1       1.109   3.038  -0.215  0.00  0.00    +0.003 C 
BRANCH   3   4
ATOM      4  C   UNL     1       0.138   1.921  -0.499  0.00  0.00    +0.138 A 
ATOM      5  N   UNL     1      -1.145   2.042  -0.741  0.00  0.00    -0.115 NA
ATOM      6  N   UNL     1      -1.626   0.863  -0.935  0.00  0.00    -0.023 NA
ATOM      7  N   UNL     1      -0.684  -0.007  -0.823  0.00  0.00    -0.044 NA
ATOM      8  N   UNL     1       0.419   0.606  -0.554  0.00  0.00    -0.226 N 
BRANCH   8   9
ATOM      9  C   UNL     1       1.731  -0.013  -0.349  0.00  0.00    +0.182 C 
BRANCH   9  10
ATOM     10  C   UNL     1       2.453  -0.108  -1.668  0.00  0.00    -0.026 A 
ATOM     11  C   UNL     1       2.308  -1.235  -2.455  0.00  0.00    +0.008 A 
ATOM     12  C   UNL     1       2.966  -1.322  -3.667  0.00  0.00    +0.038 A 
ATOM     13  C   UNL     1       3.780  -0.284  -4.088  0.00  0.00    +0.123 A 
ATOM     14  C   UNL     1       3.928   0.843  -3.296  0.00  0.00    +0.038 A 
ATOM     15  C   UNL     1       3.265   0.929  -2.087  0.00  0.00    +0.008 A 
ATOM     16  F   UNL     1       4.427  -0.369  -5.271  0.00  0.00    -0.205 F 
ENDBRANCH   9  10
ENDBRANCH   8   9
ENDBRANCH   3   4
BRANCH   3  18
ATOM     17  C   UNL     1       1.254   2.449   2.208  0.00  0.00    +0.002 C 
ATOM     18  C   UNL     1       0.894   3.551   1.210  0.00  0.00    -0.011 C 
ENDBRANCH   3  18
ENDBRANCH   1   3
BRANCH   1  19
ATOM     19  C   UNL     1       0.822   3.627  -2.546  0.00  0.00    -0.042 C 
BRANCH  19  20
ATOM     20  C   UNL     1       0.148   4.649  -3.425  0.00  0.00    -0.064 A 
ATOM     21  C   UNL     1      -1.232   4.700  -3.491  0.00  0.00    +0.005 A 
ATOM     22  C   UNL     1      -1.852   5.640  -4.292  0.00  0.00    +0.046 A 
ATOM     23  C   UNL     1      -1.089   6.526  -5.038  0.00  0.00    +0.120 A 
ATOM     24  C   UNL     1       0.296   6.469  -4.974  0.00  0.00    +0.046 A 
ATOM     25  C   UNL     1       0.911   5.531  -4.168  0.00  0.00    +0.005 A 
BRANCH  23  26
ATOM     26  O   UNL     1      -1.697   7.447  -5.830  0.00  0.00    -0.495 OA
ATOM     27  C   UNL     1      -3.126   7.448  -5.847  0.00  0.00    +0.277 C 
ENDBRANCH  23  26
ENDBRANCH  19  20
ENDBRANCH   1  19
BRANCH   1  28
ATOM     28  C   UNL     1       1.926   5.164  -1.036  0.00  0.00    -0.036 C 
BRANCH  28  29
ATOM     29  C   UNL     1       3.280   4.546  -1.267  0.00  0.00    +0.001 A 
ATOM     30  C   UNL     1       3.834   4.576  -2.504  0.00  0.00    +0.017 A 
ATOM     31  C   UNL     1       5.152   3.967  -2.696  0.00  0.00    -0.001 A 
ATOM     32  C   UNL     1       5.774   3.968  -3.948  0.00  0.00    +0.010 A 
ATOM     33  C   UNL     1       7.004   3.391  -4.094  0.00  0.00    +0.004 A 
ATOM     34  C   UNL     1       7.642   2.804  -3.010  0.00  0.00    -0.048 A 
ATOM     35  C   UNL     1       7.048   2.792  -1.766  0.00  0.00    +0.029 A 
ATOM     36  C   UNL     1       5.795   3.373  -1.594  0.00  0.00    +0.049 A 
ATOM     37  N   UNL     1       5.178   3.376  -0.361  0.00  0.00    -0.322 N 
ATOM     38  H   UNL     1       5.623   2.966   0.397  0.00  0.00    +0.169 HD
ATOM     39  C   UNL     1       3.970   3.943  -0.194  0.00  0.00    +0.251 A 
ATOM     40  O   UNL     1       3.457   3.931   0.911  0.00  0.00    -0.268 OA
ATOM     41  C   UNL     1       8.998   2.174  -3.194  0.00  0.00    +0.044 C 
ENDBRANCH  28  29
ENDBRANCH   1  28
TORSDOF 10
