REMARK  Name = ZINC34790948
REMARK  3 active torsions:
REMARK  status: ('A' for Active; 'I' for Inactive)
REMARK    1  A    between atoms: C_1  and  N_2
REMARK    2  A    between atoms: N_2  and  C_3
REMARK    3  A    between atoms: N_15  and  C_18
REMARK                            x       y       z     vdW  Elec       q    Type
REMARK                         _______ _______ _______ _____ _____    ______ ____
ROOT
ATOM      1  C   UNL     1      -0.249   0.809  -3.059  0.00  0.00    +0.132 C 
ATOM      2  N   UNL     1      -0.239  -0.591  -2.627  0.00  0.00    -0.306 N 
ATOM      3  C   UNL     1       0.891  -1.456  -2.973  0.00  0.00    +0.132 C 
ATOM      4  C   UNL     1      -1.295  -1.093  -1.894  0.00  0.00    +0.223 A 
ATOM      5  N   UNL     1      -1.284  -2.361  -1.496  0.00  0.00    -0.180 NA
ATOM      6  C   UNL     1      -2.302  -2.842  -0.790  0.00  0.00    +0.230 A 
ATOM      7  N   UNL     1      -3.328  -2.053  -0.483  0.00  0.00    -0.184 NA
ATOM      8  C   UNL     1      -3.336  -0.791  -0.880  0.00  0.00    +0.229 A 
ATOM      9  N   UNL     1      -2.322  -0.308  -1.579  0.00  0.00    -0.184 NA
ATOM     10 CL   UNL     1      -4.677   0.236  -0.478  0.00  0.00    -0.041 Cl
ATOM     11  N   UNL     1      -2.295  -4.162  -0.375  0.00  0.00    -0.234 N 
ATOM     12  C   UNL     1      -3.340  -4.845   0.404  0.00  0.00    +0.213 C 
ATOM     13  C   UNL     1      -2.822  -6.257   0.574  0.00  0.00    +0.244 C 
ATOM     14  O   UNL     1      -3.374  -7.166   1.158  0.00  0.00    -0.273 OA
ATOM     15  N   UNL     1      -1.630  -6.308  -0.050  0.00  0.00    -0.212 N 
ATOM     16  C   UNL     1      -1.311  -5.095  -0.614  0.00  0.00    +0.174 C 
ATOM     17  N   UNL     1      -0.220  -4.860  -1.284  0.00  0.00    -0.374 N 
ATOM     18  H   UNL     1      -0.069  -3.984  -1.672  0.00  0.00    +0.158 HD
ATOM     19  H   UNL     1       0.442  -5.560  -1.395  0.00  0.00    +0.158 HD
ENDROOT
BRANCH  15  20
ATOM     20  C   UNL     1      -0.822  -7.451  -0.120  0.00  0.00    +0.044 A 
ATOM     21  C   UNL     1      -0.985  -8.355  -1.161  0.00  0.00    +0.024 A 
ATOM     22  C   UNL     1      -0.188  -9.481  -1.228  0.00  0.00    +0.002 A 
ATOM     23  C   UNL     1       0.773  -9.708  -0.259  0.00  0.00    +0.000 A 
ATOM     24  C   UNL     1       0.937  -8.809   0.779  0.00  0.00    +0.002 A 
ATOM     25  C   UNL     1       0.146  -7.679   0.848  0.00  0.00    +0.024 A 
ENDBRANCH  15  20
TORSDOF 1
