REMARK  Name = ZINC32945166
REMARK  9 active torsions:
REMARK  status: ('A' for Active; 'I' for Inactive)
REMARK    1  A    between atoms: C_1  and  C_2
REMARK    2  A    between atoms: C_7  and  C_8
REMARK    3  A    between atoms: C_8  and  C_10
REMARK    4  A    between atoms: C_8  and  N_11
REMARK    5  A    between atoms: C_12  and  C_14
REMARK    6  A    between atoms: C_14  and  S_15
REMARK    7  A    between atoms: S_15  and  C_16
REMARK    8  A    between atoms: C_19  and  C_22
REMARK    9  A    between atoms: N_20  and  N_21
REMARK                            x       y       z     vdW  Elec       q    Type
REMARK                         _______ _______ _______ _____ _____    ______ ____
ROOT
ATOM      1  S   UNL     1      -3.095  -0.011   0.527  0.00  0.00    -0.075 S 
ENDROOT
BRANCH   1   2
ATOM      2  C   UNL     1      -4.431   1.055   0.958  0.00  0.00    +0.209 A 
ATOM      3  N   UNL     1      -4.354   2.346   1.189  0.00  0.00    -0.121 NA
ATOM      4  N   UNL     1      -5.517   2.813   1.473  0.00  0.00    -0.127 NA
ATOM      5  C   UNL     1      -6.406   1.848   1.450  0.00  0.00    +0.182 A 
ATOM      6  N   UNL     1      -5.737   0.692   1.119  0.00  0.00    -0.224 N 
BRANCH   5   7
ATOM      7  C   UNL     1      -7.852   1.977   1.727  0.00  0.00    +0.021 A 
ATOM      8  C   UNL     1      -8.453   3.237   1.740  0.00  0.00    +0.011 A 
ATOM      9  C   UNL     1      -9.804   3.351   1.996  0.00  0.00    +0.001 A 
ATOM     10  C   UNL     1     -10.561   2.221   2.248  0.00  0.00    +0.000 A 
ATOM     11  C   UNL     1      -9.971   0.969   2.242  0.00  0.00    +0.001 A 
ATOM     12  C   UNL     1      -8.622   0.841   1.983  0.00  0.00    +0.011 A 
ENDBRANCH   5   7
BRANCH   6  13
ATOM     13  N   UNL     1      -6.270  -0.559   0.980  0.00  0.00    -0.295 N 
ATOM     14  H   UNL     1      -7.346  -0.719   1.139  0.00  0.00    +0.163 HD
ATOM     15  H   UNL     1      -5.622  -1.406   0.709  0.00  0.00    +0.163 HD
ENDBRANCH   6  13
ENDBRANCH   1   2
BRANCH   1  16
ATOM     16  C   UNL     1      -1.734   1.182   0.509  0.00  0.00    +0.173 C 
BRANCH  16  18
ATOM     17  N   UNL     1       0.701   1.170   0.075  0.00  0.00    -0.308 N 
ATOM     18  C   UNL     1      -0.452   0.476   0.154  0.00  0.00    +0.224 C 
ATOM     19  O   UNL     1      -0.457  -0.717  -0.066  0.00  0.00    -0.275 OA
ATOM     20  H   UNL     1       0.706   2.252   0.275  0.00  0.00    +0.149 HD
BRANCH  17  21
ATOM     21  C   UNL     1       1.947   0.484  -0.276  0.00  0.00    +0.100 C 
ATOM     22  C   UNL     1       2.049   0.360  -1.797  0.00  0.00    +0.033 C 
BRANCH  21  29
ATOM     23  C   UNL     1       4.440  -0.848   0.318  0.00  0.00    +0.044 C 
ATOM     24  C   UNL     1       4.312   0.639   0.527  0.00  0.00    -0.046 A 
ATOM     25  C   UNL     1       5.388   1.365   1.003  0.00  0.00    +0.004 A 
ATOM     26  C   UNL     1       5.271   2.729   1.194  0.00  0.00    +0.000 A 
ATOM     27  C   UNL     1       4.078   3.367   0.909  0.00  0.00    +0.000 A 
ATOM     28  C   UNL     1       3.004   2.641   0.430  0.00  0.00    +0.006 A 
ATOM     29  C   UNL     1       3.119   1.276   0.243  0.00  0.00    -0.025 A 
ENDBRANCH  21  29
ENDBRANCH  17  21
ENDBRANCH  16  18
ENDBRANCH   1  16
TORSDOF 7
