REMARK  Name = ZINC20805374
REMARK  16 active torsions:
REMARK  status: ('A' for Active; 'I' for Inactive)
REMARK    1  A    between atoms: C_1  and  C_2
REMARK    2  A    between atoms: C_2  and  C_3
REMARK    3  A    between atoms: C_3  and  C_5
REMARK    4  A    between atoms: C_3  and  C_6
REMARK    5  A    between atoms: C_9  and  N_12
REMARK    6  A    between atoms: C_13  and  C_15
REMARK    7  A    between atoms: C_15  and  S_16
REMARK    8  A    between atoms: S_16  and  C_17
REMARK    9  A    between atoms: N_21  and  N_22
REMARK   10  A    between atoms: N_23  and  N_24
REMARK   11  A    between atoms: C_25  and  C_26
REMARK   12  A    between atoms: C_27  and  C_35
REMARK   13  A    between atoms: N_29  and  C_32
REMARK   14  A    between atoms: C_30  and  C_31
REMARK   15  A    between atoms: C_32  and  C_33
REMARK   16  A    between atoms: C_32  and  C_34
REMARK                            x       y       z     vdW  Elec       q    Type
REMARK                         _______ _______ _______ _____ _____    ______ ____
ROOT
ATOM      1  C   UNL     1      -5.679   3.508  10.929  0.00  0.00    +0.210 A 
ATOM      2  N   UNL     1      -6.750   4.240  10.738  0.00  0.00    -0.119 NA
ATOM      3  N   UNL     1      -7.295   4.545  11.992  0.00  0.00    -0.109 NA
ATOM      4  C   UNL     1      -6.534   3.997  12.909  0.00  0.00    +0.254 A 
ATOM      5  N   UNL     1      -5.516   3.342  12.275  0.00  0.00    -0.211 N 
ATOM      6  N   UNL     1      -6.729   4.070  14.280  0.00  0.00    -0.204 N 
ATOM      7  H   UNL     1      -6.026   3.571  14.963  0.00  0.00    +0.177 HD
ENDROOT
BRANCH   5   8
ATOM      8  N   UNL     1      -4.511   2.643  12.882  0.00  0.00    -0.294 N 
ATOM      9  H   UNL     1      -4.474   2.572  13.979  0.00  0.00    +0.163 HD
ATOM     10  H   UNL     1      -3.737   2.151  12.273  0.00  0.00    +0.163 HD
ENDBRANCH   5   8
BRANCH   6  11
ATOM     11  N   UNL     1      -7.821   4.780  14.796  0.00  0.00    -0.187 NA
ATOM     12  C   UNL     1      -8.003   4.848  16.079  0.00  0.00    +0.141 C 
BRANCH  12  13
ATOM     13  C   UNL     1      -9.154   5.596  16.623  0.00  0.00    +0.038 A 
ATOM     14  C   UNL     1     -10.134   6.282  15.875  0.00  0.00    +0.069 A 
ATOM     15  N   UNL     1     -10.984   6.815  16.711  0.00  0.00    -0.175 NA
ATOM     16  N   UNL     1     -10.592   6.499  18.017  0.00  0.00    -0.265 N 
ATOM     17  C   UNL     1      -9.474   5.747  17.954  0.00  0.00    +0.045 A 
ATOM     18  C   UNL     1      -8.713   5.181  19.125  0.00  0.00    +0.066 C 
ATOM     19  C   UNL     1     -10.190   6.384  14.372  0.00  0.00    +0.068 C 
BRANCH  16  20
ATOM     20  C   UNL     1     -11.282   6.909  19.242  0.00  0.00    +0.101 C 
ATOM     21  C   UNL     1     -11.322   8.437  19.317  0.00  0.00    +0.032 C 
ATOM     22  C   UNL     1     -12.711   6.362  19.231  0.00  0.00    +0.032 C 
ENDBRANCH  16  20
ENDBRANCH  12  13
ENDBRANCH   6  11
BRANCH   1  23
ATOM     23  S   UNL     1      -4.630   2.860   9.670  0.00  0.00    -0.075 S 
BRANCH  23  24
ATOM     24  C   UNL     1      -5.390   3.434   8.127  0.00  0.00    +0.173 C 
BRANCH  24  26
ATOM     25  N   UNL     1      -4.959   3.248   5.698  0.00  0.00    -0.285 N 
ATOM     26  C   UNL     1      -4.581   2.942   6.955  0.00  0.00    +0.227 C 
ATOM     27  O   UNL     1      -3.589   2.270   7.142  0.00  0.00    -0.275 OA
ATOM     28  H   UNL     1      -5.807   3.928   5.529  0.00  0.00    +0.155 HD
BRANCH  25  32
ATOM     29  C   UNL     1      -2.918   1.620   2.452  0.00  0.00    -0.044 A 
ATOM     30  C   UNL     1      -3.448   2.894   2.365  0.00  0.00    +0.006 A 
ATOM     31  C   UNL     1      -4.130   3.435   3.437  0.00  0.00    +0.023 A 
ATOM     32  C   UNL     1      -4.274   2.701   4.608  0.00  0.00    +0.033 A 
ATOM     33  C   UNL     1      -3.735   1.424   4.694  0.00  0.00    +0.023 A 
ATOM     34  C   UNL     1      -3.059   0.887   3.616  0.00  0.00    +0.006 A 
BRANCH  29  35
ATOM     35  C   UNL     1      -2.179   1.031   1.278  0.00  0.00    +0.016 C 
ATOM     36  C   UNL     1      -0.978   1.916   0.935  0.00  0.00    +0.012 C 
BRANCH  35  38
ATOM     37  C   UNL     1      -2.406   0.244  -1.083  0.00  0.00    +0.004 C 
ATOM     38  C   UNL     1      -3.116   0.955   0.071  0.00  0.00    +0.004 C 
ENDBRANCH  35  38
ENDBRANCH  29  35
ENDBRANCH  25  32
ENDBRANCH  24  26
ENDBRANCH  23  24
ENDBRANCH   1  23
TORSDOF 10
