REMARK  Name = ZINC06135266
REMARK  13 active torsions:
REMARK  status: ('A' for Active; 'I' for Inactive)
REMARK    1  A    between atoms: C_1  and  C_2
REMARK    2  A    between atoms: C_2  and  C_3
REMARK    3  A    between atoms: C_10  and  C_15
REMARK    4  A    between atoms: C_15  and  C_17
REMARK    5  A    between atoms: C_15  and  N_71
REMARK    6  A    between atoms: N_21  and  C_22
REMARK    7  A    between atoms: C_22  and  C_23
REMARK    8  A    between atoms: C_22  and  C_24
REMARK    9  A    between atoms: C_22  and  C_25
REMARK   10  A    between atoms: C_26  and  C_27
REMARK   11  A    between atoms: C_26  and  N_71
REMARK   12  A    between atoms: C_33  and  C_34
REMARK   13  A    between atoms: C_33  and  N_71
REMARK                            x       y       z     vdW  Elec       q    Type
REMARK                         _______ _______ _______ _____ _____    ______ ____
ROOT
ATOM      1  C   UNL     1       4.693  -1.550  -1.470  0.00  0.00    +0.040 C 
ENDROOT
BRANCH   1   9
ATOM      2  C   UNL     1       8.500  -1.880  -6.337  0.00  0.00    -0.047 A 
ATOM      3  C   UNL     1       7.508  -1.950  -7.306  0.00  0.00    +0.005 A 
ATOM      4  C   UNL     1       6.176  -1.931  -6.952  0.00  0.00    +0.026 A 
ATOM      5  C   UNL     1       5.820  -1.838  -5.610  0.00  0.00    +0.049 A 
ATOM      6  C   UNL     1       6.828  -1.766  -4.631  0.00  0.00    -0.001 A 
ATOM      7  C   UNL     1       8.174  -1.788  -5.014  0.00  0.00    +0.013 A 
ATOM      8  C   UNL     1       6.443  -1.663  -3.222  0.00  0.00    +0.017 A 
ATOM      9  C   UNL     1       5.123  -1.650  -2.911  0.00  0.00    +0.011 A 
ATOM     10  C   UNL     1       4.152  -1.725  -3.931  0.00  0.00    +0.251 A 
ATOM     11  O   UNL     1       2.971  -1.707  -3.630  0.00  0.00    -0.268 OA
ATOM     12  N   UNL     1       4.495  -1.815  -5.228  0.00  0.00    -0.322 N 
ATOM     13  H   UNL     1       3.780  -1.866  -5.925  0.00  0.00    +0.169 HD
BRANCH   2  15
ATOM     14  C   UNL     1      10.444  -3.350  -6.788  0.00  0.00    +0.009 C 
ATOM     15  C   UNL     1       9.949  -1.903  -6.749  0.00  0.00    +0.032 C 
ENDBRANCH   2  15
ENDBRANCH   1   9
BRANCH   1  16
ATOM     16  C   UNL     1       4.139  -2.876  -1.018  0.00  0.00    +0.143 A 
ATOM     17  N   UNL     1       3.041  -3.452  -1.444  0.00  0.00    -0.115 NA
ATOM     18  N   UNL     1       2.911  -4.572  -0.820  0.00  0.00    -0.023 NA
ATOM     19  N   UNL     1       3.893  -4.721  -0.001  0.00  0.00    -0.043 NA
ATOM     20  N   UNL     1       4.672  -3.697  -0.093  0.00  0.00    -0.225 N 
BRANCH  20  21
ATOM     21  C   UNL     1       5.904  -3.470   0.665  0.00  0.00    +0.059 C 
ATOM     22  C   UNL     1       5.746  -2.219   1.533  0.00  0.00    +0.036 C 
ATOM     23  C   UNL     1       6.184  -4.679   1.559  0.00  0.00    +0.036 C 
ATOM     24  C   UNL     1       7.071  -3.272  -0.305  0.00  0.00    +0.036 C 
ENDBRANCH  20  21
ENDBRANCH   1  16
BRANCH   1  25
ATOM     25  N   UNL     1       3.639  -0.519  -1.361  0.00  0.00    +0.395 N 
ATOM     26  H   UNL     1       2.986  -0.626  -2.146  0.00  0.00    -0.079 HD
BRANCH  25  27
ATOM     27  C   UNL     1       2.898  -0.686  -0.093  0.00  0.00    -0.041 C 
BRANCH  27  28
ATOM     28  C   UNL     1       1.699   0.227  -0.107  0.00  0.00    -0.064 A 
ATOM     29  C   UNL     1       0.498  -0.217  -0.628  0.00  0.00    +0.002 A 
ATOM     30  C   UNL     1      -0.601   0.620  -0.641  0.00  0.00    +0.000 A 
ATOM     31  C   UNL     1      -0.500   1.902  -0.133  0.00  0.00    +0.000 A 
ATOM     32  C   UNL     1       0.701   2.346   0.389  0.00  0.00    +0.000 A 
ATOM     33  C   UNL     1       1.801   1.508   0.401  0.00  0.00    +0.002 A 
ENDBRANCH  27  28
ENDBRANCH  25  27
BRANCH  25  34
ATOM     34  C   UNL     1       4.243   0.829  -1.419  0.00  0.00    -0.040 C 
BRANCH  34  35
ATOM     35  C   UNL     1       4.608   1.134  -2.849  0.00  0.00    -0.046 A 
ATOM     36  C   UNL     1       5.913   0.973  -3.290  0.00  0.00    +0.005 A 
ATOM     37  C   UNL     1       6.202   1.261  -4.615  0.00  0.00    +0.020 A 
ATOM     38  C   UNL     1       5.189   1.706  -5.444  0.00  0.00    +0.111 A 
ATOM     39  N   UNL     1       3.960   1.852  -4.988  0.00  0.00    -0.263 NA
ATOM     40  C   UNL     1       3.648   1.583  -3.735  0.00  0.00    +0.112 A 
ENDBRANCH  34  35
ENDBRANCH  25  34
ENDBRANCH   1  25
TORSDOF 9
