REMARK  Name = ZINC08955534
REMARK  6 active torsions:
REMARK  status: ('A' for Active; 'I' for Inactive)
REMARK    1  A    between atoms: C_1  and  C_2
REMARK    2  A    between atoms: C_4  and  C_26
REMARK    3  A    between atoms: C_5  and  C_25
REMARK    4  A    between atoms: N_6  and  C_7
REMARK    5  A    between atoms: C_8  and  C_16
REMARK    6  A    between atoms: N_18  and  C_19
REMARK                            x       y       z     vdW  Elec       q    Type
REMARK                         _______ _______ _______ _____ _____    ______ ____
ROOT
ATOM      1  C   UNL     1      -6.163   1.137  -0.398  0.00  0.00    +0.097 A 
ATOM      2  C   UNL     1      -7.133   0.200  -0.077  0.00  0.00    +0.072 A 
ATOM      3  C   UNL     1      -8.499   0.670   0.071  0.00  0.00    -0.023 A 
ATOM      4  C   UNL     1      -8.677   1.994  -0.137  0.00  0.00    -0.004 A 
ATOM      5  S   UNL     1      -7.062   2.613  -0.514  0.00  0.00    -0.075 S 
ATOM      6  C   UNL     1      -9.965   2.754  -0.061  0.00  0.00    +0.043 C 
ATOM      7  C   UNL     1     -11.123   1.746  -0.080  0.00  0.00    +0.005 C 
ATOM      8  C   UNL     1     -10.827   0.636   0.931  0.00  0.00    +0.005 C 
ATOM      9  C   UNL     1      -9.673  -0.233   0.428  0.00  0.00    +0.037 C 
ENDROOT
BRANCH   1  15
ATOM     10  C   UNL     1      -4.330   0.001   1.742  0.00  0.00    +0.064 C 
ATOM     11  C   UNL     1      -3.944   0.430   0.350  0.00  0.00    +0.022 A 
ATOM     12  C   UNL     1      -2.706   0.369  -0.168  0.00  0.00    +0.031 A 
ATOM     13  C   UNL     1      -2.798   0.890  -1.538  0.00  0.00    -0.002 A 
ATOM     14  C   UNL     1      -4.125   1.221  -1.732  0.00  0.00    +0.029 A 
ATOM     15  N   UNL     1      -4.800   0.939  -0.588  0.00  0.00    -0.311 N 
ATOM     16  C   UNL     1      -4.719   1.795  -2.993  0.00  0.00    +0.064 C 
BRANCH  13  17
ATOM     17  C   UNL     1      -1.705   1.026  -2.506  0.00  0.00    +0.038 C 
ATOM     18  C   UNL     1      -0.414   0.979  -2.083  0.00  0.00    +0.098 C 
ATOM     19  C   UNL     1       0.795   0.948  -2.915  0.00  0.00    +0.266 C 
ATOM     20  O   UNL     1       0.846   0.963  -4.131  0.00  0.00    -0.268 OA
ATOM     21  N   UNL     1       1.838   0.899  -2.061  0.00  0.00    -0.235 N 
ATOM     22  C   UNL     1       1.392   0.897  -0.796  0.00  0.00    +0.311 C 
ATOM     23  O   UNL     1       2.107   0.858   0.187  0.00  0.00    -0.252 OA
ATOM     24  N   UNL     1       0.048   0.944  -0.759  0.00  0.00    -0.265 N 
ATOM     25  H   UNL     1       2.771   0.870  -2.323  0.00  0.00    +0.159 HD
ATOM     26  H   UNL     1      -0.502   0.952   0.040  0.00  0.00    +0.157 HD
ENDBRANCH  13  17
ENDBRANCH   1  15
BRANCH   2  27
ATOM     27  C   UNL     1      -6.792  -1.215   0.112  0.00  0.00    +0.251 C 
ATOM     28  O   UNL     1      -6.591  -1.648   1.232  0.00  0.00    -0.270 OA
ATOM     29  N   UNL     1      -6.699  -2.034  -0.954  0.00  0.00    -0.281 N 
ATOM     30  H   UNL     1      -6.782  -1.674  -1.851  0.00  0.00    +0.155 HD
BRANCH  29  31
ATOM     31  C   UNL     1      -6.483  -3.403  -0.768  0.00  0.00    +0.034 A 
ATOM     32  C   UNL     1      -5.731  -4.121  -1.688  0.00  0.00    +0.023 A 
ATOM     33  C   UNL     1      -5.514  -5.471  -1.498  0.00  0.00    +0.002 A 
ATOM     34  C   UNL     1      -6.056  -6.112  -0.399  0.00  0.00    +0.000 A 
ATOM     35  C   UNL     1      -6.811  -5.401   0.517  0.00  0.00    +0.002 A 
ATOM     36  C   UNL     1      -7.026  -4.049   0.335  0.00  0.00    +0.023 A 
ENDBRANCH  29  31
ENDBRANCH   2  27
TORSDOF 4
