REMARK  Name = ZINC41026095
REMARK  7 active torsions:
REMARK  status: ('A' for Active; 'I' for Inactive)
REMARK    1  A    between atoms: C_4  and  N_7
REMARK    2  A    between atoms: C_12  and  N_24
REMARK    3  A    between atoms: N_16  and  C_17
REMARK    4  A    between atoms: C_17  and  C_18
REMARK    5  A    between atoms: C_18  and  C_19
REMARK    6  A    between atoms: N_24  and  C_25
REMARK    7  A    between atoms: C_28  and  C_31
REMARK                            x       y       z     vdW  Elec       q    Type
REMARK                         _______ _______ _______ _____ _____    ______ ____
ROOT
ATOM      1  N   UNL     1       3.504  -0.869  -0.325  0.00  0.00    -0.214 N 
ATOM      2  C   UNL     1       3.845  -1.914   0.486  0.00  0.00    +0.170 A 
ATOM      3  C   UNL     1       5.173  -2.255   0.164  0.00  0.00    +0.079 A 
ATOM      4  C   UNL     1       5.590  -1.375  -0.858  0.00  0.00    +0.148 A 
ATOM      5  N   UNL     1       4.603  -0.572  -1.140  0.00  0.00    -0.172 NA
ATOM      6  C   UNL     1       5.780  -3.317   0.863  0.00  0.00    +0.139 A 
ATOM      7  N   UNL     1       5.074  -3.949   1.792  0.00  0.00    -0.199 NA
ATOM      8  C   UNL     1       3.824  -3.595   2.064  0.00  0.00    +0.219 A 
ATOM      9  N   UNL     1       3.214  -2.605   1.434  0.00  0.00    -0.195 NA
ATOM     10  N   UNL     1       3.133  -4.287   3.043  0.00  0.00    -0.313 N 
ATOM     11  H   UNL     1       2.218  -4.043   3.256  0.00  0.00    +0.149 HD
ENDROOT
BRANCH   1  15
ATOM     12  C   UNL     1      -0.176   1.086  -0.376  0.00  0.00    +0.000 A 
ATOM     13  C   UNL     1       0.987   1.798  -0.610  0.00  0.00    +0.002 A 
ATOM     14  C   UNL     1       2.208   1.153  -0.593  0.00  0.00    +0.028 A 
ATOM     15  C   UNL     1       2.267  -0.212  -0.342  0.00  0.00    +0.068 A 
ATOM     16  C   UNL     1       1.098  -0.923  -0.107  0.00  0.00    +0.028 A 
ATOM     17  C   UNL     1      -0.120  -0.273  -0.125  0.00  0.00    +0.002 A 
ENDBRANCH   1  15
BRANCH   6  18
ATOM     18  N   UNL     1       7.081  -3.693   0.586  0.00  0.00    -0.299 N 
ATOM     19  H   UNL     1       7.614  -3.173  -0.036  0.00  0.00    +0.154 HD
BRANCH  18  20
ATOM     20  C   UNL     1       7.626  -4.818   1.199  0.00  0.00    +0.032 A 
ATOM     21  C   UNL     1       6.834  -5.941   1.420  0.00  0.00    +0.024 A 
ATOM     22  C   UNL     1       7.370  -7.054   2.026  0.00  0.00    +0.015 A 
ATOM     23  C   UNL     1       8.711  -7.057   2.420  0.00  0.00    +0.037 A 
ATOM     24  C   UNL     1       9.504  -5.928   2.196  0.00  0.00    +0.015 A 
ATOM     25  C   UNL     1       8.964  -4.819   1.584  0.00  0.00    +0.024 A 
BRANCH  23  26
ATOM     26  C   UNL     1       9.289  -8.248   3.070  0.00  0.00    +0.242 C 
ATOM     27  O   UNL     1       8.598  -9.230   3.265  0.00  0.00    -0.270 OA
ATOM     28  N   UNL     1      10.582  -8.249   3.449  0.00  0.00    -0.325 N 
ATOM     29  H   UNL     1      11.133  -7.466   3.294  0.00  0.00    +0.145 HD
ATOM     30  H   UNL     1      10.962  -9.033   3.877  0.00  0.00    +0.145 HD
ENDBRANCH  23  26
ENDBRANCH  18  20
ENDBRANCH   6  18
BRANCH  10  31
ATOM     31  C   UNL     1       3.782  -5.389   3.758  0.00  0.00    +0.109 C 
BRANCH  31  32
ATOM     32  C   UNL     1       2.807  -5.979   4.779  0.00  0.00    +0.061 C 
BRANCH  32  33
ATOM     33  C   UNL     1       3.475  -7.112   5.514  0.00  0.00    -0.009 A 
ATOM     34  C   UNL     1       4.199  -7.078   6.660  0.00  0.00    +0.011 A 
ATOM     35  C   UNL     1       4.722  -8.256   7.158  0.00  0.00    +0.008 A 
ATOM     36  C   UNL     1       4.497  -9.411   6.486  0.00  0.00    +0.045 A 
ATOM     37  S   UNL     1       3.512  -8.850   5.106  0.00  0.00    -0.102 S 
ENDBRANCH  32  33
ENDBRANCH  31  32
ENDBRANCH  10  31
TORSDOF 7
