REMARK  Name = ZINC13358309
REMARK  9 active torsions:
REMARK  status: ('A' for Active; 'I' for Inactive)
REMARK    1  A    between atoms: C_1  and  C_2
REMARK    2  A    between atoms: C_2  and  C_3
REMARK    3  A    between atoms: C_6  and  C_12
REMARK    4  A    between atoms: C_8  and  N_9
REMARK    5  A    between atoms: C_13  and  C_14
REMARK    6  A    between atoms: C_14  and  C_16
REMARK    7  A    between atoms: C_19  and  S_22
REMARK    8  A    between atoms: S_22  and  N_25
REMARK    9  A    between atoms: C_30  and  C_32
REMARK                            x       y       z     vdW  Elec       q    Type
REMARK                         _______ _______ _______ _____ _____    ______ ____
ROOT
ATOM      1  C   UNL     1      -7.170   1.782   2.336  0.00  0.00    +0.022 A 
ATOM      2  C   UNL     1      -6.817   2.673   1.321  0.00  0.00    +0.013 A 
ATOM      3  C   UNL     1      -5.569   2.594   0.740  0.00  0.00    +0.029 A 
ATOM      4  C   UNL     1      -4.666   1.634   1.162  0.00  0.00    +0.106 A 
ATOM      5  C   UNL     1      -5.010   0.745   2.165  0.00  0.00    +0.029 A 
ATOM      6  C   UNL     1      -6.254   0.816   2.757  0.00  0.00    +0.013 A 
ENDROOT
BRANCH   4   7
ATOM      7  S   UNL     1      -3.073   1.540   0.415  0.00  0.00    +0.062 S 
ATOM      8  O   UNL     1      -3.080   2.453  -0.674  0.00  0.00    -0.153 OA
ATOM      9  O   UNL     1      -2.784   0.159   0.248  0.00  0.00    -0.153 OA
BRANCH   7  10
ATOM     10  N   UNL     1      -1.981   2.123   1.515  0.00  0.00    -0.163 NA
ATOM     11  C   UNL     1      -1.332   1.221   2.476  0.00  0.00    +0.110 C 
ATOM     12  C   UNL     1      -1.543   1.769   3.891  0.00  0.00    +0.017 C 
ATOM     13  C   UNL     1      -1.049   3.217   3.951  0.00  0.00    +0.003 C 
ATOM     14  C   UNL     1      -1.853   4.076   2.972  0.00  0.00    +0.032 C 
ATOM     15  C   UNL     1      -1.642   3.552   1.548  0.00  0.00    +0.192 C 
BRANCH  15  16
ATOM     16  C   UNL     1      -2.533   4.305   0.593  0.00  0.00    +0.374 C 
ATOM     17  O   UNL     1      -3.732   4.278   0.737  0.00  0.00    -0.245 OA
ATOM     18  O   UNL     1      -1.993   5.004  -0.418  0.00  0.00    -0.245 OA
ENDBRANCH  15  16
ENDBRANCH   7  10
ENDBRANCH   4   7
BRANCH   1  19
ATOM     19  C   UNL     1      -8.507   1.862   2.963  0.00  0.00    +0.186 C 
ATOM     20  O   UNL     1      -9.303   2.705   2.594  0.00  0.00    -0.287 OA
BRANCH  19  22
ATOM     21  C   UNL     1     -10.093   0.999   4.599  0.00  0.00    +0.012 C 
ATOM     22  C   UNL     1      -8.872   0.927   4.027  0.00  0.00    +0.052 C 
BRANCH  21  26
ATOM     23  C   UNL     1     -11.152  -1.712   7.685  0.00  0.00    -0.017 A 
ATOM     24  C   UNL     1      -9.900  -1.789   7.100  0.00  0.00    +0.006 A 
ATOM     25  C   UNL     1      -9.548  -0.912   6.096  0.00  0.00    +0.008 A 
ATOM     26  C   UNL     1     -10.461   0.059   5.669  0.00  0.00    -0.023 A 
ATOM     27  C   UNL     1     -11.722   0.134   6.269  0.00  0.00    +0.041 A 
ATOM     28  C   UNL     1     -12.061  -0.754   7.268  0.00  0.00    +0.130 A 
BRANCH  28  29
ATOM     29  N   UNL     1     -13.397  -0.680   7.899  0.00  0.00    +0.057 N 
ATOM     30  O   UNL     1     -14.234   0.091   7.466  0.00  0.00    -0.126 OA
ATOM     31  O   UNL     1     -13.660  -1.391   8.853  0.00  0.00    -0.126 OA
ENDBRANCH  28  29
BRANCH  23  33
ATOM     32  C   UNL     1     -12.417  -3.780   8.206  0.00  0.00    +0.009 C 
ATOM     33  C   UNL     1     -11.529  -2.675   8.781  0.00  0.00    +0.034 C 
ENDBRANCH  23  33
ENDBRANCH  21  26
ENDBRANCH  19  22
ENDBRANCH   1  19
TORSDOF 8
