REMARK  Name = ZINC45026158
REMARK  8 active torsions:
REMARK  status: ('A' for Active; 'I' for Inactive)
REMARK    1  A    between atoms: C_1  and  C_2
REMARK    2  A    between atoms: C_2  and  C_4
REMARK    3  A    between atoms: C_2  and  N_25
REMARK    4  A    between atoms: C_7  and  S_16
REMARK    5  A    between atoms: N_8  and  C_9
REMARK    6  A    between atoms: S_16  and  C_17
REMARK    7  A    between atoms: N_25  and  C_26
REMARK    8  A    between atoms: N_25  and  C_27
REMARK                            x       y       z     vdW  Elec       q    Type
REMARK                         _______ _______ _______ _____ _____    ______ ____
ROOT
ATOM      1  C   UNL     1      -1.412  -0.526   0.013  0.00  0.00    +0.125 A 
ATOM      2  N   UNL     1      -2.238  -0.538  -0.995  0.00  0.00    -0.135 NA
ATOM      3  N   UNL     1      -3.361  -1.053  -0.640  0.00  0.00    -0.122 NA
ATOM      4  C   UNL     1      -3.313  -1.401   0.625  0.00  0.00    +0.202 A 
ATOM      5  N   UNL     1      -2.064  -1.080   1.081  0.00  0.00    -0.275 N 
ENDROOT
BRANCH   5   6
ATOM      6  C   UNL     1      -1.558  -1.275   2.375  0.00  0.00    +0.050 A 
ATOM      7  C   UNL     1      -0.499  -2.148   2.582  0.00  0.00    +0.029 A 
ATOM      8  C   UNL     1      -0.002  -2.339   3.857  0.00  0.00    +0.040 A 
ATOM      9  C   UNL     1      -0.559  -1.660   4.927  0.00  0.00    +0.124 A 
ATOM     10  C   UNL     1      -1.615  -0.789   4.722  0.00  0.00    +0.040 A 
ATOM     11  C   UNL     1      -2.111  -0.591   3.448  0.00  0.00    +0.029 A 
ATOM     12  F   UNL     1      -0.071  -1.847   6.173  0.00  0.00    -0.205 F 
ENDBRANCH   5   6
BRANCH   1  14
ATOM     13  C   UNL     1      -0.019   1.526   0.010  0.00  0.00    -0.005 C 
ATOM     14  C   UNL     1       0.002  -0.004   0.002  0.00  0.00    -0.003 C 
BRANCH  14  15
ATOM     15  N   UNL     1       0.690  -0.478  -1.207  0.00  0.00    +0.382 N 
ATOM     16  C   UNL     1       2.068   0.031  -1.217  0.00  0.00    -0.096 C 
ATOM     17  C   UNL     1       0.710  -1.947  -1.215  0.00  0.00    -0.096 C 
ATOM     18  H   UNL     1       0.202  -0.144  -2.024  0.00  0.00    -0.082 HD
ENDBRANCH  14  15
ENDBRANCH   1  14
BRANCH   4  19
ATOM     19  S   UNL     1      -4.609  -2.147   1.557  0.00  0.00    -0.030 S 
BRANCH  19  20
ATOM     20  C   UNL     1      -5.931  -2.299   0.402  0.00  0.00    +0.111 A 
ATOM     21  C   UNL     1      -7.151  -2.854   0.792  0.00  0.00    +0.075 A 
ATOM     22  C   UNL     1      -8.161  -2.953  -0.148  0.00  0.00    +0.135 A 
ATOM     23  N   UNL     1      -7.941  -2.522  -1.383  0.00  0.00    -0.203 NA
ATOM     24  C   UNL     1      -6.772  -2.000  -1.724  0.00  0.00    +0.215 A 
ATOM     25  N   UNL     1      -5.782  -1.882  -0.852  0.00  0.00    -0.208 NA
ATOM     26  N   UNL     1      -6.583  -1.561  -3.023  0.00  0.00    -0.327 N 
ATOM     27 CL   UNL     1      -9.697  -3.636   0.283  0.00  0.00    -0.062 Cl
ATOM     28  H   UNL     1      -7.301  -1.638  -3.671  0.00  0.00    +0.145 HD
ATOM     29  H   UNL     1      -5.732  -1.177  -3.286  0.00  0.00    +0.145 HD
ENDBRANCH  19  20
ENDBRANCH   4  19
TORSDOF 5
