REMARK  Name = ZINC40218583
REMARK  7 active torsions:
REMARK  status: ('A' for Active; 'I' for Inactive)
REMARK    1  A    between atoms: C_1  and  C_2
REMARK    2  A    between atoms: C_5  and  S_18
REMARK    3  A    between atoms: C_7  and  N_8
REMARK    4  A    between atoms: C_9  and  C_11
REMARK    5  A    between atoms: C_11  and  C_12
REMARK    6  A    between atoms: C_12  and  C_13
REMARK    7  A    between atoms: S_18  and  N_21
REMARK                            x       y       z     vdW  Elec       q    Type
REMARK                         _______ _______ _______ _____ _____    ______ ____
ROOT
ATOM      1  C   UNL     1      -1.264   1.184   0.181  0.00  0.00    +0.045 C 
ATOM      2  C   UNL     1      -0.584  -0.158   0.084  0.00  0.00    -0.029 A 
ATOM      3  C   UNL     1      -0.568  -0.840  -1.117  0.00  0.00    +0.007 A 
ATOM      4  C   UNL     1       0.055  -2.071  -1.206  0.00  0.00    +0.029 A 
ATOM      5  C   UNL     1       0.666  -2.622  -0.095  0.00  0.00    +0.107 A 
ATOM      6  C   UNL     1       0.655  -1.945   1.108  0.00  0.00    +0.052 A 
ATOM      7  C   UNL     1       0.034  -0.706   1.201  0.00  0.00    +0.038 A 
ENDROOT
BRANCH   7   8
ATOM      8  N   UNL     1       0.025  -0.015   2.417  0.00  0.00    -0.285 N 
ATOM      9  C   UNL     1      -0.056  -0.694   3.578  0.00  0.00    +0.217 C 
ATOM     10  O   UNL     1      -0.040  -1.907   3.573  0.00  0.00    -0.275 OA
ATOM     11  H   UNL     1       0.078   0.954   2.425  0.00  0.00    +0.155 HD
BRANCH   9  12
ATOM     12  C   UNL     1      -0.168   0.052   4.882  0.00  0.00    +0.096 C 
BRANCH  12  13
ATOM     13  C   UNL     1      -0.245  -0.948   6.037  0.00  0.00    +0.013 C 
BRANCH  13  14
ATOM     14  C   UNL     1      -0.358  -0.190   7.362  0.00  0.00    -0.011 C 
ATOM     15  C   UNL     1      -1.746   0.488   7.482  0.00  0.00    +0.003 C 
ATOM     16  C   UNL     1      -1.915   0.651   9.013  0.00  0.00    +0.000 C 
ATOM     17  C   UNL     1      -1.301  -0.636   9.601  0.00  0.00    +0.000 C 
ATOM     18  C   UNL     1      -0.311  -1.171   8.551  0.00  0.00    +0.003 C 
ENDBRANCH  13  14
ENDBRANCH  12  13
ENDBRANCH   9  12
ENDBRANCH   7   8
BRANCH   5  19
ATOM     19  S   UNL     1       1.460  -4.191  -0.214  0.00  0.00    +0.056 S 
ATOM     20  O   UNL     1       1.482  -4.736   1.098  0.00  0.00    -0.153 OA
ATOM     21  O   UNL     1       0.858  -4.868  -1.310  0.00  0.00    -0.153 OA
BRANCH  19  22
ATOM     22  N   UNL     1       3.036  -3.912  -0.638  0.00  0.00    -0.204 NA
ATOM     23  H   UNL     1       3.349  -3.003  -0.769  0.00  0.00    +0.144 HD
ATOM     24  H   UNL     1       3.646  -4.657  -0.755  0.00  0.00    +0.144 HD
ENDBRANCH  19  22
ENDBRANCH   5  19
TORSDOF 6
