REMARK  Name = ZINC60063137
REMARK  7 active torsions:
REMARK  status: ('A' for Active; 'I' for Inactive)
REMARK    1  A    between atoms: C_6  and  C_7
REMARK    2  A    between atoms: C_7  and  C_8
REMARK    3  A    between atoms: C_8  and  C_10
REMARK    4  A    between atoms: C_8  and  C_23
REMARK    5  A    between atoms: C_10  and  N_11
REMARK    6  A    between atoms: C_12  and  C_14
REMARK    7  A    between atoms: C_14  and  C_15
REMARK                            x       y       z     vdW  Elec       q    Type
REMARK                         _______ _______ _______ _____ _____    ______ ____
ROOT
ATOM      1  C   UNL     1      -1.818  -0.919  -1.431  0.00  0.00    +0.096 C 
ENDROOT
BRANCH   1   2
ATOM      2  C   UNL     1      -1.982   0.374  -2.188  0.00  0.00    +0.215 C 
ATOM      3  O   UNL     1      -3.078   0.885  -2.285  0.00  0.00    -0.276 OA
ATOM      4  N   UNL     1      -0.911   0.962  -2.756  0.00  0.00    -0.329 N 
ATOM      5  H   UNL     1      -0.049   0.519  -2.741  0.00  0.00    +0.145 HD
ATOM      6  H   UNL     1      -1.003   1.829  -3.182  0.00  0.00    +0.145 HD
ENDBRANCH   1   2
BRANCH   1   7
ATOM      7  C   UNL     1      -1.675  -0.621   0.063  0.00  0.00    +0.049 C 
BRANCH   7  13
ATOM      8  C   UNL     1      -0.436   1.530   0.379  0.00  0.00    +0.006 A 
ATOM      9  C   UNL     1       0.731   2.238   0.599  0.00  0.00    +0.038 A 
ATOM     10  C   UNL     1       1.932   1.565   0.741  0.00  0.00    +0.123 A 
ATOM     11  C   UNL     1       1.964   0.183   0.663  0.00  0.00    +0.038 A 
ATOM     12  C   UNL     1       0.796  -0.523   0.444  0.00  0.00    +0.006 A 
ATOM     13  C   UNL     1      -0.403   0.150   0.302  0.00  0.00    -0.046 A 
ATOM     14  F   UNL     1       3.073   2.256   0.955  0.00  0.00    -0.205 F 
ENDBRANCH   7  13
ENDBRANCH   1   7
BRANCH   1  15
ATOM     15  C   UNL     1      -3.045  -1.803  -1.660  0.00  0.00    +0.117 C 
BRANCH  15  16
ATOM     16  N   UNL     1      -3.143  -2.144  -3.082  0.00  0.00    -0.314 N 
ATOM     17  C   UNL     1      -4.209  -2.833  -3.537  0.00  0.00    +0.217 C 
ATOM     18  O   UNL     1      -5.086  -3.170  -2.771  0.00  0.00    -0.275 OA
ATOM     19  H   UNL     1      -2.442  -1.875  -3.695  0.00  0.00    +0.149 HD
BRANCH  17  20
ATOM     20  C   UNL     1      -4.310  -3.183  -5.000  0.00  0.00    +0.132 C 
BRANCH  20  21
ATOM     21  C   UNL     1      -5.585  -3.947  -5.246  0.00  0.00    -0.020 A 
ATOM     22  C   UNL     1      -5.573  -5.330  -5.249  0.00  0.00    +0.007 A 
ATOM     23  C   UNL     1      -6.742  -6.031  -5.475  0.00  0.00    +0.020 A 
ATOM     24  C   UNL     1      -7.926  -5.350  -5.698  0.00  0.00    +0.042 A 
ATOM     25  C   UNL     1      -7.939  -3.967  -5.695  0.00  0.00    +0.040 A 
ATOM     26  C   UNL     1      -6.769  -3.265  -5.464  0.00  0.00    +0.046 A 
ATOM     27 CL   UNL     1      -6.785  -1.529  -5.454  0.00  0.00    -0.083 Cl
ATOM     28 CL   UNL     1      -9.394  -6.231  -5.982  0.00  0.00    -0.083 Cl
ENDBRANCH  20  21
ENDBRANCH  17  20
ENDBRANCH  15  16
ENDBRANCH   1  15
TORSDOF 7
