REMARK  Name = ZINC11418478
REMARK  8 active torsions:
REMARK  status: ('A' for Active; 'I' for Inactive)
REMARK    1  A    between atoms: C_1  and  C_2
REMARK    2  A    between atoms: C_2  and  C_3
REMARK    3  A    between atoms: C_2  and  C_4
REMARK    4  A    between atoms: C_4  and  C_6
REMARK    5  A    between atoms: C_4  and  N_22
REMARK    6  A    between atoms: N_8  and  C_9
REMARK    7  A    between atoms: C_12  and  N_16
REMARK    8  A    between atoms: C_23  and  C_25
REMARK                            x       y       z     vdW  Elec       q    Type
REMARK                         _______ _______ _______ _____ _____    ______ ____
ROOT
ATOM      1  C   UNL     1      -1.634   7.292  -1.295  0.00  0.00    +0.162 C 
ENDROOT
BRANCH   1   2
ATOM      2  C   UNL     1      -2.901   7.643  -2.031  0.00  0.00    +0.238 C 
ATOM      3  O   UNL     1      -3.349   6.883  -2.864  0.00  0.00    -0.273 OA
ATOM      4  N   UNL     1      -3.537   8.801  -1.764  0.00  0.00    -0.284 N 
ATOM      5  H   UNL     1      -3.227   9.369  -1.041  0.00  0.00    +0.155 HD
BRANCH   4   6
ATOM      6  C   UNL     1      -4.645   9.184  -2.530  0.00  0.00    +0.035 A 
ATOM      7  C   UNL     1      -5.509   8.220  -3.032  0.00  0.00    +0.025 A 
ATOM      8  C   UNL     1      -6.604   8.597  -3.783  0.00  0.00    +0.027 A 
ATOM      9  C   UNL     1      -6.837   9.941  -4.046  0.00  0.00    +0.055 A 
ATOM     10  C   UNL     1      -5.969  10.906  -3.548  0.00  0.00    +0.064 A 
ATOM     11  C   UNL     1      -4.876  10.528  -2.792  0.00  0.00    +0.045 A 
ATOM     12 CL   UNL     1      -6.259  12.586  -3.877  0.00  0.00    -0.082 Cl
BRANCH   9  13
ATOM     13  N   UNL     1      -7.946  10.323  -4.812  0.00  0.00    -0.270 N 
ATOM     14  C   UNL     1      -7.931  10.474  -6.272  0.00  0.00    +0.114 C 
ATOM     15  C   UNL     1      -9.417  10.466  -6.700  0.00  0.00    +0.029 C 
ATOM     16  C   UNL     1     -10.116  10.971  -5.416  0.00  0.00    +0.098 C 
ATOM     17  C   UNL     1      -9.158  10.605  -4.304  0.00  0.00    +0.220 C 
ATOM     18  O   UNL     1      -9.442  10.571  -3.125  0.00  0.00    -0.275 OA
ENDBRANCH   9  13
ENDBRANCH   4   6
ENDBRANCH   1   2
BRANCH   1  19
ATOM     19  N   UNL     1      -1.437   5.841  -1.325  0.00  0.00    -0.303 N 
ATOM     20  C   UNL     1      -0.709   5.239  -0.364  0.00  0.00    +0.220 C 
ATOM     21  O   UNL     1      -0.216   5.899   0.527  0.00  0.00    -0.275 OA
ATOM     22  H   UNL     1      -1.831   5.313  -2.037  0.00  0.00    +0.149 HD
BRANCH  20  23
ATOM     23  C   UNL     1      -0.506   3.746  -0.395  0.00  0.00    +0.048 C 
ATOM     24  C   UNL     1       0.201   3.355  -1.694  0.00  0.00    +0.019 C 
ATOM     25  C   UNL     1       0.407   1.839  -1.726  0.00  0.00    -0.009 C 
ATOM     26  C   UNL     1       1.263   1.415  -0.531  0.00  0.00    +0.007 C 
ATOM     27  C   UNL     1       0.556   1.807   0.768  0.00  0.00    -0.009 C 
ATOM     28  C   UNL     1       0.350   3.322   0.800  0.00  0.00    +0.019 C 
ATOM     29  C   UNL     1      -0.802   1.106   0.840  0.00  0.00    +0.007 C 
ATOM     30  C   UNL     1      -1.659   1.530  -0.355  0.00  0.00    -0.009 C 
ATOM     31  C   UNL     1      -0.952   1.138  -1.654  0.00  0.00    +0.007 C 
ATOM     32  C   UNL     1      -1.865   3.046  -0.323  0.00  0.00    +0.019 C 
ENDBRANCH  20  23
ENDBRANCH   1  19
BRANCH   1  34
ATOM     33  C   UNL     1       0.814   7.766  -1.126  0.00  0.00    +0.009 C 
ATOM     34  C   UNL     1      -0.445   7.982  -1.968  0.00  0.00    +0.012 C 
ATOM     35  C   UNL     1      -0.234   7.390  -3.362  0.00  0.00    +0.009 C 
ENDBRANCH   1  34
TORSDOF 6
