REMARK  Name = ZINC57327401
REMARK  5 active torsions:
REMARK  status: ('A' for Active; 'I' for Inactive)
REMARK    1  A    between atoms: C_1  and  C_2
REMARK    2  A    between atoms: C_2  and  C_3
REMARK    3  A    between atoms: C_3  and  C_4
REMARK    4  A    between atoms: C_4  and  C_5
REMARK    5  A    between atoms: C_5  and  N_6
REMARK                            x       y       z     vdW  Elec       q    Type
REMARK                         _______ _______ _______ _____ _____    ______ ____
ROOT
ATOM      1  N   UNL     1       1.475  -3.990  -2.532  0.00  0.00    -0.266 NA
ATOM      2  C   UNL     1       1.965  -4.503  -3.819  0.00  0.00    +0.130 C 
ATOM      3  C   UNL     1       2.144  -5.997  -3.733  0.00  0.00    +0.051 A 
ATOM      4  C   UNL     1       2.213  -6.633  -2.506  0.00  0.00    +0.130 A 
ATOM      5  C   UNL     1       2.384  -8.017  -2.438  0.00  0.00    +0.047 A 
ATOM      6  C   UNL     1       2.483  -8.762  -3.577  0.00  0.00    +0.015 A 
ATOM      7  C   UNL     1       2.413  -8.134  -4.825  0.00  0.00    +0.022 A 
ATOM      8  C   UNL     1       2.243  -6.739  -4.901  0.00  0.00    +0.147 A 
ATOM      9  O   UNL     1       2.179  -6.138  -6.108  0.00  0.00    -0.422 OA
ATOM     10  C   UNL     1       2.273  -6.840  -7.247  0.00  0.00    +0.341 A 
ATOM     11  O   UNL     1       2.211  -6.252  -8.312  0.00  0.00    -0.245 OA
ATOM     12  C   UNL     1       2.442  -8.243  -7.247  0.00  0.00    +0.041 A 
ATOM     13  C   UNL     1       2.514  -8.906  -6.066  0.00  0.00    -0.027 A 
ATOM     14  C   UNL     1       2.695 -10.387  -6.304  0.00  0.00    +0.036 C 
ATOM     15  C   UNL     1       2.293 -10.607  -7.779  0.00  0.00    +0.010 C 
ATOM     16  C   UNL     1       2.568  -9.219  -8.397  0.00  0.00    +0.043 C 
ATOM     17  O   UNL     1       2.111  -5.926  -1.350  0.00  0.00    -0.476 OA
ATOM     18  C   UNL     1       2.301  -4.512  -1.431  0.00  0.00    +0.318 C 
ENDROOT
BRANCH   1  19
ATOM     19  C   UNL     1       1.455  -2.521  -2.524  0.00  0.00    +0.088 C 
BRANCH  19  20
ATOM     20  C   UNL     1       0.739  -2.027  -1.265  0.00  0.00    +0.015 C 
BRANCH  20  21
ATOM     21  C   UNL     1       0.718  -0.497  -1.257  0.00  0.00    +0.001 C 
BRANCH  21  23
ATOM     22  C   UNL     1      -0.019   1.526   0.010  0.00  0.00    +0.004 C 
ATOM     23  C   UNL     1       0.002  -0.004   0.002  0.00  0.00    -0.003 C 
ENDBRANCH  21  23
ENDBRANCH  20  21
ENDBRANCH  19  20
ENDBRANCH   1  19
TORSDOF 4
