REMARK  Name = ZINC10376533
REMARK  12 active torsions:
REMARK  status: ('A' for Active; 'I' for Inactive)
REMARK    1  A    between atoms: C_1  and  C_2
REMARK    2  A    between atoms: C_2  and  C_3
REMARK    3  A    between atoms: C_2  and  C_4
REMARK    4  A    between atoms: C_4  and  C_6
REMARK    5  A    between atoms: C_4  and  N_11
REMARK    6  A    between atoms: C_12  and  C_14
REMARK    7  A    between atoms: C_17  and  S_20
REMARK    8  A    between atoms: S_20  and  N_23
REMARK    9  A    between atoms: N_23  and  C_24
REMARK   10  A    between atoms: C_26  and  N_32
REMARK   11  A    between atoms: C_29  and  O_30
REMARK   12  A    between atoms: O_30  and  C_31
REMARK                            x       y       z     vdW  Elec       q    Type
REMARK                         _______ _______ _______ _____ _____    ______ ____
ROOT
ATOM      1  C   UNL     1      -4.632   0.313   5.215  0.00  0.00    +0.037 A 
ATOM      2  C   UNL     1      -5.886   0.314   4.603  0.00  0.00    +0.015 A 
ATOM      3  C   UNL     1      -5.985   0.125   3.240  0.00  0.00    +0.029 A 
ATOM      4  C   UNL     1      -4.845  -0.066   2.480  0.00  0.00    +0.109 A 
ATOM      5  C   UNL     1      -3.599  -0.073   3.082  0.00  0.00    +0.029 A 
ATOM      6  C   UNL     1      -3.486   0.120   4.443  0.00  0.00    +0.015 A 
ENDROOT
BRANCH   1   8
ATOM      7  N   UNL     1      -3.306   0.513   7.264  0.00  0.00    -0.304 N 
ATOM      8  C   UNL     1      -4.519   0.515   6.675  0.00  0.00    +0.245 C 
ATOM      9  O   UNL     1      -5.519   0.683   7.345  0.00  0.00    -0.270 OA
ATOM     10  H   UNL     1      -2.508   0.379   6.729  0.00  0.00    +0.150 HD
BRANCH   7  11
ATOM     11  C   UNL     1      -3.193   0.713   8.710  0.00  0.00    +0.113 C 
BRANCH  11  12
ATOM     12  C   UNL     1      -1.916   0.086   9.207  0.00  0.00    +0.010 A 
ATOM     13  C   UNL     1      -1.696  -0.617  10.345  0.00  0.00    +0.013 A 
ATOM     14  C   UNL     1      -0.428  -1.105  10.597  0.00  0.00    +0.008 A 
ATOM     15  C   UNL     1       0.558  -0.867   9.698  0.00  0.00    +0.045 A 
ATOM     16  S   UNL     1      -0.302   0.068   8.444  0.00  0.00    -0.100 S 
ENDBRANCH  11  12
BRANCH  11  18
ATOM     17  C   UNL     1      -2.059   2.885   8.220  0.00  0.00    +0.009 C 
ATOM     18  C   UNL     1      -3.178   2.212   9.018  0.00  0.00    +0.008 C 
ATOM     19  C   UNL     1      -4.524   2.827   8.628  0.00  0.00    +0.009 C 
ENDBRANCH  11  18
ENDBRANCH   7  11
ENDBRANCH   1   8
BRANCH   4  20
ATOM     20  S   UNL     1      -4.980  -0.307   0.740  0.00  0.00    +0.072 S 
ATOM     21  O   UNL     1      -6.289  -0.807   0.500  0.00  0.00    -0.150 OA
ATOM     22  O   UNL     1      -3.812  -1.006   0.335  0.00  0.00    -0.150 OA
BRANCH  20  23
ATOM     23  N   UNL     1      -4.907   1.188   0.031  0.00  0.00    -0.213 N 
ATOM     24  H   UNL     1      -5.652   1.509  -0.501  0.00  0.00    +0.174 HD
BRANCH  23  25
ATOM     25  C   UNL     1      -3.771   1.987   0.200  0.00  0.00    +0.092 A 
ATOM     26  C   UNL     1      -2.513   1.404   0.265  0.00  0.00    +0.061 A 
ATOM     27  C   UNL     1      -1.393   2.196   0.431  0.00  0.00    +0.128 A 
ATOM     28  C   UNL     1      -1.521   3.568   0.539  0.00  0.00    +0.036 A 
ATOM     29  C   UNL     1      -2.771   4.157   0.469  0.00  0.00    +0.050 A 
ATOM     30  C   UNL     1      -3.899   3.371   0.303  0.00  0.00    +0.142 A 
BRANCH  27  31
ATOM     31  N   UNL     1      -0.052   1.573   0.500  0.00  0.00    +0.056 N 
ATOM     32  O   UNL     1       0.062   0.363   0.411  0.00  0.00    -0.126 OA
ATOM     33  O   UNL     1       0.937   2.269   0.642  0.00  0.00    -0.126 OA
ENDBRANCH  27  31
BRANCH  30  34
ATOM     34  O   UNL     1      -5.129   3.948   0.240  0.00  0.00    -0.493 OA
ATOM     35  C   UNL     1      -5.184   5.371   0.352  0.00  0.00    +0.277 C 
ENDBRANCH  30  34
ENDBRANCH  23  25
ENDBRANCH  20  23
ENDBRANCH   4  20
TORSDOF 9
