REMARK  Name = ZINC40173468
REMARK  8 active torsions:
REMARK  status: ('A' for Active; 'I' for Inactive)
REMARK    1  A    between atoms: C_1  and  C_2
REMARK    2  A    between atoms: C_2  and  C_3
REMARK    3  A    between atoms: C_3  and  C_5
REMARK    4  A    between atoms: C_3  and  N_20
REMARK    5  A    between atoms: C_10  and  C_13
REMARK    6  A    between atoms: C_24  and  S_25
REMARK    7  A    between atoms: S_25  and  C_26
REMARK    8  A    between atoms: C_26  and  C_27
REMARK                            x       y       z     vdW  Elec       q    Type
REMARK                         _______ _______ _______ _____ _____    ______ ____
ROOT
ATOM      1  C   UNL     1       0.870  -2.011   1.172  0.00  0.00    +0.242 C 
ATOM      2  O   UNL     1       0.382  -2.702   2.041  0.00  0.00    -0.273 OA
ATOM      3  N   UNL     1       1.526  -2.584   0.144  0.00  0.00    -0.263 N 
ATOM      4  C   UNL     1       1.644  -3.967   0.080  0.00  0.00    +0.165 A 
ATOM      5  N   UNL     1       2.244  -4.713  -0.829  0.00  0.00    -0.225 NA
ATOM      6  C   UNL     1       2.260  -6.034  -0.734  0.00  0.00    +0.080 A 
ATOM      7  C   UNL     1       1.644  -6.637   0.327  0.00  0.00    +0.076 A 
ATOM      8  S   UNL     1       1.030  -5.208   1.210  0.00  0.00    -0.060 S 
ATOM      9  H   UNL     1       1.916  -2.031  -0.551  0.00  0.00    +0.157 HD
ENDROOT
BRANCH   6  10
ATOM     10  C   UNL     1       2.941  -6.851  -1.768  0.00  0.00    +0.001 A 
ATOM     11  C   UNL     1       2.950  -8.241  -1.666  0.00  0.00    +0.011 A 
ATOM     12  C   UNL     1       3.585  -8.997  -2.631  0.00  0.00    +0.020 A 
ATOM     13  C   UNL     1       4.212  -8.377  -3.698  0.00  0.00    +0.041 A 
ATOM     14  C   UNL     1       4.206  -6.996  -3.803  0.00  0.00    +0.020 A 
ATOM     15  C   UNL     1       3.568  -6.232  -2.847  0.00  0.00    +0.011 A 
ATOM     16 CL   UNL     1       5.008  -9.333  -4.908  0.00  0.00    -0.084 Cl
ENDBRANCH   6  10
BRANCH   1  17
ATOM     17  C   UNL     1       0.742  -0.511   1.242  0.00  0.00    +0.178 C 
BRANCH  17  18
ATOM     18  N   UNL     1      -0.008  -0.140   2.444  0.00  0.00    -0.279 N 
ATOM     19  C   UNL     1      -1.285  -0.522   2.743  0.00  0.00    +0.216 A 
ATOM     20  N   UNL     1      -1.607   0.007   3.898  0.00  0.00    -0.113 NA
ATOM     21  N   UNL     1      -0.509   0.749   4.355  0.00  0.00    -0.121 NA
ATOM     22  C   UNL     1       0.448   0.644   3.466  0.00  0.00    +0.194 A 
ATOM     23  N   UNL     1      -2.100  -1.330   1.960  0.00  0.00    -0.328 N 
ATOM     24  H   UNL     1      -1.772  -1.676   1.116  0.00  0.00    +0.145 HD
ATOM     25  H   UNL     1      -2.997  -1.548   2.258  0.00  0.00    +0.145 HD
BRANCH  22  26
ATOM     26  S   UNL     1       2.043   1.387   3.569  0.00  0.00    -0.071 S 
BRANCH  26  27
ATOM     27  C   UNL     1       2.009   2.281   5.147  0.00  0.00    +0.195 C 
BRANCH  27  28
ATOM     28  C   UNL     1       3.301   2.956   5.356  0.00  0.00    +0.074 C 
ATOM     29  N   UNL     1       4.298   3.476   5.517  0.00  0.00    -0.196 NA
ENDBRANCH  27  28
ENDBRANCH  26  27
ENDBRANCH  22  26
ENDBRANCH  17  18
BRANCH  17  31
ATOM     30  C   UNL     1      -0.019   1.526   0.010  0.00  0.00    +0.006 C 
ATOM     31  C   UNL     1       0.002  -0.004   0.002  0.00  0.00    +0.031 C 
ENDBRANCH  17  31
ENDBRANCH   1  17
TORSDOF 7
