REMARK  Name = ZINC65582715
REMARK  10 active torsions:
REMARK  status: ('A' for Active; 'I' for Inactive)
REMARK    1  A    between atoms: C_1  and  C_2
REMARK    2  A    between atoms: C_2  and  C_3
REMARK    3  A    between atoms: C_3  and  C_4
REMARK    4  A    between atoms: C_4  and  C_5
REMARK    5  A    between atoms: C_5  and  C_6
REMARK    6  A    between atoms: C_5  and  N_21
REMARK    7  A    between atoms: N_8  and  C_9
REMARK    8  A    between atoms: N_8  and  C_10
REMARK    9  A    between atoms: C_10  and  C_11
REMARK   10  A    between atoms: C_16  and  C_17
REMARK                            x       y       z     vdW  Elec       q    Type
REMARK                         _______ _______ _______ _____ _____    ______ ____
ROOT
ATOM      1  C   UNL     1       1.891  -4.021  -2.552  0.00  0.00    +0.236 C 
ATOM      2  O   UNL     1       0.928  -4.590  -3.021  0.00  0.00    -0.274 OA
ATOM      3  N   UNL     1       2.870  -4.730  -1.957  0.00  0.00    -0.299 N 
ATOM      4  C   UNL     1       4.032  -4.042  -1.390  0.00  0.00    +0.132 C 
ENDROOT
BRANCH   1   5
ATOM      5  C   UNL     1       1.992  -2.519  -2.635  0.00  0.00    +0.160 C 
BRANCH   5   6
ATOM      6  N   UNL     1       1.110  -2.028  -3.696  0.00  0.00    -0.288 N 
ATOM      7  C   UNL     1      -0.216  -2.262  -3.633  0.00  0.00    +0.298 C 
ATOM      8  O   UNL     1      -0.680  -2.881  -2.695  0.00  0.00    -0.253 OA
ATOM      9  N   UNL     1      -1.028  -1.810  -4.610  0.00  0.00    -0.313 N 
ATOM     10  H   UNL     1       1.480  -1.534  -4.445  0.00  0.00    +0.151 HD
ATOM     11  H   UNL     1      -0.657  -1.317  -5.358  0.00  0.00    +0.146 HD
ATOM     12  H   UNL     1      -1.982  -1.979  -4.564  0.00  0.00    +0.146 HD
ENDBRANCH   5   6
BRANCH   5  13
ATOM     13  C   UNL     1       1.571  -1.905  -1.298  0.00  0.00    +0.032 C 
BRANCH  13  14
ATOM     14  C   UNL     1       1.792  -0.392  -1.339  0.00  0.00    +0.002 C 
BRANCH  14  16
ATOM     15  C   UNL     1       1.592   1.735  -0.044  0.00  0.00    +0.004 C 
ATOM     16  C   UNL     1       1.372   0.222  -0.003  0.00  0.00    -0.003 C 
ENDBRANCH  14  16
ENDBRANCH  13  14
ENDBRANCH   5  13
ENDBRANCH   1   5
BRANCH   3  17
ATOM     17  C   UNL     1       2.771  -6.190  -1.877  0.00  0.00    +0.143 C 
BRANCH  17  18
ATOM     18  C   UNL     1       3.506  -6.807  -3.038  0.00  0.00    -0.019 A 
ATOM     19  C   UNL     1       4.213  -6.005  -3.915  0.00  0.00    +0.006 A 
ATOM     20  C   UNL     1       4.887  -6.571  -4.980  0.00  0.00    +0.000 A 
ATOM     21  C   UNL     1       4.854  -7.940  -5.170  0.00  0.00    +0.001 A 
ATOM     22  C   UNL     1       4.148  -8.743  -4.293  0.00  0.00    +0.013 A 
ATOM     23  C   UNL     1       3.478  -8.177  -3.225  0.00  0.00    +0.059 A 
BRANCH  23  24
ATOM     24  C   UNL     1       2.713  -9.052  -2.266  0.00  0.00    +0.418 C 
ATOM     25  F   UNL     1       2.749 -10.377  -2.714  0.00  0.00    -0.166 F 
ATOM     26  F   UNL     1       3.295  -8.973  -0.996  0.00  0.00    -0.166 F 
ATOM     27  F   UNL     1       1.384  -8.618  -2.198  0.00  0.00    -0.166 F 
ENDBRANCH  23  24
ENDBRANCH  17  18
ENDBRANCH   3  17
TORSDOF 8
