REMARK  Name = ZINC21543499
REMARK  7 active torsions:
REMARK  status: ('A' for Active; 'I' for Inactive)
REMARK    1  A    between atoms: C_1  and  C_2
REMARK    2  A    between atoms: C_2  and  C_4
REMARK    3  A    between atoms: C_2  and  O_14
REMARK    4  A    between atoms: N_6  and  C_7
REMARK    5  A    between atoms: O_14  and  C_15
REMARK    6  A    between atoms: C_15  and  C_17
REMARK    7  A    between atoms: C_24  and  C_29
REMARK                            x       y       z     vdW  Elec       q    Type
REMARK                         _______ _______ _______ _____ _____    ______ ____
ROOT
ATOM      1  C   UNL     1      -1.204   1.424  -3.579  0.00  0.00    +0.059 A 
ATOM      2  C   UNL     1      -2.048   2.534  -3.504  0.00  0.00    +0.016 A 
ATOM      3  C   UNL     1      -2.221   3.187  -2.302  0.00  0.00    +0.016 A 
ATOM      4  C   UNL     1      -1.550   2.737  -1.166  0.00  0.00    +0.062 A 
ATOM      5  C   UNL     1      -0.703   1.630  -1.237  0.00  0.00    -0.029 A 
ATOM      6  C   UNL     1      -0.533   0.977  -2.440  0.00  0.00    +0.019 A 
ATOM      7  C   UNL     1       0.026   1.144  -0.012  0.00  0.00    +0.085 C 
ATOM      8  C   UNL     1      -0.678   1.636   1.253  0.00  0.00    +0.211 C 
ATOM      9  O   UNL     1      -0.908   3.071   1.149  0.00  0.00    -0.453 OA
ATOM     10  C   UNL     1      -1.734   3.431   0.133  0.00  0.00    +0.340 C 
ATOM     11  O   UNL     1      -2.585   4.284   0.281  0.00  0.00    -0.245 OA
ENDROOT
BRANCH   8  12
ATOM     12  C   UNL     1       0.189   1.356   2.453  0.00  0.00    -0.007 A 
ATOM     13  C   UNL     1       1.182   2.248   2.812  0.00  0.00    +0.007 A 
ATOM     14  C   UNL     1       1.973   1.993   3.917  0.00  0.00    +0.000 A 
ATOM     15  C   UNL     1       1.780   0.841   4.655  0.00  0.00    +0.000 A 
ATOM     16  C   UNL     1       0.790  -0.054   4.292  0.00  0.00    +0.000 A 
ATOM     17  C   UNL     1      -0.005   0.203   3.192  0.00  0.00    +0.007 A 
ENDBRANCH   8  12
BRANCH   1  18
ATOM     18  C   UNL     1      -1.020   0.722  -4.868  0.00  0.00    +0.340 C 
ATOM     19  O   UNL     1      -0.285  -0.243  -4.934  0.00  0.00    -0.245 OA
BRANCH  18  20
ATOM     20  O   UNL     1      -1.666   1.153  -5.968  0.00  0.00    -0.449 OA
BRANCH  20  22
ATOM     21  C   UNL     1      -0.248   1.023  -7.943  0.00  0.00    +0.062 C 
ATOM     22  C   UNL     1      -1.438   0.416  -7.198  0.00  0.00    +0.259 C 
BRANCH  22  23
ATOM     23  C   UNL     1      -2.667   0.494  -8.066  0.00  0.00    +0.258 C 
ATOM     24  O   UNL     1      -3.606   1.184  -7.728  0.00  0.00    -0.271 OA
ATOM     25  N   UNL     1      -2.724  -0.203  -9.218  0.00  0.00    -0.280 N 
ATOM     26  H   UNL     1      -1.847  -0.770  -9.561  0.00  0.00    +0.155 HD
BRANCH  25  27
ATOM     27  C   UNL     1      -3.901  -0.204  -9.978  0.00  0.00    +0.069 A 
ATOM     28  C   UNL     1      -4.696   0.932 -10.032  0.00  0.00    +0.026 A 
ATOM     29  C   UNL     1      -5.853   0.929 -10.787  0.00  0.00    +0.002 A 
ATOM     30  C   UNL     1      -6.226  -0.207 -11.480  0.00  0.00    +0.003 A 
ATOM     31  C   UNL     1      -5.440  -1.344 -11.425  0.00  0.00    +0.040 A 
ATOM     32  C   UNL     1      -4.278  -1.347 -10.676  0.00  0.00    +0.144 A 
ATOM     33  F   UNL     1      -3.510  -2.457 -10.621  0.00  0.00    -0.204 F 
ENDBRANCH  25  27
ENDBRANCH  22  23
ENDBRANCH  20  22
ENDBRANCH  18  20
ENDBRANCH   1  18
TORSDOF 6
