REMARK  Name = ZINC32946865
REMARK  10 active torsions:
REMARK  status: ('A' for Active; 'I' for Inactive)
REMARK    1  A    between atoms: C_1  and  C_2
REMARK    2  A    between atoms: C_5  and  C_14
REMARK    3  A    between atoms: C_12  and  C_13
REMARK    4  A    between atoms: C_14  and  O_15
REMARK    5  A    between atoms: O_15  and  C_16
REMARK    6  A    between atoms: C_16  and  C_18
REMARK    7  A    between atoms: C_21  and  S_24
REMARK    8  A    between atoms: S_24  and  N_27
REMARK    9  A    between atoms: N_27  and  C_28
REMARK   10  A    between atoms: C_28  and  C_29
REMARK                            x       y       z     vdW  Elec       q    Type
REMARK                         _______ _______ _______ _____ _____    ______ ____
ROOT
ATOM      1  C   UNL     1      -1.687   0.663  -7.852  0.00  0.00    +0.339 C 
ATOM      2  O   UNL     1      -2.068  -0.348  -8.407  0.00  0.00    -0.245 OA
ENDROOT
BRANCH   1   3
ATOM      3  C   UNL     1      -2.083   0.933  -6.454  0.00  0.00    +0.059 A 
ATOM      4  C   UNL     1      -2.894   0.027  -5.768  0.00  0.00    +0.017 A 
ATOM      5  C   UNL     1      -3.260   0.285  -4.463  0.00  0.00    +0.029 A 
ATOM      6  C   UNL     1      -2.825   1.439  -3.835  0.00  0.00    +0.105 A 
ATOM      7  C   UNL     1      -2.026   2.343  -4.511  0.00  0.00    +0.029 A 
ATOM      8  C   UNL     1      -1.648   2.095  -5.814  0.00  0.00    +0.017 A 
BRANCH   6   9
ATOM      9  S   UNL     1      -3.299   1.761  -2.168  0.00  0.00    +0.058 S 
ATOM     10  O   UNL     1      -4.498   1.035  -1.939  0.00  0.00    -0.153 OA
ATOM     11  O   UNL     1      -3.213   3.168  -1.987  0.00  0.00    -0.153 OA
BRANCH   9  12
ATOM     12  N   UNL     1      -2.144   1.086  -1.192  0.00  0.00    -0.187 NA
ATOM     13  H   UNL     1      -2.371   0.153  -0.656  0.00  0.00    +0.148 HD
BRANCH  12  14
ATOM     14  C   UNL     1      -0.773   1.602  -1.215  0.00  0.00    +0.137 C 
BRANCH  14  15
ATOM     15  C   UNL     1      -0.013   1.086   0.008  0.00  0.00    +0.134 C 
ATOM     16  C   UNL     1       1.429   1.629  -0.003  0.00  0.00    +0.035 C 
ATOM     17  C   UNL     1       1.553   2.402   1.333  0.00  0.00    +0.031 C 
ATOM     18  C   UNL     1       0.413   1.778   2.177  0.00  0.00    +0.160 C 
ATOM     19  O   UNL     1      -0.639   1.560   1.212  0.00  0.00    -0.375 OA
ENDBRANCH  14  15
ENDBRANCH  12  14
ENDBRANCH   9  12
ENDBRANCH   6   9
ENDBRANCH   1   3
BRANCH   1  20
ATOM     20  O   UNL     1      -0.904   1.539  -8.511  0.00  0.00    -0.456 OA
BRANCH  20  21
ATOM     21  C   UNL     1      -0.555   1.210  -9.882  0.00  0.00    +0.269 C 
BRANCH  21  26
ATOM     22  C   UNL     1       0.635  -0.085 -14.815  0.00  0.00    +0.044 C 
ATOM     23  C   UNL     1       0.979   1.085 -13.929  0.00  0.00    -0.047 A 
ATOM     24  C   UNL     1       0.498   1.131 -12.650  0.00  0.00    +0.015 A 
ATOM     25  C   UNL     1       0.817   2.217 -11.829  0.00  0.00    +0.024 A 
ATOM     26  C   UNL     1       0.318   2.297 -10.453  0.00  0.00    +0.007 A 
ATOM     27  C   UNL     1       0.659   3.380  -9.710  0.00  0.00    +0.099 A 
ATOM     28  C   UNL     1       1.483   4.382 -10.267  0.00  0.00    +0.338 A 
ATOM     29  O   UNL     1       1.786   5.346  -9.587  0.00  0.00    -0.245 OA
ATOM     30  O   UNL     1       1.936   4.302 -11.527  0.00  0.00    -0.422 OA
ATOM     31  C   UNL     1       1.629   3.254 -12.321  0.00  0.00    +0.140 A 
ATOM     32  C   UNL     1       2.106   3.186 -13.624  0.00  0.00    +0.050 A 
ATOM     33  C   UNL     1       1.780   2.106 -14.418  0.00  0.00    -0.044 A 
ATOM     34  C   UNL     1       2.300   2.035 -15.831  0.00  0.00    +0.044 C 
ENDBRANCH  21  26
ENDBRANCH  20  21
ENDBRANCH   1  20
TORSDOF 8
