REMARK  Name = ZINC03326255
REMARK  9 active torsions:
REMARK  status: ('A' for Active; 'I' for Inactive)
REMARK    1  A    between atoms: C_1  and  C_2
REMARK    2  A    between atoms: C_7  and  S_15
REMARK    3  A    between atoms: S_15  and  C_16
REMARK    4  A    between atoms: C_16  and  C_17
REMARK    5  A    between atoms: C_17  and  C_19
REMARK    6  A    between atoms: C_21  and  C_28
REMARK    7  A    between atoms: N_22  and  C_25
REMARK    8  A    between atoms: C_23  and  C_24
REMARK    9  A    between atoms: C_25  and  C_26
REMARK                            x       y       z     vdW  Elec       q    Type
REMARK                         _______ _______ _______ _____ _____    ______ ____
ROOT
ATOM      1  C   UNL     1       2.703  -8.370  12.320  0.00  0.00    +0.044 C 
ATOM      2  C   UNL     1       2.594  -7.515  11.083  0.00  0.00    -0.038 A 
ATOM      3  C   UNL     1       2.078  -8.025   9.943  0.00  0.00    +0.052 A 
ATOM      4  C   UNL     1       1.975  -7.223   8.782  0.00  0.00    +0.162 A 
ATOM      5  N   UNL     1       1.519  -7.470   7.567  0.00  0.00    -0.129 NA
ATOM      6  N   UNL     1       1.625  -6.415   6.839  0.00  0.00    -0.122 NA
ATOM      7  C   UNL     1       2.159  -5.435   7.534  0.00  0.00    +0.197 A 
ATOM      8  N   UNL     1       2.396  -5.912   8.790  0.00  0.00    -0.270 N 
ATOM      9  C   UNL     1       2.931  -5.346   9.934  0.00  0.00    +0.058 A 
ATOM     10  C   UNL     1       3.045  -6.120  11.102  0.00  0.00    +0.002 A 
ATOM     11  C   UNL     1       3.584  -5.555  12.261  0.00  0.00    +0.010 A 
ATOM     12  C   UNL     1       3.999  -4.242  12.250  0.00  0.00    +0.001 A 
ATOM     13  C   UNL     1       3.886  -3.480  11.097  0.00  0.00    +0.002 A 
ATOM     14  C   UNL     1       3.356  -4.024   9.945  0.00  0.00    +0.027 A 
ENDROOT
BRANCH   7  15
ATOM     15  S   UNL     1       2.498  -3.806   6.953  0.00  0.00    -0.078 S 
BRANCH  15  16
ATOM     16  C   UNL     1       1.921  -3.956   5.244  0.00  0.00    +0.157 C 
BRANCH  16  17
ATOM     17  C   UNL     1       2.118  -2.643   4.531  0.00  0.00    +0.175 C 
ATOM     18  O   UNL     1       2.602  -1.699   5.120  0.00  0.00    -0.291 OA
BRANCH  17  19
ATOM     19  C   UNL     1       1.726  -2.507   3.126  0.00  0.00    +0.039 A 
ATOM     20  C   UNL     1       1.131  -3.540   2.269  0.00  0.00    +0.034 A 
ATOM     21  C   UNL     1       0.940  -2.971   1.067  0.00  0.00    +0.017 A 
ATOM     22  N   UNL     1       1.367  -1.676   1.111  0.00  0.00    -0.344 N 
ATOM     23  C   UNL     1       1.846  -1.381   2.333  0.00  0.00    +0.027 A 
ATOM     24  C   UNL     1       2.413  -0.052   2.764  0.00  0.00    +0.064 C 
ATOM     25  C   UNL     1       0.349  -3.655  -0.139  0.00  0.00    +0.063 C 
BRANCH  22  26
ATOM     26  C   UNL     1       1.317  -0.740  -0.015  0.00  0.00    +0.148 C 
BRANCH  26  27
ATOM     27  C   UNL     1       0.002  -0.004   0.002  0.00  0.00    -0.013 C 
ATOM     28  C   UNL     1      -0.016   1.306   0.009  0.00  0.00    +0.005 C 
ENDBRANCH  26  27
ENDBRANCH  22  26
ENDBRANCH  17  19
ENDBRANCH  16  17
ENDBRANCH  15  16
ENDBRANCH   7  15
TORSDOF 6
