REMARK  Name = ZINC16889088
REMARK  6 active torsions:
REMARK  status: ('A' for Active; 'I' for Inactive)
REMARK    1  A    between atoms: C_1  and  C_2
REMARK    2  A    between atoms: C_6  and  C_21
REMARK    3  A    between atoms: C_12  and  C_14
REMARK    4  A    between atoms: C_19  and  O_20
REMARK    5  A    between atoms: C_27  and  C_29
REMARK    6  A    between atoms: C_34  and  O_35
REMARK                            x       y       z     vdW  Elec       q    Type
REMARK                         _______ _______ _______ _____ _____    ______ ____
ROOT
ATOM      1  C   UNL     1       3.510   0.903   2.554  0.00  0.00    +0.022 C 
ATOM      2  C   UNL     1       2.655   1.273   1.340  0.00  0.00    +0.059 C 
ATOM      3  C   UNL     1       3.110   2.600   0.712  0.00  0.00    +0.123 C 
ATOM      4  N   UNL     1       2.156   2.974  -0.339  0.00  0.00    -0.295 N 
ATOM      5  C   UNL     1       0.732   3.111  -0.012  0.00  0.00    +0.128 C 
ATOM      6  C   UNL     1       0.239   1.792   0.604  0.00  0.00    +0.086 C 
ATOM      7  C   UNL     1       1.194   1.432   1.731  0.00  0.00    +0.156 C 
ATOM      8  O   UNL     1       0.816   1.282   2.868  0.00  0.00    -0.296 OA
ATOM      9  C   UNL     1       0.348   0.690  -0.460  0.00  0.00    +0.128 C 
ATOM     10  N   UNL     1       1.764   0.499  -0.797  0.00  0.00    -0.295 N 
ATOM     11  C   UNL     1       2.726   0.178   0.265  0.00  0.00    +0.123 C 
ATOM     12  C   UNL     1       2.179   0.618  -2.074  0.00  0.00    +0.250 C 
ATOM     13  O   UNL     1       3.362   0.535  -2.339  0.00  0.00    -0.270 OA
ATOM     14  C   UNL     1       2.586   3.190  -1.598  0.00  0.00    +0.250 C 
ATOM     15  O   UNL     1       1.786   3.439  -2.479  0.00  0.00    -0.270 OA
ENDROOT
BRANCH  12  16
ATOM     16  C   UNL     1       1.196   0.848  -3.150  0.00  0.00    +0.078 A 
ATOM     17  C   UNL     1      -0.105   0.355  -3.031  0.00  0.00    +0.017 A 
ATOM     18  C   UNL     1      -1.019   0.574  -4.039  0.00  0.00    +0.001 A 
ATOM     19  C   UNL     1      -0.652   1.282  -5.172  0.00  0.00    +0.004 A 
ATOM     20  C   UNL     1       0.631   1.774  -5.303  0.00  0.00    +0.046 A 
ATOM     21  C   UNL     1       1.561   1.568  -4.296  0.00  0.00    +0.129 A 
BRANCH  21  22
ATOM     22  O   UNL     1       2.821   2.056  -4.421  0.00  0.00    -0.506 OA
ATOM     23  H   UNL     1       3.438   1.447  -4.848  0.00  0.00    +0.292 HD
ENDBRANCH  21  22
ENDBRANCH  12  16
BRANCH   6  24
ATOM     24  C   UNL     1      -1.178   1.925   1.099  0.00  0.00    -0.031 A 
ATOM     25  C   UNL     1      -1.846   3.129   0.968  0.00  0.00    +0.005 A 
ATOM     26  C   UNL     1      -3.148   3.249   1.418  0.00  0.00    +0.000 A 
ATOM     27  C   UNL     1      -3.778   2.170   2.007  0.00  0.00    +0.000 A 
ATOM     28  C   UNL     1      -3.108   0.968   2.144  0.00  0.00    +0.000 A 
ATOM     29  C   UNL     1      -1.808   0.846   1.690  0.00  0.00    +0.005 A 
ENDBRANCH   6  24
BRANCH  14  30
ATOM     30  C   UNL     1       4.027   3.123  -1.907  0.00  0.00    +0.078 A 
ATOM     31  C   UNL     1       4.806   2.077  -1.407  0.00  0.00    +0.017 A 
ATOM     32  C   UNL     1       6.151   2.021  -1.700  0.00  0.00    +0.001 A 
ATOM     33  C   UNL     1       6.736   2.997  -2.489  0.00  0.00    +0.004 A 
ATOM     34  C   UNL     1       5.978   4.036  -2.991  0.00  0.00    +0.046 A 
ATOM     35  C   UNL     1       4.622   4.106  -2.710  0.00  0.00    +0.129 A 
BRANCH  35  36
ATOM     36  O   UNL     1       3.875   5.124  -3.207  0.00  0.00    -0.506 OA
ATOM     37  H   UNL     1       3.835   5.900  -2.631  0.00  0.00    +0.292 HD
ENDBRANCH  35  36
ENDBRANCH  14  30
TORSDOF 5
