REMARK  Name = ZINC38630847
REMARK  9 active torsions:
REMARK  status: ('A' for Active; 'I' for Inactive)
REMARK    1  A    between atoms: C_1  and  C_2
REMARK    2  A    between atoms: C_4  and  S_10
REMARK    3  A    between atoms: S_10  and  N_13
REMARK    4  A    between atoms: N_13  and  C_14
REMARK    5  A    between atoms: C_14  and  C_15
REMARK    6  A    between atoms: C_15  and  C_17
REMARK    7  A    between atoms: C_15  and  N_24
REMARK    8  A    between atoms: N_24  and  C_25
REMARK    9  A    between atoms: N_24  and  C_26
REMARK                            x       y       z     vdW  Elec       q    Type
REMARK                         _______ _______ _______ _____ _____    ______ ____
ROOT
ATOM      1  N   UNL     1       0.613  -5.153  -2.215  0.00  0.00    -0.191 NA
ATOM      2  H   UNL     1       0.507  -5.969  -2.728  0.00  0.00    +0.148 HD
ENDROOT
BRANCH   1   3
ATOM      3  S   UNL     1      -0.719  -4.377  -1.610  0.00  0.00    +0.060 S 
ATOM      4  O   UNL     1      -0.446  -4.109  -0.241  0.00  0.00    -0.153 OA
ATOM      5  O   UNL     1      -1.851  -5.127  -2.028  0.00  0.00    -0.153 OA
BRANCH   3   9
ATOM      6  C   UNL     1      -3.143  -1.006  -4.785  0.00  0.00    +0.045 C 
ATOM      7  C   UNL     1      -1.976  -1.310  -3.880  0.00  0.00    -0.030 A 
ATOM      8  C   UNL     1      -1.893  -2.536  -3.247  0.00  0.00    +0.034 A 
ATOM      9  C   UNL     1      -0.824  -2.814  -2.417  0.00  0.00    +0.124 A 
ATOM     10  C   UNL     1       0.165  -1.867  -2.220  0.00  0.00    +0.069 A 
ATOM     11  C   UNL     1       0.083  -0.640  -2.854  0.00  0.00    +0.042 A 
ATOM     12  C   UNL     1      -0.986  -0.363  -3.688  0.00  0.00    +0.045 A 
ATOM     13 CL   UNL     1      -1.087   1.174  -4.489  0.00  0.00    -0.083 Cl
ATOM     14 CL   UNL     1       1.508  -2.217  -1.178  0.00  0.00    -0.081 Cl
ENDBRANCH   3   9
ENDBRANCH   1   3
BRANCH   1  15
ATOM     15  C   UNL     1       1.951  -4.606  -1.976  0.00  0.00    +0.095 C 
BRANCH  15  16
ATOM     16  C   UNL     1       3.002  -5.672  -2.295  0.00  0.00    -0.021 C 
BRANCH  16  17
ATOM     17  C   UNL     1       2.860  -6.822  -1.332  0.00  0.00    -0.041 A 
ATOM     18  C   UNL     1       2.202  -7.973  -1.723  0.00  0.00    +0.003 A 
ATOM     19  C   UNL     1       2.072  -9.029  -0.840  0.00  0.00    +0.000 A 
ATOM     20  C   UNL     1       2.599  -8.933   0.435  0.00  0.00    +0.001 A 
ATOM     21  C   UNL     1       3.257  -7.783   0.827  0.00  0.00    +0.020 A 
ATOM     22  C   UNL     1       3.393  -6.728  -0.059  0.00  0.00    +0.043 A 
ATOM     23 CL   UNL     1       4.224  -5.285   0.430  0.00  0.00    -0.083 Cl
ENDBRANCH  16  17
BRANCH  16  24
ATOM     24  N   UNL     1       2.806  -6.156  -3.668  0.00  0.00    +0.381 N 
ATOM     25  C   UNL     1       2.811  -5.016  -4.595  0.00  0.00    -0.096 C 
ATOM     26  C   UNL     1       3.893  -7.078  -4.022  0.00  0.00    -0.096 C 
ATOM     27  H   UNL     1       1.922  -6.637  -3.733  0.00  0.00    -0.082 HD
ENDBRANCH  16  24
ENDBRANCH  15  16
ENDBRANCH   1  15
TORSDOF 6
