REMARK  Name = ZINC00871769
REMARK  6 active torsions:
REMARK  status: ('A' for Active; 'I' for Inactive)
REMARK    1  A    between atoms: C_1  and  C_2
REMARK    2  A    between atoms: C_2  and  O_3
REMARK    3  A    between atoms: O_3  and  C_4
REMARK    4  A    between atoms: C_4  and  C_6
REMARK    5  A    between atoms: C_19  and  C_22
REMARK    6  A    between atoms: C_25  and  C_28
REMARK                            x       y       z     vdW  Elec       q    Type
REMARK                         _______ _______ _______ _____ _____    ______ ____
ROOT
ATOM      1  C   UNL     1      -3.628   4.590   0.183  0.00  0.00    +0.059 A 
ATOM      2  C   UNL     1      -3.615   5.231  -1.060  0.00  0.00    +0.017 A 
ATOM      3  C   UNL     1      -2.516   5.129  -1.862  0.00  0.00    +0.024 A 
ATOM      4  C   UNL     1      -1.409   4.391  -1.450  0.00  0.00    +0.031 A 
ATOM      5  C   UNL     1      -1.404   3.750  -0.216  0.00  0.00    -0.019 A 
ATOM      6  C   UNL     1      -2.518   3.851   0.597  0.00  0.00    +0.021 A 
ATOM      7  C   UNL     1      -0.234   2.954   0.267  0.00  0.00    +0.049 C 
ATOM      8  C   UNL     1      -0.501   1.470   0.173  0.00  0.00    -0.023 C 
ATOM      9  C   UNL     1       0.594   0.832  -0.158  0.00  0.00    -0.030 C 
ATOM     10  C   UNL     1       1.744   1.804  -0.333  0.00  0.00    +0.033 C 
ATOM     11  C   UNL     1       1.030   3.164  -0.590  0.00  0.00    +0.029 C 
ATOM     12  C   UNL     1       0.651   3.207  -2.073  0.00  0.00    +0.105 C 
ATOM     13  N   UNL     1      -0.301   4.300  -2.289  0.00  0.00    -0.336 N 
ATOM     14  H   UNL     1      -0.163   4.946  -3.000  0.00  0.00    +0.147 HD
ENDROOT
BRANCH  12  15
ATOM     15  C   UNL     1       0.016   1.899  -2.470  0.00  0.00    -0.027 A 
ATOM     16  C   UNL     1       0.805   0.867  -2.947  0.00  0.00    +0.006 A 
ATOM     17  C   UNL     1       0.230  -0.335  -3.307  0.00  0.00    +0.015 A 
ATOM     18  C   UNL     1      -1.151  -0.505  -3.198  0.00  0.00    +0.063 A 
ATOM     19  C   UNL     1      -1.942   0.543  -2.721  0.00  0.00    +0.015 A 
ATOM     20  C   UNL     1      -1.354   1.737  -2.360  0.00  0.00    +0.006 A 
BRANCH  18  21
ATOM     21  C   UNL     1      -1.774  -1.787  -3.587  0.00  0.00    +0.387 C 
ATOM     22  O   UNL     1      -2.976  -1.932  -3.491  0.00  0.00    -0.241 OA
ATOM     23  O   UNL     1      -1.008  -2.795  -4.047  0.00  0.00    -0.241 OA
ENDBRANCH  18  21
ENDBRANCH  12  15
BRANCH   1  24
ATOM     24  C   UNL     1      -4.811   4.694   1.055  0.00  0.00    +0.339 C 
ATOM     25  O   UNL     1      -4.822   4.136   2.134  0.00  0.00    -0.245 OA
BRANCH  24  26
ATOM     26  O   UNL     1      -5.882   5.408   0.654  0.00  0.00    -0.461 OA
BRANCH  26  28
ATOM     27  C   UNL     1      -8.123   6.315   0.943  0.00  0.00    +0.048 C 
ATOM     28  C   UNL     1      -7.012   5.467   1.564  0.00  0.00    +0.229 C 
ENDBRANCH  26  28
ENDBRANCH  24  26
ENDBRANCH   1  24
TORSDOF 5
