REMARK  Name = ZINC46567673
REMARK  8 active torsions:
REMARK  status: ('A' for Active; 'I' for Inactive)
REMARK    1  A    between atoms: C_1  and  N_2
REMARK    2  A    between atoms: N_2  and  C_3
REMARK    3  A    between atoms: C_3  and  C_4
REMARK    4  A    between atoms: C_7  and  C_10
REMARK    5  A    between atoms: N_12  and  C_13
REMARK    6  A    between atoms: C_16  and  C_18
REMARK    7  A    between atoms: C_20  and  C_29
REMARK    8  A    between atoms: N_22  and  C_23
REMARK                            x       y       z     vdW  Elec       q    Type
REMARK                         _______ _______ _______ _____ _____    ______ ____
ROOT
ATOM      1  C   UNL     1      -0.542   1.528  -0.026  0.00  0.00    +0.132 C 
ATOM      2  N   UNL     1      -0.477   0.064   0.001  0.00  0.00    -0.295 N 
ATOM      3  C   UNL     1      -0.406  -0.628  -1.153  0.00  0.00    +0.265 C 
ATOM      4  O   UNL     1      -0.464  -1.843  -1.137  0.00  0.00    -0.268 OA
ENDROOT
BRANCH   3   5
ATOM      5  C   UNL     1      -0.258   0.085  -2.431  0.00  0.00    +0.130 A 
ATOM      6  C   UNL     1      -0.032   1.434  -2.592  0.00  0.00    +0.066 A 
ATOM      7  C   UNL     1       0.044   1.691  -3.971  0.00  0.00    +0.129 A 
ATOM      8  N   UNL     1      -0.128   0.554  -4.618  0.00  0.00    -0.163 NA
ATOM      9  N   UNL     1      -0.314  -0.471  -3.683  0.00  0.00    -0.227 N 
BRANCH   9  10
ATOM     10  C   UNL     1      -0.523  -1.823  -3.974  0.00  0.00    +0.066 A 
ATOM     11  C   UNL     1       0.190  -2.801  -3.291  0.00  0.00    +0.028 A 
ATOM     12  C   UNL     1      -0.019  -4.135  -3.581  0.00  0.00    +0.002 A 
ATOM     13  C   UNL     1      -0.935  -4.498  -4.551  0.00  0.00    +0.000 A 
ATOM     14  C   UNL     1      -1.647  -3.528  -5.232  0.00  0.00    +0.002 A 
ATOM     15  C   UNL     1      -1.448  -2.192  -4.943  0.00  0.00    +0.028 A 
ENDBRANCH   9  10
BRANCH   7  16
ATOM     16  C   UNL     1       0.276   3.013  -4.593  0.00  0.00    +0.155 A 
ATOM     17  C   UNL     1       0.344   3.266  -5.926  0.00  0.00    +0.051 A 
ATOM     18  C   UNL     1       0.577   4.650  -6.065  0.00  0.00    +0.042 A 
ATOM     19  C   UNL     1       0.637   5.166  -4.823  0.00  0.00    +0.196 A 
ATOM     20  O   UNL     1       0.450   4.175  -3.935  0.00  0.00    -0.461 OA
ENDBRANCH   7  16
ENDBRANCH   3   5
BRANCH   2  21
ATOM     21  C   UNL     1      -0.490  -0.646   1.282  0.00  0.00    +0.142 C 
BRANCH  21  22
ATOM     22  C   UNL     1      -1.913  -0.953   1.672  0.00  0.00    -0.030 A 
ATOM     23  C   UNL     1      -2.632  -0.043   2.426  0.00  0.00    +0.006 A 
ATOM     24  C   UNL     1      -3.935  -0.318   2.786  0.00  0.00    +0.013 A 
ATOM     25  C   UNL     1      -4.527  -1.517   2.389  0.00  0.00    +0.037 A 
ATOM     26  C   UNL     1      -3.796  -2.431   1.628  0.00  0.00    +0.013 A 
ATOM     27  C   UNL     1      -2.496  -2.142   1.270  0.00  0.00    +0.006 A 
BRANCH  25  28
ATOM     28  C   UNL     1      -5.923  -1.819   2.772  0.00  0.00    +0.244 C 
ATOM     29  O   UNL     1      -6.557  -1.021   3.434  0.00  0.00    -0.270 OA
ATOM     30  N   UNL     1      -6.492  -2.978   2.386  0.00  0.00    -0.308 N 
ATOM     31  H   UNL     1      -5.986  -3.615   1.857  0.00  0.00    +0.149 HD
BRANCH  30  32
ATOM     32  C   UNL     1      -7.875  -3.277   2.766  0.00  0.00    +0.073 C 
ATOM     33  C   UNL     1      -8.182  -4.691   3.262  0.00  0.00    +0.024 C 
ATOM     34  C   UNL     1      -8.658  -4.247   1.878  0.00  0.00    +0.024 C 
ENDBRANCH  30  32
ENDBRANCH  25  28
ENDBRANCH  21  22
ENDBRANCH   2  21
TORSDOF 7
