REMARK  Name = ZINC59475343
REMARK  11 active torsions:
REMARK  status: ('A' for Active; 'I' for Inactive)
REMARK    1  A    between atoms: C_1  and  C_2
REMARK    2  A    between atoms: C_2  and  C_27
REMARK    3  A    between atoms: N_3  and  N_4
REMARK    4  A    between atoms: C_5  and  C_7
REMARK    5  A    between atoms: C_7  and  S_8
REMARK    6  A    between atoms: S_8  and  C_9
REMARK    7  A    between atoms: C_12  and  C_17
REMARK    8  A    between atoms: N_13  and  C_14
REMARK    9  A    between atoms: C_14  and  C_15
REMARK   10  A    between atoms: C_17  and  N_18
REMARK   11  A    between atoms: C_30  and  N_33
REMARK                            x       y       z     vdW  Elec       q    Type
REMARK                         _______ _______ _______ _____ _____    ______ ____
ROOT
ATOM      1  S   UNL     1       0.075  -1.085   6.184  0.00  0.00    -0.077 S 
ENDROOT
BRANCH   1   2
ATOM      2  C   UNL     1       0.075  -0.070   7.625  0.00  0.00    +0.192 A 
ATOM      3  N   UNL     1       0.052   1.242   7.655  0.00  0.00    -0.122 NA
ATOM      4  N   UNL     1       0.060   1.651   8.873  0.00  0.00    -0.132 NA
ATOM      5  C   UNL     1       0.088   0.633   9.687  0.00  0.00    +0.156 A 
ATOM      6  N   UNL     1       0.093  -0.500   8.920  0.00  0.00    -0.301 N 
BRANCH   6   7
ATOM      7  C   UNL     1       0.117  -1.887   9.392  0.00  0.00    +0.152 C 
BRANCH   7   8
ATOM      8  C   UNL     1       1.545  -2.343   9.541  0.00  0.00    -0.013 C 
ATOM      9  C   UNL     1       1.963  -2.825  10.685  0.00  0.00    +0.005 C 
ENDBRANCH   7   8
ENDBRANCH   6   7
BRANCH   5  10
ATOM     10  C   UNL     1       0.106   0.693  11.192  0.00  0.00    +0.222 C 
BRANCH  10  11
ATOM     11  N   UNL     1      -1.269   0.687  11.697  0.00  0.00    -0.237 N 
ATOM     12  C   UNL     1      -2.063   1.783  11.933  0.00  0.00    +0.089 A 
ATOM     13  C   UNL     1      -1.883   3.155  11.795  0.00  0.00    +0.029 A 
ATOM     14  C   UNL     1      -2.897   4.011  12.124  0.00  0.00    +0.002 A 
ATOM     15  C   UNL     1      -4.109   3.522  12.595  0.00  0.00    +0.002 A 
ATOM     16  C   UNL     1      -4.311   2.181  12.739  0.00  0.00    +0.032 A 
ATOM     17  C   UNL     1      -3.288   1.282  12.408  0.00  0.00    +0.113 A 
ATOM     18  N   UNL     1      -3.194  -0.062  12.444  0.00  0.00    -0.129 NA
ATOM     19  N   UNL     1      -2.035  -0.440  12.031  0.00  0.00    -0.064 NA
ENDBRANCH  10  11
ENDBRANCH   5  10
ENDBRANCH   1   2
BRANCH   1  20
ATOM     20  C   UNL     1       0.046   0.101   4.812  0.00  0.00    +0.174 C 
BRANCH  20  22
ATOM     21  N   UNL     1       0.024   0.035   2.339  0.00  0.00    -0.206 N 
ATOM     22  C   UNL     1       0.044  -0.645   3.503  0.00  0.00    +0.242 C 
ATOM     23  O   UNL     1       0.060  -1.858   3.496  0.00  0.00    -0.273 OA
ATOM     24  H   UNL     1       0.011   1.005   2.345  0.00  0.00    +0.177 HD
BRANCH  21  27
ATOM     25  C   UNL     1      -0.018   1.503   0.010  0.00  0.00    +0.068 C 
ATOM     26  C   UNL     1       0.002  -0.004   0.002  0.00  0.00    +0.063 C 
ATOM     27  N   UNL     1       0.022  -0.659   1.122  0.00  0.00    -0.185 NA
BRANCH  26  28
ATOM     28  C   UNL     1      -0.000  -0.735  -1.279  0.00  0.00    -0.002 A 
ATOM     29  C   UNL     1      -0.015  -0.033  -2.487  0.00  0.00    +0.012 A 
ATOM     30  C   UNL     1      -0.017  -0.723  -3.682  0.00  0.00    +0.033 A 
ATOM     31  C   UNL     1      -0.004  -2.106  -3.685  0.00  0.00    +0.126 A 
ATOM     32  C   UNL     1       0.011  -2.808  -2.493  0.00  0.00    +0.033 A 
ATOM     33  C   UNL     1       0.019  -2.131  -1.291  0.00  0.00    +0.012 A 
BRANCH  31  34
ATOM     34  N   UNL     1      -0.006  -2.840  -4.971  0.00  0.00    +0.056 N 
ATOM     35  O   UNL     1      -0.020  -2.229  -6.015  0.00  0.00    -0.126 OA
ATOM     36  O   UNL     1       0.005  -4.048  -4.978  0.00  0.00    -0.126 OA
ENDBRANCH  31  34
ENDBRANCH  26  28
ENDBRANCH  21  27
ENDBRANCH  20  22
ENDBRANCH   1  20
TORSDOF 10
