REMARK  Name = ZINC22754843
REMARK  14 active torsions:
REMARK  status: ('A' for Active; 'I' for Inactive)
REMARK    1  A    between atoms: C_1  and  C_2
REMARK    2  A    between atoms: C_2  and  C_4
REMARK    3  A    between atoms: C_2  and  S_16
REMARK    4  A    between atoms: N_6  and  C_7
REMARK    5  A    between atoms: C_7  and  C_8
REMARK    6  A    between atoms: C_8  and  C_10
REMARK    7  A    between atoms: C_8  and  N_13
REMARK    8  A    between atoms: C_10  and  C_11
REMARK    9  A    between atoms: C_10  and  C_12
REMARK   10  A    between atoms: N_13  and  C_14
REMARK   11  A    between atoms: N_13  and  C_15
REMARK   12  A    between atoms: S_16  and  C_17
REMARK   13  A    between atoms: C_17  and  C_18
REMARK   14  A    between atoms: C_24  and  C_29
REMARK                            x       y       z     vdW  Elec       q    Type
REMARK                         _______ _______ _______ _____ _____    ______ ____
ROOT
ATOM      1  C   UNL     1      -2.590  -3.808   2.189  0.00  0.00    +0.144 C 
ENDROOT
BRANCH   1   2
ATOM      2  C   UNL     1      -2.197  -4.502   3.468  0.00  0.00    +0.121 A 
ATOM      3  N   UNL     1      -3.164  -4.991   4.286  0.00  0.00    -0.310 N 
ATOM      4  H   UNL     1      -4.095  -4.887   4.036  0.00  0.00    +0.170 HD
ATOM      5  C   UNL     1      -2.856  -5.618   5.436  0.00  0.00    +0.260 A 
ATOM      6  O   UNL     1      -3.736  -6.052   6.160  0.00  0.00    -0.267 OA
ATOM      7  C   UNL     1      -1.478  -5.767   5.797  0.00  0.00    +0.080 A 
ATOM      8  C   UNL     1      -0.897  -6.399   6.976  0.00  0.00    +0.004 A 
ATOM      9  C   UNL     1       0.452  -6.421   7.104  0.00  0.00    +0.056 A 
ATOM     10  S   UNL     1       1.020  -5.586   5.636  0.00  0.00    -0.076 S 
ATOM     11  C   UNL     1      -0.550  -5.230   4.891  0.00  0.00    +0.116 A 
ATOM     12  N   UNL     1      -0.932  -4.628   3.767  0.00  0.00    -0.226 NA
BRANCH   8  13
ATOM     13  C   UNL     1      -1.765  -7.006   8.013  0.00  0.00    -0.017 A 
ATOM     14  C   UNL     1      -2.835  -6.284   8.540  0.00  0.00    +0.008 A 
ATOM     15  C   UNL     1      -3.640  -6.855   9.505  0.00  0.00    +0.001 A 
ATOM     16  C   UNL     1      -3.386  -8.140   9.950  0.00  0.00    +0.000 A 
ATOM     17  C   UNL     1      -2.325  -8.861   9.431  0.00  0.00    +0.001 A 
ATOM     18  C   UNL     1      -1.517  -8.303   8.461  0.00  0.00    +0.008 A 
ENDBRANCH   8  13
ENDBRANCH   1   2
BRANCH   1  19
ATOM     19  S   UNL     1      -1.097  -3.274   1.308  0.00  0.00    -0.141 S 
BRANCH  19  21
ATOM     20  C   UNL     1      -2.520  -1.216   0.204  0.00  0.00    +0.029 C 
ATOM     21  C   UNL     1      -1.734  -2.469  -0.188  0.00  0.00    +0.129 C 
BRANCH  21  22
ATOM     22  C   UNL     1      -0.583  -2.081  -1.079  0.00  0.00    +0.226 C 
ATOM     23  O   UNL     1       0.534  -1.981  -0.618  0.00  0.00    -0.275 OA
ATOM     24  N   UNL     1      -0.795  -1.846  -2.389  0.00  0.00    -0.316 N 
ATOM     25  H   UNL     1      -1.688  -1.925  -2.758  0.00  0.00    +0.149 HD
BRANCH  24  26
ATOM     26  C   UNL     1       0.325  -1.469  -3.256  0.00  0.00    +0.089 C 
BRANCH  26  27
ATOM     27  C   UNL     1      -0.206  -1.097  -4.642  0.00  0.00    -0.049 C 
BRANCH  27  28
ATOM     28  N   UNL     1      -0.831   0.232  -4.587  0.00  0.00    +0.379 N 
ATOM     29  C   UNL     1      -1.840   0.343  -5.648  0.00  0.00    -0.096 C 
ATOM     30  C   UNL     1      -1.473   0.417  -3.279  0.00  0.00    -0.096 C 
ATOM     31  H   UNL     1      -0.125   0.941  -4.718  0.00  0.00    -0.082 HD
ENDBRANCH  27  28
BRANCH  27  32
ATOM     32  C   UNL     1       0.951  -1.075  -5.643  0.00  0.00    -0.029 C 
ATOM     33  C   UNL     1       0.428  -0.656  -7.018  0.00  0.00    +0.005 C 
ATOM     34  C   UNL     1       2.012  -0.077  -5.174  0.00  0.00    +0.005 C 
ENDBRANCH  27  32
ENDBRANCH  26  27
ENDBRANCH  24  26
ENDBRANCH  21  22
ENDBRANCH  19  21
ENDBRANCH   1  19
TORSDOF 9
