REMARK  Name = ZINC06409786
REMARK  12 active torsions:
REMARK  status: ('A' for Active; 'I' for Inactive)
REMARK    1  A    between atoms: C_1  and  C_2
REMARK    2  A    between atoms: C_7  and  C_14
REMARK    3  A    between atoms: C_14  and  C_16
REMARK    4  A    between atoms: C_14  and  N_66
REMARK    5  A    between atoms: N_20  and  C_21
REMARK    6  A    between atoms: C_21  and  C_22
REMARK    7  A    between atoms: C_21  and  C_23
REMARK    8  A    between atoms: C_21  and  C_24
REMARK    9  A    between atoms: C_25  and  C_26
REMARK   10  A    between atoms: C_25  and  N_66
REMARK   11  A    between atoms: C_33  and  C_34
REMARK   12  A    between atoms: C_33  and  N_66
REMARK                            x       y       z     vdW  Elec       q    Type
REMARK                         _______ _______ _______ _____ _____    ______ ____
ROOT
ATOM      1  C   UNL     1       3.528   1.074   0.237  0.00  0.00    +0.040 C 
ENDROOT
BRANCH   1   8
ATOM      2  C   UNL     1      -4.146   3.189   0.738  0.00  0.00    +0.044 C 
ATOM      3  C   UNL     1      -2.777   2.575   0.598  0.00  0.00    -0.048 A 
ATOM      4  C   UNL     1      -2.657   1.225   0.296  0.00  0.00    +0.004 A 
ATOM      5  C   UNL     1      -1.426   0.647   0.170  0.00  0.00    +0.010 A 
ATOM      6  C   UNL     1      -0.275   1.425   0.335  0.00  0.00    -0.001 A 
ATOM      7  C   UNL     1       1.060   0.840   0.200  0.00  0.00    +0.017 A 
ATOM      8  C   UNL     1       2.139   1.644   0.369  0.00  0.00    +0.011 A 
ATOM      9  C   UNL     1       1.967   3.012   0.669  0.00  0.00    +0.251 A 
ATOM     10  O   UNL     1       2.950   3.716   0.818  0.00  0.00    -0.268 OA
ATOM     11  N   UNL     1       0.745   3.558   0.795  0.00  0.00    -0.322 N 
ATOM     12  H   UNL     1       0.662   4.502   1.002  0.00  0.00    +0.169 HD
ATOM     13  C   UNL     1      -0.393   2.796   0.634  0.00  0.00    +0.049 A 
ATOM     14  C   UNL     1      -1.657   3.360   0.764  0.00  0.00    +0.029 A 
ENDBRANCH   1   8
BRANCH   1  15
ATOM     15  C   UNL     1       4.217   1.699  -0.948  0.00  0.00    +0.143 A 
ATOM     16  N   UNL     1       4.725   2.906  -1.011  0.00  0.00    -0.115 NA
ATOM     17  N   UNL     1       5.227   3.066  -2.187  0.00  0.00    -0.023 NA
ATOM     18  N   UNL     1       5.045   1.996  -2.879  0.00  0.00    -0.043 NA
ATOM     19  N   UNL     1       4.425   1.130  -2.150  0.00  0.00    -0.225 N 
BRANCH  19  20
ATOM     20  C   UNL     1       4.025  -0.220  -2.554  0.00  0.00    +0.059 C 
ATOM     21  C   UNL     1       2.522  -0.397  -2.324  0.00  0.00    +0.036 C 
ATOM     22  C   UNL     1       4.341  -0.423  -4.037  0.00  0.00    +0.036 C 
ATOM     23  C   UNL     1       4.792  -1.250  -1.723  0.00  0.00    +0.036 C 
ENDBRANCH  19  20
ENDBRANCH   1  15
BRANCH   1  24
ATOM     24  N   UNL     1       4.300   1.390   1.457  0.00  0.00    +0.397 N 
ATOM     25  H   UNL     1       4.513   2.394   1.466  0.00  0.00    -0.079 HD
BRANCH  24  26
ATOM     26  C   UNL     1       5.568   0.630   1.464  0.00  0.00    -0.041 C 
BRANCH  26  27
ATOM     27  C   UNL     1       6.593   1.399   0.672  0.00  0.00    -0.064 A 
ATOM     28  C   UNL     1       6.864   1.046  -0.637  0.00  0.00    +0.003 A 
ATOM     29  C   UNL     1       7.800   1.754  -1.365  0.00  0.00    +0.020 A 
ATOM     30  C   UNL     1       8.476   2.811  -0.780  0.00  0.00    +0.041 A 
ATOM     31  C   UNL     1       8.209   3.161   0.531  0.00  0.00    +0.020 A 
ATOM     32  C   UNL     1       7.268   2.455   1.257  0.00  0.00    +0.003 A 
ATOM     33 CL   UNL     1       9.657   3.697  -1.693  0.00  0.00    -0.084 Cl
ENDBRANCH  26  27
ENDBRANCH  24  26
BRANCH  24  34
ATOM     34  C   UNL     1       3.505   1.057   2.658  0.00  0.00    -0.001 C 
BRANCH  34  35
ATOM     35  C   UNL     1       4.134   1.723   3.854  0.00  0.00    +0.089 A 
ATOM     36  C   UNL     1       3.823   2.942   4.329  0.00  0.00    +0.042 A 
ATOM     37  C   UNL     1       4.650   3.167   5.454  0.00  0.00    +0.041 A 
ATOM     38  C   UNL     1       5.416   2.071   5.599  0.00  0.00    +0.195 A 
ATOM     39  O   UNL     1       5.095   1.198   4.631  0.00  0.00    -0.470 OA
ENDBRANCH  34  35
ENDBRANCH  24  34
ENDBRANCH   1  24
TORSDOF 8
