REMARK  Name = ZINC39680808
REMARK  5 active torsions:
REMARK  status: ('A' for Active; 'I' for Inactive)
REMARK    1  A    between atoms: C_1  and  C_2
REMARK    2  A    between atoms: C_2  and  C_4
REMARK    3  A    between atoms: C_2  and  N_10
REMARK    4  A    between atoms: C_11  and  C_13
REMARK    5  A    between atoms: C_24  and  C_26
REMARK                            x       y       z     vdW  Elec       q    Type
REMARK                         _______ _______ _______ _____ _____    ______ ____
ROOT
ATOM      1  C   UNL     1      -3.373  -0.890   1.189  0.00  0.00    +0.100 C 
ATOM      2  C   UNL     1      -4.410   0.064   0.557  0.00  0.00    +0.121 C 
ATOM      3  N   UNL     1      -5.640  -0.136   1.359  0.00  0.00    -0.296 N 
ATOM      4  C   UNL     1      -5.153  -0.273   2.753  0.00  0.00    +0.115 C 
ATOM      5  C   UNL     1      -3.864  -1.108   2.631  0.00  0.00    -0.004 C 
ATOM      6  C   UNL     1      -4.167  -2.584   2.868  0.00  0.00    -0.010 C 
ATOM      7  C   UNL     1      -4.599  -2.784   4.324  0.00  0.00    -0.082 C 
ATOM      8  N   UNL     1      -3.527  -2.334   5.220  0.00  0.00    +0.379 N 
ATOM      9  C   UNL     1      -3.305  -0.893   5.051  0.00  0.00    -0.082 C 
ATOM     10  C   UNL     1      -2.819  -0.613   3.626  0.00  0.00    -0.010 C 
ATOM     11  C   UNL     1      -6.914  -0.182   0.921  0.00  0.00    +0.247 C 
ATOM     12  O   UNL     1      -7.828  -0.264   1.718  0.00  0.00    -0.270 OA
ATOM     13  H   UNL     1      -3.788  -2.522   6.176  0.00  0.00    -0.086 HD
ATOM     14  H   UNL     1      -2.677  -2.831   5.002  0.00  0.00    -0.086 HD
ENDROOT
BRANCH  11  15
ATOM     15  C   UNL     1      -7.199  -0.132  -0.528  0.00  0.00    +0.045 A 
ATOM     16  C   UNL     1      -6.622   0.865  -1.324  0.00  0.00    +0.014 A 
ATOM     17  C   UNL     1      -6.885   0.913  -2.675  0.00  0.00    +0.001 A 
ATOM     18  C   UNL     1      -7.724  -0.022  -3.262  0.00  0.00    +0.012 A 
ATOM     19  C   UNL     1      -8.308  -1.019  -2.489  0.00  0.00    +0.031 A 
ATOM     20  C   UNL     1      -8.043  -1.085  -1.112  0.00  0.00    +0.006 A 
ATOM     21  C   UNL     1      -8.781  -2.238  -0.539  0.00  0.00    -0.006 A 
ATOM     22  C   UNL     1      -8.866  -2.734   0.755  0.00  0.00    +0.009 A 
ATOM     23  C   UNL     1      -9.644  -3.850   1.021  0.00  0.00    +0.001 A 
ATOM     24  C   UNL     1     -10.339  -4.477   0.004  0.00  0.00    +0.001 A 
ATOM     25  C   UNL     1     -10.265  -3.994  -1.292  0.00  0.00    +0.012 A 
ATOM     26  C   UNL     1      -9.489  -2.876  -1.572  0.00  0.00    +0.030 A 
ATOM     27  C   UNL     1      -9.227  -2.132  -2.828  0.00  0.00    +0.194 C 
ATOM     28  O   UNL     1      -9.670  -2.393  -3.928  0.00  0.00    -0.287 OA
ENDBRANCH  11  15
BRANCH   1  30
ATOM     29  N   UNL     1      -0.904  -1.025   1.268  0.00  0.00    -0.308 N 
ATOM     30  C   UNL     1      -2.007  -0.254   1.191  0.00  0.00    +0.219 C 
ATOM     31  O   UNL     1      -1.900   0.953   1.123  0.00  0.00    -0.275 OA
ATOM     32  H   UNL     1      -0.990  -1.989   1.323  0.00  0.00    +0.149 HD
BRANCH  29  34
ATOM     33  C   UNL     1       0.874  -0.162  -0.172  0.00  0.00    +0.033 C 
ATOM     34  C   UNL     1       0.424  -0.406   1.270  0.00  0.00    +0.100 C 
BRANCH  34  35
ATOM     35  C   UNL     1       1.405  -1.322   1.954  0.00  0.00    -0.025 A 
ATOM     36  C   UNL     1       1.359  -2.692   1.746  0.00  0.00    +0.025 A 
ATOM     37  C   UNL     1       2.275  -3.502   2.391  0.00  0.00    +0.111 A 
ATOM     38  N   UNL     1       3.183  -2.985   3.196  0.00  0.00    -0.263 NA
ATOM     39  C   UNL     1       3.256  -1.687   3.417  0.00  0.00    +0.111 A 
ATOM     40  C   UNL     1       2.377  -0.815   2.802  0.00  0.00    +0.025 A 
ENDBRANCH  34  35
ENDBRANCH  29  34
ENDBRANCH   1  30
TORSDOF 4
