REMARK  Name = ZINC27549678
REMARK  11 active torsions:
REMARK  status: ('A' for Active; 'I' for Inactive)
REMARK    1  A    between atoms: C_1  and  C_2
REMARK    2  A    between atoms: C_4  and  O_9
REMARK    3  A    between atoms: O_9  and  C_10
REMARK    4  A    between atoms: C_10  and  C_11
REMARK    5  A    between atoms: C_11  and  O_12
REMARK    6  A    between atoms: O_12  and  C_13
REMARK    7  A    between atoms: C_17  and  C_19
REMARK    8  A    between atoms: C_29  and  C_31
REMARK    9  A    between atoms: C_31  and  C_32
REMARK   10  A    between atoms: C_32  and  C_33
REMARK   11  A    between atoms: C_32  and  C_34
REMARK                            x       y       z     vdW  Elec       q    Type
REMARK                         _______ _______ _______ _____ _____    ______ ____
ROOT
ATOM      1  C   UNL     1       1.298  -4.671  -6.006  0.00  0.00    +0.121 A 
ATOM      2  C   UNL     1       0.437  -5.630  -6.526  0.00  0.00    +0.045 A 
ATOM      3  C   UNL     1       0.769  -6.314  -7.682  0.00  0.00    +0.004 A 
ATOM      4  C   UNL     1       1.958  -6.050  -8.328  0.00  0.00    +0.008 A 
ATOM      5  C   UNL     1       2.834  -5.086  -7.812  0.00  0.00    -0.021 A 
ATOM      6  C   UNL     1       2.492  -4.392  -6.646  0.00  0.00    +0.053 A 
ENDROOT
BRANCH   5   7
ATOM      7  C   UNL     1       4.101  -4.801  -8.496  0.00  0.00    +0.024 C 
ATOM      8  C   UNL     1       5.202  -4.443  -7.771  0.00  0.00    +0.081 C 
ATOM      9  C   UNL     1       5.216  -4.506  -6.282  0.00  0.00    +0.152 C 
ATOM     10  N   UNL     1       4.560  -5.402  -5.595  0.00  0.00    -0.283 NA
ATOM     11  N   UNL     1       6.011  -3.502  -5.686  0.00  0.00    -0.152 N 
ATOM     12  C   UNL     1       7.015  -2.948  -6.452  0.00  0.00    +0.181 C 
ATOM     13  N   UNL     1       7.271  -3.171  -7.717  0.00  0.00    -0.152 NA
ATOM     14  C   UNL     1       6.451  -3.975  -8.425  0.00  0.00    +0.273 C 
ATOM     15  O   UNL     1       6.723  -4.306  -9.568  0.00  0.00    -0.268 OA
ATOM     16  S   UNL     1       7.815  -1.872  -5.292  0.00  0.00    -0.038 S 
ATOM     17  C   UNL     1       6.712  -2.152  -3.913  0.00  0.00    +0.100 C 
ATOM     18  N   UNL     1       5.882  -3.031  -4.397  0.00  0.00    -0.169 NA
ATOM     19  H   UNL     1       4.605  -5.399  -4.626  0.00  0.00    +0.188 HD
BRANCH  17  20
ATOM     20  C   UNL     1       6.736  -1.530  -2.541  0.00  0.00    +0.067 C 
BRANCH  20  21
ATOM     21  C   UNL     1       5.582  -2.090  -1.706  0.00  0.00    -0.011 C 
ATOM     22  C   UNL     1       5.680  -1.555  -0.276  0.00  0.00    +0.007 C 
ATOM     23  C   UNL     1       4.250  -1.659  -2.323  0.00  0.00    +0.007 C 
ENDBRANCH  20  21
ENDBRANCH  17  20
ENDBRANCH   5   7
BRANCH   1  24
ATOM     24  O   UNL     1       0.964  -4.004  -4.870  0.00  0.00    -0.489 OA
BRANCH  24  25
ATOM     25  C   UNL     1      -0.283  -4.343  -4.261  0.00  0.00    +0.270 C 
BRANCH  25  26
ATOM     26  C   UNL     1      -0.484  -3.495  -3.003  0.00  0.00    +0.270 C 
BRANCH  26  27
ATOM     27  O   UNL     1      -0.605  -2.119  -3.371  0.00  0.00    -0.489 OA
BRANCH  27  31
ATOM     28  C   UNL     1      -1.237   2.502  -1.934  0.00  0.00    +0.045 C 
ATOM     29  C   UNL     1      -1.102   1.033  -1.625  0.00  0.00    -0.029 A 
ATOM     30  C   UNL     1      -0.914   0.126  -2.650  0.00  0.00    +0.050 A 
ATOM     31  C   UNL     1      -0.789  -1.225  -2.364  0.00  0.00    +0.121 A 
ATOM     32  C   UNL     1      -0.854  -1.664  -1.049  0.00  0.00    +0.047 A 
ATOM     33  C   UNL     1      -1.042  -0.754  -0.027  0.00  0.00    +0.024 A 
ATOM     34  C   UNL     1      -1.161   0.595  -0.314  0.00  0.00    +0.044 A 
ATOM     35 CL   UNL     1      -1.390   1.738   0.973  0.00  0.00    -0.083 Cl
ENDBRANCH  27  31
ENDBRANCH  26  27
ENDBRANCH  25  26
ENDBRANCH  24  25
ENDBRANCH   1  24
TORSDOF 8
