REMARK  Name = ZINC05919285
REMARK  12 active torsions:
REMARK  status: ('A' for Active; 'I' for Inactive)
REMARK    1  A    between atoms: C_1  and  C_2
REMARK    2  A    between atoms: C_2  and  C_3
REMARK    3  A    between atoms: C_3  and  C_4
REMARK    4  A    between atoms: C_4  and  C_6
REMARK    5  A    between atoms: C_4  and  N_70
REMARK    6  A    between atoms: N_10  and  C_11
REMARK    7  A    between atoms: C_11  and  C_12
REMARK    8  A    between atoms: C_19  and  C_20
REMARK    9  A    between atoms: C_19  and  N_70
REMARK   10  A    between atoms: C_25  and  O_32
REMARK   11  A    between atoms: O_32  and  C_33
REMARK   12  A    between atoms: C_34  and  N_70
REMARK                            x       y       z     vdW  Elec       q    Type
REMARK                         _______ _______ _______ _____ _____    ______ ____
ROOT
ATOM      1  N   UNL     1      -8.210  -0.891   4.344  0.00  0.00    +0.391 N 
ATOM      2  H   UNL     1      -7.609  -0.346   4.974  0.00  0.00    -0.080 HD
ENDROOT
BRANCH   1   3
ATOM      3  C   UNL     1      -7.372  -1.839   3.581  0.00  0.00    -0.067 C 
ATOM      4  C   UNL     1      -6.832  -2.932   4.527  0.00  0.00    -0.015 C 
ATOM      5  C   UNL     1      -5.387  -3.184   4.028  0.00  0.00    -0.002 C 
ATOM      6  C   UNL     1      -4.903  -1.764   3.644  0.00  0.00    -0.002 C 
ATOM      7  C   UNL     1      -6.146  -1.097   3.020  0.00  0.00    -0.015 C 
ENDBRANCH   1   3
BRANCH   1   8
ATOM      8  C   UNL     1      -9.205  -1.631   5.149  0.00  0.00    +0.003 C 
BRANCH   8   9
ATOM      9  C   UNL     1      -9.546  -0.808   6.365  0.00  0.00    +0.138 A 
ATOM     10  N   UNL     1      -9.425   0.491   6.490  0.00  0.00    -0.115 NA
ATOM     11  N   UNL     1      -9.819   0.816   7.673  0.00  0.00    -0.023 NA
ATOM     12  N   UNL     1     -10.188  -0.243   8.306  0.00  0.00    -0.044 NA
ATOM     13  N   UNL     1     -10.040  -1.264   7.531  0.00  0.00    -0.226 N 
BRANCH  13  14
ATOM     14  C   UNL     1     -10.349  -2.658   7.860  0.00  0.00    +0.182 C 
BRANCH  14  15
ATOM     15  C   UNL     1      -9.167  -3.283   8.556  0.00  0.00    -0.026 A 
ATOM     16  C   UNL     1      -8.264  -4.043   7.835  0.00  0.00    +0.008 A 
ATOM     17  C   UNL     1      -7.177  -4.612   8.471  0.00  0.00    +0.038 A 
ATOM     18  C   UNL     1      -6.999  -4.431   9.832  0.00  0.00    +0.123 A 
ATOM     19  C   UNL     1      -7.907  -3.674  10.554  0.00  0.00    +0.038 A 
ATOM     20  C   UNL     1      -8.990  -3.101   9.915  0.00  0.00    +0.008 A 
ATOM     21  F   UNL     1      -5.940  -4.991  10.456  0.00  0.00    -0.205 F 
ENDBRANCH  14  15
ENDBRANCH  13  14
ENDBRANCH   8   9
BRANCH   8  22
ATOM     22  C   UNL     1     -10.473  -1.882   4.331  0.00  0.00    -0.008 C 
BRANCH  22  24
ATOM     23  C   UNL     1     -11.438  -3.182   2.428  0.00  0.00    +0.004 C 
ATOM     24  C   UNL     1     -10.145  -2.799   3.151  0.00  0.00    -0.005 C 
ENDBRANCH  22  24
ENDBRANCH   8  22
ENDBRANCH   1   8
BRANCH   1  25
ATOM     25  C   UNL     1      -8.897   0.034   3.418  0.00  0.00    -0.036 C 
BRANCH  25  26
ATOM     26  C   UNL     1      -7.901   1.050   2.922  0.00  0.00    +0.001 A 
ATOM     27  C   UNL     1      -7.260   0.849   1.744  0.00  0.00    +0.017 A 
ATOM     28  C   UNL     1      -6.299   1.854   1.290  0.00  0.00    -0.001 A 
ATOM     29  C   UNL     1      -5.607   1.700   0.082  0.00  0.00    +0.013 A 
ATOM     30  C   UNL     1      -4.721   2.656  -0.318  0.00  0.00    +0.046 A 
ATOM     31  C   UNL     1      -4.490   3.782   0.471  0.00  0.00    +0.122 A 
ATOM     32  C   UNL     1      -5.164   3.953   1.668  0.00  0.00    +0.072 A 
ATOM     33  C   UNL     1      -6.074   2.992   2.089  0.00  0.00    +0.053 A 
ATOM     34  N   UNL     1      -6.759   3.137   3.277  0.00  0.00    -0.322 N 
ATOM     35  H   UNL     1      -6.603   3.921   3.826  0.00  0.00    +0.169 HD
ATOM     36  C   UNL     1      -7.640   2.207   3.685  0.00  0.00    +0.251 A 
ATOM     37  O   UNL     1      -8.227   2.368   4.741  0.00  0.00    -0.268 OA
BRANCH  31  38
ATOM     38  O   UNL     1      -3.601   4.722   0.059  0.00  0.00    -0.495 OA
ATOM     39  C   UNL     1      -2.938   4.487  -1.185  0.00  0.00    +0.277 C 
ENDBRANCH  31  38
ENDBRANCH  25  26
ENDBRANCH   1  25
TORSDOF 10
