REMARK  Name = ZINC36252649
REMARK  5 active torsions:
REMARK  status: ('A' for Active; 'I' for Inactive)
REMARK    1  A    between atoms: C_1  and  C_2
REMARK    2  A    between atoms: C_3  and  N_19
REMARK    3  A    between atoms: C_8  and  C_11
REMARK    4  A    between atoms: C_11  and  C_12
REMARK    5  A    between atoms: C_12  and  C_13
REMARK                            x       y       z     vdW  Elec       q    Type
REMARK                         _______ _______ _______ _____ _____    ______ ____
ROOT
ATOM      1  C   UNL     1      -0.018   1.503   0.010  0.00  0.00    +0.066 C 
ATOM      2  C   UNL     1       0.002  -0.004   0.002  0.00  0.00    +0.044 A 
ATOM      3  C   UNL     1       0.006  -0.671  -1.178  0.00  0.00    +0.044 A 
ATOM      4  C   UNL     1       0.024  -2.081  -1.196  0.00  0.00    +0.028 A 
ATOM      5  C   UNL     1       0.039  -2.770  -0.024  0.00  0.00    +0.050 A 
ATOM      6  C   UNL     1       0.036  -2.061   1.193  0.00  0.00    +0.161 A 
ATOM      7  N   UNL     1       0.023  -0.689   1.184  0.00  0.00    -0.282 N 
ATOM      8  C   UNL     1       0.030  -0.307   2.489  0.00  0.00    +0.138 A 
ATOM      9  N   UNL     1       0.052  -1.394   3.217  0.00  0.00    -0.134 NA
ATOM     10  N   UNL     1       0.046  -2.436   2.463  0.00  0.00    -0.129 NA
ENDROOT
BRANCH   3  11
ATOM     11  N   UNL     1      -0.010   0.042  -2.384  0.00  0.00    -0.357 N 
ATOM     12  H   UNL     1      -0.023   1.012  -2.373  0.00  0.00    +0.142 HD
ATOM     13  H   UNL     1      -0.007  -0.433  -3.229  0.00  0.00    +0.142 HD
ENDBRANCH   3  11
BRANCH   8  14
ATOM     14  C   UNL     1       0.017   1.110   3.003  0.00  0.00    +0.077 C 
BRANCH  14  15
ATOM     15  C   UNL     1      -1.430   1.570   3.191  0.00  0.00    +0.011 C 
BRANCH  15  16
ATOM     16  C   UNL     1      -1.444   3.009   3.712  0.00  0.00    -0.011 C 
ATOM     17  C   UNL     1      -0.821   3.050   5.109  0.00  0.00    +0.003 C 
ATOM     18  C   UNL     1      -0.835   4.489   5.630  0.00  0.00    +0.000 C 
ATOM     19  C   UNL     1      -2.278   4.992   5.700  0.00  0.00    +0.000 C 
ATOM     20  C   UNL     1      -2.901   4.950   4.303  0.00  0.00    +0.000 C 
ATOM     21  C   UNL     1      -2.887   3.512   3.782  0.00  0.00    +0.003 C 
ENDBRANCH  15  16
ENDBRANCH  14  15
ENDBRANCH   8  14
TORSDOF 4
