REMARK  Name = ZINC36503730
REMARK  8 active torsions:
REMARK  status: ('A' for Active; 'I' for Inactive)
REMARK    1  A    between atoms: C_8  and  C_15
REMARK    2  A    between atoms: C_15  and  C_17
REMARK    3  A    between atoms: C_15  and  N_26
REMARK    4  A    between atoms: N_19  and  C_20
REMARK    5  A    between atoms: N_26  and  C_27
REMARK    6  A    between atoms: C_27  and  C_28
REMARK    7  A    between atoms: C_33  and  C_35
REMARK    8  A    between atoms: C_35  and  O_36
REMARK                            x       y       z     vdW  Elec       q    Type
REMARK                         _______ _______ _______ _____ _____    ______ ____
ROOT
ATOM      1  C   UNL     1       2.909  -4.288  -0.101  0.00  0.00    +0.193 C 
ENDROOT
BRANCH   1   9
ATOM      2  C   UNL     1      -1.614  -0.163   0.408  0.00  0.00    +0.001 A 
ATOM      3  C   UNL     1      -0.830   0.985   0.416  0.00  0.00    +0.001 A 
ATOM      4  C   UNL     1       0.530   0.902   0.323  0.00  0.00    +0.009 A 
ATOM      5  C   UNL     1       1.142  -0.349   0.219  0.00  0.00    -0.010 A 
ATOM      6  C   UNL     1       0.348  -1.518   0.211  0.00  0.00    -0.017 A 
ATOM      7  C   UNL     1      -1.045  -1.399   0.308  0.00  0.00    +0.008 A 
ATOM      8  C   UNL     1       0.964  -2.786   0.105  0.00  0.00    +0.015 A 
ATOM      9  C   UNL     1       2.303  -2.912   0.010  0.00  0.00    -0.010 A 
ATOM     10  C   UNL     1       3.152  -1.781   0.013  0.00  0.00    -0.012 A 
ATOM     11  C   UNL     1       2.598  -0.485   0.117  0.00  0.00    -0.010 A 
ATOM     12  C   UNL     1       3.439   0.629   0.119  0.00  0.00    +0.009 A 
ATOM     13  C   UNL     1       4.790   0.457   0.022  0.00  0.00    +0.001 A 
ATOM     14  C   UNL     1       5.339  -0.816  -0.080  0.00  0.00    +0.001 A 
ATOM     15  C   UNL     1       4.543  -1.923  -0.086  0.00  0.00    +0.009 A 
ENDBRANCH   1   9
BRANCH   1  16
ATOM     16  C   UNL     1       3.184  -4.828   1.278  0.00  0.00    +0.238 C 
ATOM     17  O   UNL     1       2.263  -5.103   2.018  0.00  0.00    -0.273 OA
ATOM     18  N   UNL     1       4.455  -5.006   1.691  0.00  0.00    -0.311 N 
ATOM     19  H   UNL     1       5.192  -4.786   1.100  0.00  0.00    +0.149 HD
BRANCH  18  20
ATOM     20  C   UNL     1       4.723  -5.531   3.032  0.00  0.00    +0.073 C 
ATOM     21  C   UNL     1       4.711  -4.382   4.042  0.00  0.00    +0.022 C 
ATOM     22  C   UNL     1       4.992  -4.930   5.442  0.00  0.00    +0.002 C 
ATOM     23  C   UNL     1       6.362  -5.610   5.459  0.00  0.00    +0.000 C 
ATOM     24  C   UNL     1       6.374  -6.759   4.449  0.00  0.00    +0.002 C 
ATOM     25  C   UNL     1       6.094  -6.211   3.049  0.00  0.00    +0.022 C 
ENDBRANCH  18  20
ENDBRANCH   1  16
BRANCH   1  26
ATOM     26  N   UNL     1       1.975  -5.177  -0.796  0.00  0.00    -0.277 N 
ATOM     27  C   UNL     1       1.659  -4.947  -2.086  0.00  0.00    +0.242 C 
ATOM     28  O   UNL     1       0.814  -5.624  -2.633  0.00  0.00    -0.273 OA
BRANCH  26  29
ATOM     29  C   UNL     1       1.385  -6.317  -0.089  0.00  0.00    +0.183 C 
BRANCH  29  30
ATOM     30  C   UNL     1       0.010  -5.945   0.403  0.00  0.00    +0.122 A 
ATOM     31  C   UNL     1      -1.140  -6.114  -0.274  0.00  0.00    +0.046 A 
ATOM     32  C   UNL     1      -2.178  -5.632   0.555  0.00  0.00    +0.041 A 
ATOM     33  C   UNL     1      -1.601  -5.198   1.690  0.00  0.00    +0.195 A 
ATOM     34  O   UNL     1      -0.276  -5.395   1.594  0.00  0.00    -0.466 OA
ENDBRANCH  29  30
ENDBRANCH  26  29
BRANCH  27  35
ATOM     35  C   UNL     1       2.355  -3.850  -2.848  0.00  0.00    +0.251 C 
BRANCH  35  36
ATOM     36  O   UNL     1       1.809  -3.764  -4.166  0.00  0.00    -0.386 OA
ATOM     37  H   UNL     1       2.211  -3.077  -4.715  0.00  0.00    +0.210 HD
ENDBRANCH  35  36
ENDBRANCH  27  35
ENDBRANCH   1  26
TORSDOF 8
