REMARK  Name = ZINC02664927
REMARK  13 active torsions:
REMARK  status: ('A' for Active; 'I' for Inactive)
REMARK    1  A    between atoms: C_1  and  C_2
REMARK    2  A    between atoms: C_2  and  O_3
REMARK    3  A    between atoms: O_3  and  C_4
REMARK    4  A    between atoms: N_6  and  C_7
REMARK    5  A    between atoms: C_11  and  C_18
REMARK    6  A    between atoms: C_18  and  S_19
REMARK    7  A    between atoms: S_19  and  C_20
REMARK    8  A    between atoms: C_23  and  C_33
REMARK    9  A    between atoms: N_24  and  C_25
REMARK   10  A    between atoms: C_28  and  O_31
REMARK   11  A    between atoms: O_31  and  C_32
REMARK   12  A    between atoms: C_38  and  O_39
REMARK   13  A    between atoms: O_39  and  C_40
REMARK                            x       y       z     vdW  Elec       q    Type
REMARK                         _______ _______ _______ _____ _____    ______ ____
ROOT
ATOM      1  C   UNL     1       2.513  -2.849  -1.006  0.00  0.00    +0.197 A 
ATOM      2  N   UNL     1       2.915  -3.298   0.162  0.00  0.00    -0.122 NA
ATOM      3  N   UNL     1       3.071  -4.573   0.116  0.00  0.00    -0.128 NA
ATOM      4  C   UNL     1       2.778  -5.019  -1.084  0.00  0.00    +0.173 A 
ATOM      5  N   UNL     1       2.406  -3.929  -1.840  0.00  0.00    -0.270 N 
ENDROOT
BRANCH   5   6
ATOM      6  C   UNL     1       2.005  -3.925  -3.184  0.00  0.00    +0.051 A 
ATOM      7  C   UNL     1       0.816  -4.538  -3.555  0.00  0.00    +0.030 A 
ATOM      8  C   UNL     1       0.418  -4.530  -4.877  0.00  0.00    +0.047 A 
ATOM      9  C   UNL     1       1.212  -3.919  -5.837  0.00  0.00    +0.120 A 
ATOM     10  C   UNL     1       2.403  -3.312  -5.468  0.00  0.00    +0.047 A 
ATOM     11  C   UNL     1       2.799  -3.314  -4.145  0.00  0.00    +0.030 A 
BRANCH   9  12
ATOM     12  O   UNL     1       0.822  -3.915  -7.140  0.00  0.00    -0.495 OA
ATOM     13  C   UNL     1      -0.416  -4.559  -7.448  0.00  0.00    +0.277 C 
ENDBRANCH   9  12
ENDBRANCH   5   6
BRANCH   4  14
ATOM     14  C   UNL     1       2.832  -6.424  -1.537  0.00  0.00    +0.061 A 
ATOM     15  C   UNL     1       3.448  -6.748  -2.746  0.00  0.00    +0.015 A 
ATOM     16  C   UNL     1       3.495  -8.062  -3.164  0.00  0.00    +0.001 A 
ATOM     17  C   UNL     1       2.934  -9.061  -2.387  0.00  0.00    +0.004 A 
ATOM     18  C   UNL     1       2.321  -8.752  -1.187  0.00  0.00    +0.046 A 
ATOM     19  C   UNL     1       2.271  -7.439  -0.751  0.00  0.00    +0.131 A 
BRANCH  19  20
ATOM     20  O   UNL     1       1.675  -7.135   0.431  0.00  0.00    -0.494 OA
ATOM     21  C   UNL     1       1.124  -8.221   1.178  0.00  0.00    +0.277 C 
ENDBRANCH  19  20
ENDBRANCH   4  14
BRANCH   1  22
ATOM     22  S   UNL     1       2.169  -1.171  -1.418  0.00  0.00    -0.081 S 
BRANCH  22  23
ATOM     23  C   UNL     1       2.529  -0.377   0.168  0.00  0.00    +0.113 C 
BRANCH  23  28
ATOM     24  C   UNL     1      -1.477   2.828   0.886  0.00  0.00    +0.040 A 
ATOM     25  C   UNL     1      -1.302   1.449   1.000  0.00  0.00    +0.024 A 
ATOM     26  C   UNL     1      -0.089   0.882   0.739  0.00  0.00    +0.013 A 
ATOM     27  C   UNL     1       0.985   1.689   0.344  0.00  0.00    +0.022 A 
ATOM     28  C   UNL     1       2.297   1.107   0.051  0.00  0.00    -0.020 A 
ATOM     29  C   UNL     1       3.299   1.942  -0.329  0.00  0.00    +0.097 A 
ATOM     30  C   UNL     1       3.057   3.327  -0.431  0.00  0.00    +0.338 A 
ATOM     31  O   UNL     1       3.965   4.065  -0.772  0.00  0.00    -0.245 OA
ATOM     32  O   UNL     1       1.853   3.854  -0.161  0.00  0.00    -0.422 OA
ATOM     33  C   UNL     1       0.814   3.080   0.221  0.00  0.00    +0.141 A 
ATOM     34  C   UNL     1      -0.424   3.641   0.496  0.00  0.00    +0.070 A 
BRANCH  24  37
ATOM     35  C   UNL     1      -2.799   4.624   1.705  0.00  0.00    +0.405 C 
ATOM     36  O   UNL     1      -1.785   5.204   2.041  0.00  0.00    -0.226 OA
ATOM     37  N   UNL     1      -2.722   3.393   1.162  0.00  0.00    -0.251 N 
ATOM     38  H   UNL     1      -3.533   2.900   0.963  0.00  0.00    +0.158 HD
BRANCH  35  39
ATOM     39  O   UNL     1      -3.998   5.212   1.875  0.00  0.00    -0.450 OA
BRANCH  39  41
ATOM     40  C   UNL     1      -5.446   7.040   2.579  0.00  0.00    +0.048 C 
ATOM     41  C   UNL     1      -4.004   6.538   2.466  0.00  0.00    +0.230 C 
ENDBRANCH  39  41
ENDBRANCH  35  39
ENDBRANCH  24  37
ENDBRANCH  23  28
ENDBRANCH  22  23
ENDBRANCH   1  22
TORSDOF 10
