REMARK  Name = ZINC17206349
REMARK  9 active torsions:
REMARK  status: ('A' for Active; 'I' for Inactive)
REMARK    1  A    between atoms: C_1  and  C_2
REMARK    2  A    between atoms: C_2  and  O_3
REMARK    3  A    between atoms: O_3  and  C_4
REMARK    4  A    between atoms: C_6  and  C_11
REMARK    5  A    between atoms: C_9  and  O_10
REMARK    6  A    between atoms: N_12  and  N_13
REMARK    7  A    between atoms: C_17  and  C_20
REMARK    8  A    between atoms: C_24  and  S_26
REMARK    9  A    between atoms: S_26  and  N_29
REMARK                            x       y       z     vdW  Elec       q    Type
REMARK                         _______ _______ _______ _____ _____    ______ ____
ROOT
ATOM      1  N   UNL     1      -0.593  -7.046  -1.241  0.00  0.00    -0.124 NA
ATOM      2  C   UNL     1      -0.483  -8.357  -1.093  0.00  0.00    +0.192 A 
ATOM      3  N   UNL     1      -0.937  -9.363  -1.912  0.00  0.00    -0.332 N 
ATOM      4  H   UNL     1      -1.414  -9.158  -2.731  0.00  0.00    +0.168 HD
ATOM      5  C   UNL     1      -0.704 -10.660  -1.549  0.00  0.00    +0.055 A 
ATOM      6  C   UNL     1      -0.038 -10.924  -0.404  0.00  0.00    +0.075 A 
ATOM      7  S   UNL     1       0.300  -9.284   0.217  0.00  0.00    -0.056 S 
ENDROOT
BRANCH   5   8
ATOM      8  C   UNL     1      -1.178 -11.769  -2.405  0.00  0.00    +0.001 A 
ATOM      9  C   UNL     1      -1.862 -11.495  -3.591  0.00  0.00    +0.010 A 
ATOM     10  C   UNL     1      -2.301 -12.534  -4.385  0.00  0.00    +0.003 A 
ATOM     11  C   UNL     1      -2.066 -13.845  -4.009  0.00  0.00    +0.028 A 
ATOM     12  C   UNL     1      -1.389 -14.122  -2.834  0.00  0.00    +0.106 A 
ATOM     13  C   UNL     1      -0.939 -13.092  -2.034  0.00  0.00    +0.038 A 
BRANCH  12  14
ATOM     14  S   UNL     1      -1.095 -15.795  -2.364  0.00  0.00    +0.061 S 
ATOM     15  O   UNL     1      -0.922 -15.795  -0.953  0.00  0.00    -0.153 OA
ATOM     16  O   UNL     1      -2.089 -16.579  -3.010  0.00  0.00    -0.153 OA
BRANCH  14  17
ATOM     17  N   UNL     1       0.359 -16.239  -3.019  0.00  0.00    -0.172 NA
ATOM     18  C   UNL     1       0.434 -16.834  -4.363  0.00  0.00    +0.137 C 
ATOM     19  C   UNL     1       1.489 -16.071  -5.171  0.00  0.00    +0.177 C 
ATOM     20  O   UNL     1       2.709 -16.025  -4.428  0.00  0.00    -0.377 OA
ATOM     21  C   UNL     1       2.612 -15.326  -3.185  0.00  0.00    +0.177 C 
ATOM     22  C   UNL     1       1.615 -16.046  -2.277  0.00  0.00    +0.137 C 
ENDBRANCH  14  17
ENDBRANCH  12  14
ENDBRANCH   5   8
BRANCH   1  24
ATOM     23  C   UNL     1      -0.198  -4.958  -0.501  0.00  0.00    +0.143 C 
ATOM     24  N   UNL     1      -0.090  -6.253  -0.356  0.00  0.00    -0.155 NA
BRANCH  23  27
ATOM     25  C   UNL     1       0.802  -1.825   1.306  0.00  0.00    +0.162 A 
ATOM     26  C   UNL     1       0.261  -2.669   0.354  0.00  0.00    +0.059 A 
ATOM     27  C   UNL     1       0.376  -4.055   0.507  0.00  0.00    -0.002 A 
ATOM     28  C   UNL     1       1.037  -4.578   1.624  0.00  0.00    +0.013 A 
ATOM     29  C   UNL     1       1.573  -3.729   2.568  0.00  0.00    +0.050 A 
ATOM     30  C   UNL     1       1.464  -2.354   2.412  0.00  0.00    +0.158 A 
BRANCH  30  31
ATOM     31  O   UNL     1       1.999  -1.522   3.344  0.00  0.00    -0.503 OA
ATOM     32  H   UNL     1       1.393  -1.294   4.062  0.00  0.00    +0.292 HD
ENDBRANCH  30  31
BRANCH  25  33
ATOM     33  O   UNL     1       0.693  -0.477   1.160  0.00  0.00    -0.489 OA
BRANCH  33  35
ATOM     34  C   UNL     1      -0.019   1.526   0.010  0.00  0.00    +0.048 C 
ATOM     35  C   UNL     1       0.002  -0.004   0.002  0.00  0.00    +0.226 C 
ENDBRANCH  33  35
ENDBRANCH  25  33
ENDBRANCH  23  27
ENDBRANCH   1  24
TORSDOF 8
