REMARK  Name = ZINC21601192
REMARK  3 active torsions:
REMARK  status: ('A' for Active; 'I' for Inactive)
REMARK    1  A    between atoms: C_1  and  C_2
REMARK    2  A    between atoms: C_9  and  N_14
REMARK    3  A    between atoms: C_15  and  C_17
REMARK                            x       y       z     vdW  Elec       q    Type
REMARK                         _______ _______ _______ _____ _____    ______ ____
ROOT
ATOM      1  C   UNL     1       3.605  -0.670   0.085  0.00  0.00    +0.062 C 
ATOM      2  C   UNL     1       2.325   0.065   0.487  0.00  0.00    +0.256 C 
ATOM      3  C   UNL     1       1.130  -0.667  -0.069  0.00  0.00    +0.258 C 
ATOM      4  O   UNL     1       1.181  -1.865  -0.250  0.00  0.00    -0.271 OA
ATOM      5  N   UNL     1       0.003   0.016  -0.364  0.00  0.00    -0.279 N 
ATOM      6  C   UNL     1      -0.018   1.406  -0.178  0.00  0.00    +0.077 A 
ATOM      7  C   UNL     1      -1.216   2.099  -0.164  0.00  0.00    +0.050 A 
ATOM      8  C   UNL     1      -1.215   3.475   0.026  0.00  0.00    +0.036 A 
ATOM      9  C   UNL     1      -0.015   4.153   0.191  0.00  0.00    +0.027 A 
ATOM     10  C   UNL     1       1.183   3.462   0.172  0.00  0.00    +0.049 A 
ATOM     11  C   UNL     1       1.186   2.090  -0.012  0.00  0.00    +0.143 A 
ATOM     12  O   UNL     1       2.357   1.397  -0.033  0.00  0.00    -0.478 OA
ATOM     13  H   UNL     1      -0.880  -0.518  -0.744  0.00  0.00    +0.155 HD
ENDROOT
BRANCH   8  14
ATOM     14  N   UNL     1      -2.425   4.179   0.046  0.00  0.00    -0.281 N 
ATOM     15  C   UNL     1      -3.534   3.599   0.547  0.00  0.00    +0.255 C 
ATOM     16  O   UNL     1      -3.465   2.502   1.068  0.00  0.00    -0.269 OA
ATOM     17  H   UNL     1      -2.470   5.206  -0.346  0.00  0.00    +0.155 HD
BRANCH  15  18
ATOM     18  C   UNL     1      -4.823   4.290   0.463  0.00  0.00    +0.075 A 
ATOM     19  C   UNL     1      -6.068   3.875   0.910  0.00  0.00    +0.022 A 
ATOM     20  C   UNL     1      -7.123   4.726   0.703  0.00  0.00    +0.024 A 
ATOM     21  C   UNL     1      -6.903   5.916   0.080  0.00  0.00    +0.056 A 
ATOM     22  S   UNL     1      -5.199   5.889  -0.234  0.00  0.00    -0.077 S 
ATOM     23 BR   UNL     1      -8.153   7.273  -0.336  0.00  0.00    -0.043 Br
ENDBRANCH  15  18
ENDBRANCH   8  14
TORSDOF 2
