REMARK  Name = ZINC14156276
REMARK  10 active torsions:
REMARK  status: ('A' for Active; 'I' for Inactive)
REMARK    1  A    between atoms: C_1  and  C_2
REMARK    2  A    between atoms: C_4  and  C_29
REMARK    3  A    between atoms: N_10  and  C_11
REMARK    4  A    between atoms: C_11  and  N_13
REMARK    5  A    between atoms: N_13  and  C_14
REMARK    6  A    between atoms: C_17  and  C_20
REMARK    7  A    between atoms: N_24  and  C_25
REMARK    8  A    between atoms: C_25  and  C_26
REMARK    9  A    between atoms: C_26  and  C_27
REMARK   10  A    between atoms: C_26  and  C_28
REMARK                            x       y       z     vdW  Elec       q    Type
REMARK                         _______ _______ _______ _____ _____    ______ ____
ROOT
ATOM      1  C   UNL     1      -2.252  -0.645  -0.968  0.00  0.00    +0.066 C 
ATOM      2  C   UNL     1      -2.023  -2.041  -0.448  0.00  0.00    +0.044 A 
ATOM      3  C   UNL     1      -2.340  -3.142  -1.228  0.00  0.00    +0.046 A 
ATOM      4  C   UNL     1      -2.113  -4.408  -0.712  0.00  0.00    +0.044 A 
ATOM      5  N   UNL     1      -1.604  -4.527   0.504  0.00  0.00    -0.217 NA
ATOM      6  C   UNL     1      -1.313  -3.454   1.224  0.00  0.00    +0.231 A 
ATOM      7  N   UNL     1      -1.513  -2.231   0.758  0.00  0.00    -0.217 NA
ATOM      8  N   UNL     1      -0.781  -3.616   2.496  0.00  0.00    -0.297 N 
ATOM      9  C   UNL     1      -0.532  -2.521   3.278  0.00  0.00    +0.195 C 
ATOM     10  N   UNL     1       0.090  -2.663   4.436  0.00  0.00    -0.159 NA
ATOM     11  N   UNL     1      -0.926  -1.282   2.863  0.00  0.00    -0.357 N 
ATOM     12  C   UNL     1      -2.441  -5.633  -1.524  0.00  0.00    +0.066 C 
ATOM     13  H   UNL     1      -0.585  -4.505   2.830  0.00  0.00    +0.171 HD
ATOM     14  H   UNL     1      -1.481  -1.189   2.073  0.00  0.00    +0.162 HD
ENDROOT
BRANCH  10  15
ATOM     15  C   UNL     1      -0.066  -1.743   5.399  0.00  0.00    +0.161 C 
ATOM     16  S   UNL     1      -1.613  -1.470   6.080  0.00  0.00    -0.016 S 
BRANCH  15  17
ATOM     17  N   UNL     1       0.995  -1.032   5.830  0.00  0.00    -0.295 N 
ATOM     18  H   UNL     1       1.853  -1.127   5.388  0.00  0.00    +0.154 HD
BRANCH  17  19
ATOM     19  C   UNL     1       0.858  -0.160   6.914  0.00  0.00    +0.033 A 
ATOM     20  C   UNL     1       0.092  -0.529   8.012  0.00  0.00    +0.024 A 
ATOM     21  C   UNL     1      -0.041   0.335   9.081  0.00  0.00    +0.014 A 
ATOM     22  C   UNL     1       0.587   1.567   9.059  0.00  0.00    +0.055 A 
ATOM     23  C   UNL     1       1.350   1.938   7.966  0.00  0.00    +0.014 A 
ATOM     24  C   UNL     1       1.492   1.076   6.897  0.00  0.00    +0.024 A 
BRANCH  22  25
ATOM     25  C   UNL     1       0.439   2.508  10.227  0.00  0.00    +0.417 C 
ATOM     26  F   UNL     1       1.459   2.266  11.152  0.00  0.00    -0.166 F 
ATOM     27  F   UNL     1       0.523   3.829   9.775  0.00  0.00    -0.166 F 
ATOM     28  F   UNL     1      -0.803   2.302  10.837  0.00  0.00    -0.166 F 
ENDBRANCH  22  25
ENDBRANCH  17  19
ENDBRANCH  15  17
ENDBRANCH  10  15
BRANCH  11  29
ATOM     29  C   UNL     1      -0.511  -0.092   3.611  0.00  0.00    +0.118 C 
BRANCH  29  30
ATOM     30  C   UNL     1      -0.805   1.160   2.782  0.00  0.00    +0.002 C 
ATOM     31  C   UNL     1      -2.317   1.305   2.596  0.00  0.00    +0.009 C 
ATOM     32  C   UNL     1      -0.259   2.391   3.507  0.00  0.00    +0.009 C 
ENDBRANCH  29  30
ENDBRANCH  11  29
TORSDOF 6
