REMARK  Name = ZINC53200638
REMARK  5 active torsions:
REMARK  status: ('A' for Active; 'I' for Inactive)
REMARK    1  A    between atoms: C_1  and  C_2
REMARK    2  A    between atoms: C_7  and  C_8
REMARK    3  A    between atoms: C_10  and  C_13
REMARK    4  A    between atoms: C_13  and  C_14
REMARK    5  A    between atoms: C_19  and  N_20
REMARK                            x       y       z     vdW  Elec       q    Type
REMARK                         _______ _______ _______ _____ _____    ______ ____
ROOT
ATOM      1  C   UNL     1      -0.122  -0.120   2.567  0.00  0.00    +0.202 A 
ATOM      2  N   UNL     1       0.006  -0.736   3.756  0.00  0.00    -0.191 NA
ATOM      3  C   UNL     1      -0.110   0.129   4.722  0.00  0.00    +0.232 A 
ATOM      4  O   UNL     1      -0.317   1.339   4.186  0.00  0.00    -0.337 OA
ATOM      5  N   UNL     1      -0.316   1.159   2.777  0.00  0.00    -0.056 NA
ENDROOT
BRANCH   1  12
ATOM      6  C   UNL     1       2.011  -1.993   2.010  0.00  0.00    +0.044 C 
ATOM      7  C   UNL     1       0.975  -1.681   0.961  0.00  0.00    -0.040 A 
ATOM      8  C   UNL     1       1.035  -2.294  -0.274  0.00  0.00    +0.004 A 
ATOM      9  C   UNL     1       0.085  -2.008  -1.238  0.00  0.00    +0.000 A 
ATOM     10  C   UNL     1      -0.930  -1.107  -0.970  0.00  0.00    +0.001 A 
ATOM     11  C   UNL     1      -1.000  -0.489   0.262  0.00  0.00    +0.012 A 
ATOM     12  C   UNL     1      -0.048  -0.777   1.238  0.00  0.00    +0.025 A 
ENDBRANCH   1  12
BRANCH   3  13
ATOM     13  C   UNL     1      -0.025  -0.178   6.195  0.00  0.00    +0.135 C 
BRANCH  13  14
ATOM     14  C   UNL     1       1.406  -0.056   6.652  0.00  0.00    -0.018 A 
ATOM     15  C   UNL     1       2.214  -1.175   6.702  0.00  0.00    +0.006 A 
ATOM     16  C   UNL     1       3.527  -1.063   7.122  0.00  0.00    +0.000 A 
ATOM     17  C   UNL     1       4.035   0.169   7.492  0.00  0.00    +0.002 A 
ATOM     18  C   UNL     1       3.233   1.291   7.444  0.00  0.00    +0.023 A 
ATOM     19  C   UNL     1       1.915   1.184   7.017  0.00  0.00    +0.028 A 
BRANCH  19  20
ATOM     20  N   UNL     1       1.103   2.318   6.962  0.00  0.00    -0.358 N 
ATOM     21  H   UNL     1       0.181   2.241   6.668  0.00  0.00    +0.142 HD
ATOM     22  H   UNL     1       1.460   3.183   7.218  0.00  0.00    +0.142 HD
ENDBRANCH  19  20
ENDBRANCH  13  14
ENDBRANCH   3  13
TORSDOF 4
