REMARK  Name = ZINC14475640
REMARK  3 active torsions:
REMARK  status: ('A' for Active; 'I' for Inactive)
REMARK    1  A    between atoms: C_12  and  C_21
REMARK    2  A    between atoms: C_23  and  N_28
REMARK    3  A    between atoms: C_26  and  O_27
REMARK                            x       y       z     vdW  Elec       q    Type
REMARK                         _______ _______ _______ _____ _____    ______ ____
ROOT
ATOM      1  C   UNL     1      -1.213   3.545  -0.487  0.00  0.00    +0.001 A 
ATOM      2  C   UNL     1      -0.001   4.233  -0.483  0.00  0.00    +0.001 A 
ATOM      3  C   UNL     1       1.183   3.569  -0.374  0.00  0.00    +0.010 A 
ATOM      4  C   UNL     1       1.185   2.169  -0.263  0.00  0.00    +0.003 A 
ATOM      5  C   UNL     1      -0.045   1.470  -0.264  0.00  0.00    -0.016 A 
ATOM      6  C   UNL     1      -1.248   2.188  -0.384  0.00  0.00    +0.008 A 
ATOM      7  C   UNL     1      -0.037   0.070  -0.150  0.00  0.00    +0.009 A 
ATOM      8  C   UNL     1       1.144  -0.592  -0.046  0.00  0.00    +0.006 A 
ATOM      9  C   UNL     1       2.371   0.082  -0.046  0.00  0.00    -0.019 A 
ATOM     10  C   UNL     1       2.401   1.452  -0.150  0.00  0.00    +0.039 A 
ATOM     11  N   UNL     1       3.588   2.176  -0.149  0.00  0.00    -0.336 N 
ATOM     12  C   UNL     1       4.722   1.386  -0.630  0.00  0.00    +0.108 C 
ATOM     13  C   UNL     1       4.873   0.137   0.242  0.00  0.00    +0.029 C 
ATOM     14  C   UNL     1       3.619  -0.746   0.068  0.00  0.00    +0.049 C 
ATOM     15  C   UNL     1       3.874  -1.500  -1.217  0.00  0.00    -0.023 C 
ATOM     16  C   UNL     1       5.154  -1.517  -1.492  0.00  0.00    -0.030 C 
ATOM     17  C   UNL     1       5.938  -0.781  -0.423  0.00  0.00    +0.033 C 
ATOM     18  H   UNL     1       3.737   3.220   0.162  0.00  0.00    +0.147 HD
ENDROOT
BRANCH  12  19
ATOM     19  C   UNL     1       5.980   2.211  -0.548  0.00  0.00    +0.017 A 
ATOM     20  C   UNL     1       6.861   2.237  -1.613  0.00  0.00    +0.041 A 
ATOM     21  C   UNL     1       8.012   2.998  -1.541  0.00  0.00    +0.127 A 
ATOM     22  C   UNL     1       8.292   3.727  -0.399  0.00  0.00    +0.036 A 
ATOM     23  C   UNL     1       7.418   3.700   0.670  0.00  0.00    +0.048 A 
ATOM     24  C   UNL     1       6.259   2.941   0.598  0.00  0.00    +0.122 A 
BRANCH  21  25
ATOM     25  N   UNL     1       8.950   3.029  -2.685  0.00  0.00    +0.056 N 
ATOM     26  O   UNL     1       9.967   3.696  -2.621  0.00  0.00    -0.126 OA
ATOM     27  O   UNL     1       8.705   2.387  -3.691  0.00  0.00    -0.126 OA
ENDBRANCH  21  25
BRANCH  24  28
ATOM     28  O   UNL     1       5.397   2.914   1.648  0.00  0.00    -0.506 OA
ATOM     29  H   UNL     1       5.618   3.493   2.557  0.00  0.00    +0.292 HD
ENDBRANCH  24  28
ENDBRANCH  12  19
TORSDOF 3
