REMARK  Name = ZINC09925211
REMARK  11 active torsions:
REMARK  status: ('A' for Active; 'I' for Inactive)
REMARK    1  A    between atoms: C_1  and  C_2
REMARK    2  A    between atoms: C_7  and  N_12
REMARK    3  A    between atoms: C_9  and  C_11
REMARK    4  A    between atoms: C_13  and  C_15
REMARK    5  A    between atoms: C_15  and  C_17
REMARK    6  A    between atoms: C_15  and  S_18
REMARK    7  A    between atoms: S_18  and  C_19
REMARK    8  A    between atoms: C_22  and  C_32
REMARK    9  A    between atoms: N_23  and  C_24
REMARK   10  A    between atoms: C_27  and  O_30
REMARK   11  A    between atoms: O_30  and  C_31
REMARK                            x       y       z     vdW  Elec       q    Type
REMARK                         _______ _______ _______ _____ _____    ______ ____
ROOT
ATOM      1  C   UNL     1       4.624   0.669  -0.198  0.00  0.00    +0.197 A 
ATOM      2  N   UNL     1       3.962  -0.415   0.143  0.00  0.00    -0.122 NA
ATOM      3  N   UNL     1       2.710  -0.152   0.255  0.00  0.00    -0.128 NA
ATOM      4  C   UNL     1       2.491   1.114  -0.015  0.00  0.00    +0.169 A 
ATOM      5  N   UNL     1       3.712   1.681  -0.311  0.00  0.00    -0.270 N 
ENDROOT
BRANCH   5   6
ATOM      6  C   UNL     1       3.966   3.017  -0.656  0.00  0.00    +0.051 A 
ATOM      7  C   UNL     1       3.460   3.536  -1.840  0.00  0.00    +0.030 A 
ATOM      8  C   UNL     1       3.705   4.853  -2.176  0.00  0.00    +0.047 A 
ATOM      9  C   UNL     1       4.466   5.654  -1.337  0.00  0.00    +0.120 A 
ATOM     10  C   UNL     1       4.977   5.133  -0.156  0.00  0.00    +0.047 A 
ATOM     11  C   UNL     1       4.728   3.818   0.184  0.00  0.00    +0.030 A 
BRANCH   9  12
ATOM     12  O   UNL     1       4.712   6.948  -1.671  0.00  0.00    -0.495 OA
ATOM     13  C   UNL     1       4.155   7.418  -2.900  0.00  0.00    +0.277 C 
ENDBRANCH   9  12
ENDBRANCH   5   6
BRANCH   4  14
ATOM     14  C   UNL     1       1.184   1.803   0.000  0.00  0.00    +0.022 A 
ATOM     15  C   UNL     1      -0.013   1.076   0.008  0.00  0.00    +0.031 A 
ATOM     16  C   UNL     1      -1.210   1.760   0.017  0.00  0.00    +0.111 A 
ATOM     17  N   UNL     1      -1.237   3.079   0.030  0.00  0.00    -0.263 NA
ATOM     18  C   UNL     1      -0.133   3.803   0.024  0.00  0.00    +0.111 A 
ATOM     19  C   UNL     1       1.107   3.201   0.009  0.00  0.00    +0.031 A 
ENDBRANCH   4  14
BRANCH   1  20
ATOM     20  S   UNL     1       6.362   0.795  -0.459  0.00  0.00    -0.073 S 
BRANCH  20  21
ATOM     21  C   UNL     1       6.854  -0.915  -0.128  0.00  0.00    +0.137 C 
ATOM     22  C   UNL     1       6.580  -1.249   1.340  0.00  0.00    +0.029 C 
BRANCH  21  24
ATOM     23  N   UNL     1       8.817  -2.293  -0.733  0.00  0.00    -0.311 N 
ATOM     24  C   UNL     1       8.324  -1.080  -0.414  0.00  0.00    +0.226 C 
ATOM     25  O   UNL     1       9.064  -0.120  -0.358  0.00  0.00    -0.275 OA
ATOM     26  H   UNL     1       8.226  -3.060  -0.777  0.00  0.00    +0.149 HD
BRANCH  23  32
ATOM     27  C   UNL     1      12.958  -3.120  -0.126  0.00  0.00    +0.008 C 
ATOM     28  C   UNL     1      12.155  -4.065  -1.022  0.00  0.00    -0.009 C 
ATOM     29  C   UNL     1      12.429  -3.731  -2.490  0.00  0.00    +0.003 C 
ATOM     30  C   UNL     1      12.014  -2.285  -2.770  0.00  0.00    +0.002 C 
ATOM     31  C   UNL     1      10.521  -2.119  -2.479  0.00  0.00    +0.022 C 
ATOM     32  C   UNL     1      10.247  -2.453  -1.011  0.00  0.00    +0.076 C 
ATOM     33  C   UNL     1      10.663  -3.898  -0.731  0.00  0.00    +0.009 C 
ATOM     34  C   UNL     1      10.389  -4.232   0.737  0.00  0.00    +0.009 C 
ENDBRANCH  23  32
ENDBRANCH  21  24
ENDBRANCH  20  21
ENDBRANCH   1  20
TORSDOF 7
