REMARK  Name = ZINC08845303
REMARK  10 active torsions:
REMARK  status: ('A' for Active; 'I' for Inactive)
REMARK    1  A    between atoms: C_1  and  C_2
REMARK    2  A    between atoms: C_2  and  C_3
REMARK    3  A    between atoms: C_3  and  C_4
REMARK    4  A    between atoms: C_4  and  O_5
REMARK    5  A    between atoms: O_5  and  C_6
REMARK    6  A    between atoms: C_9  and  C_12
REMARK    7  A    between atoms: C_15  and  C_30
REMARK    8  A    between atoms: N_22  and  C_23
REMARK    9  A    between atoms: C_23  and  C_24
REMARK   10  A    between atoms: C_35  and  O_36
REMARK                            x       y       z     vdW  Elec       q    Type
REMARK                         _______ _______ _______ _____ _____    ______ ____
ROOT
ATOM      1  C   UNL     1      -3.640  -7.723   0.161  0.00  0.00    +0.141 C 
ATOM      2  C   UNL     1      -3.745  -8.467   1.463  0.00  0.00    +0.035 A 
ATOM      3  C   UNL     1      -3.159  -8.777   2.695  0.00  0.00    +0.102 A 
ATOM      4  N   UNL     1      -3.983  -9.585   3.332  0.00  0.00    -0.173 NA
ATOM      5  N   UNL     1      -5.031  -9.817   2.625  0.00  0.00    -0.272 N 
ATOM      6  H   UNL     1      -5.771 -10.383   2.894  0.00  0.00    +0.189 HD
ATOM      7  C   UNL     1      -4.949  -9.146   1.438  0.00  0.00    +0.126 A 
ATOM      8  C   UNL     1      -5.618  -8.861   0.163  0.00  0.00    +0.266 C 
ATOM      9  O   UNL     1      -6.699  -9.309  -0.168  0.00  0.00    -0.268 OA
ATOM     10  N   UNL     1      -4.865  -8.035  -0.588  0.00  0.00    -0.283 N 
ENDROOT
BRANCH   1  14
ATOM     11  C   UNL     1      -3.392  -3.518   0.885  0.00  0.00    +0.121 A 
ATOM     12  C   UNL     1      -4.571  -4.201   1.150  0.00  0.00    +0.046 A 
ATOM     13  C   UNL     1      -4.648  -5.560   0.915  0.00  0.00    +0.009 A 
ATOM     14  C   UNL     1      -3.553  -6.240   0.416  0.00  0.00    -0.022 A 
ATOM     15  C   UNL     1      -2.377  -5.562   0.151  0.00  0.00    +0.009 A 
ATOM     16  C   UNL     1      -2.296  -4.202   0.379  0.00  0.00    +0.046 A 
BRANCH  11  17
ATOM     17  O   UNL     1      -3.313  -2.181   1.115  0.00  0.00    -0.492 OA
BRANCH  17  18
ATOM     18  C   UNL     1      -4.480  -1.543   1.637  0.00  0.00    +0.229 C 
BRANCH  18  19
ATOM     19  C   UNL     1      -4.202  -0.051   1.829  0.00  0.00    +0.041 C 
BRANCH  19  21
ATOM     20  C   UNL     1      -5.174   2.125   2.580  0.00  0.00    +0.004 C 
ATOM     21  C   UNL     1      -5.452   0.633   2.388  0.00  0.00    -0.000 C 
ENDBRANCH  19  21
ENDBRANCH  18  19
ENDBRANCH  17  18
ENDBRANCH  11  17
ENDBRANCH   1  14
BRANCH   3  22
ATOM     22  C   UNL     1      -1.850  -8.286   3.193  0.00  0.00    +0.044 A 
ATOM     23  C   UNL     1      -1.024  -7.533   2.363  0.00  0.00    +0.014 A 
ATOM     24  C   UNL     1       0.193  -7.078   2.831  0.00  0.00    +0.001 A 
ATOM     25  C   UNL     1       0.595  -7.368   4.123  0.00  0.00    +0.004 A 
ATOM     26  C   UNL     1      -0.217  -8.115   4.955  0.00  0.00    +0.046 A 
ATOM     27  C   UNL     1      -1.444  -8.572   4.500  0.00  0.00    +0.126 A 
BRANCH  27  28
ATOM     28  O   UNL     1      -2.246  -9.301   5.319  0.00  0.00    -0.506 OA
ATOM     29  H   UNL     1      -2.093 -10.255   5.273  0.00  0.00    +0.292 HD
ENDBRANCH  27  28
ENDBRANCH   3  22
BRANCH  10  30
ATOM     30  C   UNL     1      -5.208  -7.533  -1.921  0.00  0.00    +0.140 C 
BRANCH  30  31
ATOM     31  C   UNL     1      -4.672  -8.496  -2.982  0.00  0.00    +0.136 C 
ATOM     32  C   UNL     1      -4.922  -7.916  -4.390  0.00  0.00    +0.035 C 
ATOM     33  C   UNL     1      -5.319  -9.179  -5.202  0.00  0.00    +0.031 C 
ATOM     34  C   UNL     1      -6.075  -9.996  -4.124  0.00  0.00    +0.160 C 
ATOM     35  O   UNL     1      -5.365  -9.747  -2.897  0.00  0.00    -0.375 OA
ENDBRANCH  30  31
ENDBRANCH  10  30
TORSDOF 9
