REMARK  Name = ZINC38872861
REMARK  8 active torsions:
REMARK  status: ('A' for Active; 'I' for Inactive)
REMARK    1  A    between atoms: C_4  and  N_17
REMARK    2  A    between atoms: C_5  and  C_7
REMARK    3  A    between atoms: N_9  and  C_10
REMARK    4  A    between atoms: C_10  and  C_11
REMARK    5  A    between atoms: C_18  and  C_20
REMARK    6  A    between atoms: N_23  and  C_26
REMARK    7  A    between atoms: C_26  and  C_27
REMARK    8  A    between atoms: C_29  and  C_32
REMARK                            x       y       z     vdW  Elec       q    Type
REMARK                         _______ _______ _______ _____ _____    ______ ____
ROOT
ATOM      1  N   UNL     1       3.624  -0.617  -0.038  0.00  0.00    -0.285 N 
ATOM      2  C   UNL     1       4.769   0.087  -0.144  0.00  0.00    +0.220 C 
ATOM      3  O   UNL     1       4.739   1.299  -0.132  0.00  0.00    -0.275 OA
ATOM      4  H   UNL     1       3.653  -1.585   0.018  0.00  0.00    +0.155 HD
ENDROOT
BRANCH   2   5
ATOM      5  C   UNL     1       6.087  -0.633  -0.276  0.00  0.00    +0.072 C 
ATOM      6  C   UNL     1       6.315  -1.513   0.956  0.00  0.00    -0.006 C 
ATOM      7  C   UNL     1       7.689  -2.179   0.853  0.00  0.00    -0.077 C 
ATOM      8  N   UNL     1       8.732  -1.149   0.785  0.00  0.00    +0.386 N 
ATOM      9  C   UNL     1       8.562  -0.346  -0.432  0.00  0.00    -0.077 C 
ATOM     10  C   UNL     1       7.221   0.390  -0.378  0.00  0.00    -0.006 C 
ATOM     11  H   UNL     1       8.665  -0.549   1.594  0.00  0.00    -0.081 HD
BRANCH   8  12
ATOM     12  C   UNL     1      10.053  -1.792   0.764  0.00  0.00    +0.022 C 
BRANCH  12  13
ATOM     13  C   UNL     1      11.127  -0.736   0.819  0.00  0.00    +0.211 A 
ATOM     14  N   UNL     1      11.665  -0.254   1.902  0.00  0.00    -0.192 NA
ATOM     15  C   UNL     1      12.590   0.672   1.585  0.00  0.00    +0.209 A 
ATOM     16  N   UNL     1      12.641   0.781   0.277  0.00  0.00    -0.056 NA
ATOM     17  O   UNL     1      11.691  -0.139  -0.239  0.00  0.00    -0.340 OA
BRANCH  15  18
ATOM     18  C   UNL     1      13.411   1.436   2.547  0.00  0.00    +0.060 A 
ATOM     19  C   UNL     1      14.361   2.392   2.302  0.00  0.00    +0.019 A 
ATOM     20  C   UNL     1      15.003   2.976   3.370  0.00  0.00    +0.008 A 
ATOM     21  C   UNL     1      14.677   2.588   4.631  0.00  0.00    +0.046 A 
ATOM     22  S   UNL     1      13.416   1.361   4.330  0.00  0.00    -0.093 S 
ENDBRANCH  15  18
ENDBRANCH  12  13
ENDBRANCH   8  12
ENDBRANCH   2   5
BRANCH   1  26
ATOM     23  C   UNL     1      -0.041   1.370   0.046  0.00  0.00    +0.001 A 
ATOM     24  C   UNL     1       1.073   1.934   0.645  0.00  0.00    +0.002 A 
ATOM     25  C   UNL     1       2.288   1.279   0.619  0.00  0.00    +0.024 A 
ATOM     26  C   UNL     1       2.400   0.046  -0.010  0.00  0.00    +0.046 A 
ATOM     27  C   UNL     1       1.273  -0.528  -0.618  0.00  0.00    +0.058 A 
ATOM     28  C   UNL     1       0.051   0.147  -0.583  0.00  0.00    +0.015 A 
BRANCH  27  29
ATOM     29  C   UNL     1       1.379  -1.837  -1.290  0.00  0.00    +0.246 C 
ATOM     30  O   UNL     1       2.420  -2.463  -1.241  0.00  0.00    -0.270 OA
ATOM     31  N   UNL     1       0.322  -2.339  -1.958  0.00  0.00    -0.309 N 
ATOM     32  H   UNL     1      -0.509  -1.839  -1.997  0.00  0.00    +0.149 HD
BRANCH  31  33
ATOM     33  C   UNL     1       0.427  -3.639  -2.626  0.00  0.00    +0.136 C 
BRANCH  33  34
ATOM     34  C   UNL     1      -0.903  -3.973  -3.304  0.00  0.00    +0.135 C 
ATOM     35  C   UNL     1      -0.842  -5.392  -3.908  0.00  0.00    +0.035 C 
ATOM     36  C   UNL     1      -1.605  -5.214  -5.248  0.00  0.00    +0.031 C 
ATOM     37  C   UNL     1      -1.202  -3.766  -5.626  0.00  0.00    +0.160 C 
ATOM     38  O   UNL     1      -1.145  -3.055  -4.377  0.00  0.00    -0.375 OA
ENDBRANCH  33  34
ENDBRANCH  31  33
ENDBRANCH  27  29
ENDBRANCH   1  26
TORSDOF 8
