REMARK  Name = ZINC63098029
REMARK  6 active torsions:
REMARK  status: ('A' for Active; 'I' for Inactive)
REMARK    1  A    between atoms: C_1  and  C_2
REMARK    2  A    between atoms: C_4  and  C_28
REMARK    3  A    between atoms: C_8  and  C_10
REMARK    4  A    between atoms: C_10  and  C_11
REMARK    5  A    between atoms: C_11  and  C_12
REMARK    6  A    between atoms: N_14  and  C_15
REMARK                            x       y       z     vdW  Elec       q    Type
REMARK                         _______ _______ _______ _____ _____    ______ ____
ROOT
ATOM      1  C   UNL     1       2.472  -0.666   4.237  0.00  0.00    +0.213 C 
ATOM      2  O   UNL     1       3.273   0.104   3.752  0.00  0.00    -0.276 OA
ATOM      3  N   UNL     1       2.672  -1.155   5.477  0.00  0.00    -0.312 N 
ATOM      4  H   UNL     1       2.031  -1.770   5.865  0.00  0.00    +0.149 HD
ENDROOT
BRANCH   3   5
ATOM      5  C   UNL     1       3.859  -0.757   6.238  0.00  0.00    +0.073 C 
ATOM      6  C   UNL     1       3.582   0.562   6.962  0.00  0.00    +0.022 C 
ATOM      7  C   UNL     1       4.821   0.978   7.758  0.00  0.00    +0.005 C 
ATOM      8  C   UNL     1       5.156  -0.106   8.784  0.00  0.00    -0.008 C 
ATOM      9  C   UNL     1       6.395   0.309   9.579  0.00  0.00    +0.004 C 
ATOM     10  C   UNL     1       7.577   0.490   8.624  0.00  0.00    +0.000 C 
ATOM     11  C   UNL     1       7.854  -0.829   7.900  0.00  0.00    +0.000 C 
ATOM     12  C   UNL     1       6.615  -1.244   7.104  0.00  0.00    +0.004 C 
ATOM     13  C   UNL     1       5.433  -1.425   8.059  0.00  0.00    -0.006 C 
ATOM     14  C   UNL     1       4.194  -1.841   7.264  0.00  0.00    +0.026 C 
ENDBRANCH   3   5
BRANCH   1  15
ATOM     15  C   UNL     1       1.251  -1.075   3.454  0.00  0.00    +0.097 C 
BRANCH  15  16
ATOM     16  C   UNL     1       1.264  -0.383   2.090  0.00  0.00    +0.028 C 
BRANCH  16  24
ATOM     17  C   UNL     1      -0.018   1.503   0.010  0.00  0.00    +0.061 C 
ATOM     18  C   UNL     1       0.002  -0.004   0.002  0.00  0.00    +0.030 C 
ATOM     19  N   UNL     1       0.006  -0.674  -1.114  0.00  0.00    -0.243 NA
ATOM     20  C   UNL     1       0.024  -2.007  -1.152  0.00  0.00    +0.119 C 
ATOM     21  N   UNL     1       0.039  -2.794  -0.112  0.00  0.00    -0.165 NA
ATOM     22  C   UNL     1       0.038  -2.310   1.142  0.00  0.00    +0.246 C 
ATOM     23  O   UNL     1       0.053  -3.046   2.107  0.00  0.00    -0.273 OA
ATOM     24  C   UNL     1       0.025  -0.799   1.295  0.00  0.00    +0.122 C 
ATOM     25  C   UNL     1       0.026  -2.659  -2.511  0.00  0.00    +0.085 C 
ENDBRANCH  16  24
ENDBRANCH  15  16
ENDBRANCH   1  15
TORSDOF 4
