REMARK  Name = ZINC01875178
REMARK  10 active torsions:
REMARK  status: ('A' for Active; 'I' for Inactive)
REMARK    1  A    between atoms: C_2  and  C_3
REMARK    2  A    between atoms: C_3  and  C_4
REMARK    3  A    between atoms: C_9  and  O_10
REMARK    4  A    between atoms: O_10  and  C_11
REMARK    5  A    between atoms: C_11  and  C_12
REMARK    6  A    between atoms: C_12  and  O_13
REMARK    7  A    between atoms: O_13  and  C_14
REMARK    8  A    between atoms: C_17  and  N_36
REMARK    9  A    between atoms: C_19  and  C_20
REMARK   10  A    between atoms: C_30  and  C_32
REMARK                            x       y       z     vdW  Elec       q    Type
REMARK                         _______ _______ _______ _____ _____    ______ ____
ROOT
ATOM      1  C   UNL     1      -0.247  -4.654  -3.775  0.00  0.00    +0.128 A 
ATOM      2  C   UNL     1      -1.583  -4.920  -4.030  0.00  0.00    +0.048 A 
ATOM      3  C   UNL     1      -1.962  -5.465  -5.242  0.00  0.00    +0.036 A 
ATOM      4  C   UNL     1      -1.014  -5.751  -6.212  0.00  0.00    +0.127 A 
ATOM      5  C   UNL     1       0.318  -5.495  -5.980  0.00  0.00    +0.044 A 
ATOM      6  C   UNL     1       0.719  -4.936  -4.758  0.00  0.00    +0.020 A 
ENDROOT
BRANCH   6   7
ATOM      7  C   UNL     1       2.133  -4.654  -4.505  0.00  0.00    +0.028 C 
ATOM      8  C   UNL     1       2.946  -4.234  -5.534  0.00  0.00    +0.081 C 
ATOM      9  C   UNL     1       2.399  -3.884  -6.875  0.00  0.00    +0.153 C 
ATOM     10  N   UNL     1       1.221  -3.348  -7.051  0.00  0.00    -0.283 NA
ATOM     11  N   UNL     1       3.278  -4.189  -7.936  0.00  0.00    -0.152 N 
ATOM     12  C   UNL     1       4.622  -4.277  -7.643  0.00  0.00    +0.181 C 
ATOM     13  N   UNL     1       5.189  -4.205  -6.465  0.00  0.00    -0.152 NA
ATOM     14  C   UNL     1       4.415  -4.100  -5.365  0.00  0.00    +0.273 C 
ATOM     15  O   UNL     1       4.905  -3.906  -4.264  0.00  0.00    -0.268 OA
ATOM     16  S   UNL     1       5.336  -4.530  -9.247  0.00  0.00    -0.029 S 
ATOM     17  C   UNL     1       3.809  -4.602 -10.174  0.00  0.00    +0.202 C 
ATOM     18  N   UNL     1       2.915  -4.397  -9.249  0.00  0.00    -0.160 NA
ATOM     19  H   UNL     1       0.911  -3.140  -7.946  0.00  0.00    +0.188 HD
BRANCH  17  20
ATOM     20  C   UNL     1       3.607  -4.840 -11.648  0.00  0.00    +0.442 C 
ATOM     21  F   UNL     1       2.240  -4.814 -11.942  0.00  0.00    -0.164 F 
ATOM     22  F   UNL     1       4.261  -3.840 -12.376  0.00  0.00    -0.164 F 
ATOM     23  F   UNL     1       4.135  -6.089 -11.995  0.00  0.00    -0.164 F 
ENDBRANCH  17  20
ENDBRANCH   6   7
BRANCH   4  24
ATOM     24  N   UNL     1      -1.437  -6.336  -7.504  0.00  0.00    +0.056 N 
ATOM     25  O   UNL     1      -2.607  -6.562  -7.712  0.00  0.00    -0.126 OA
ATOM     26  O   UNL     1      -0.613  -6.587  -8.353  0.00  0.00    -0.126 OA
ENDBRANCH   4  24
BRANCH   1  27
ATOM     27  O   UNL     1       0.127  -4.119  -2.586  0.00  0.00    -0.488 OA
BRANCH  27  28
ATOM     28  C   UNL     1      -0.909  -3.859  -1.637  0.00  0.00    +0.270 C 
BRANCH  28  29
ATOM     29  C   UNL     1      -0.300  -3.261  -0.368  0.00  0.00    +0.270 C 
BRANCH  29  30
ATOM     30  O   UNL     1       0.267  -1.984  -0.667  0.00  0.00    -0.488 OA
BRANCH  30  36
ATOM     31  C   UNL     1       1.424  -0.069   0.140  0.00  0.00    -0.002 A 
ATOM     32  C   UNL     1       2.014   0.614   1.186  0.00  0.00    +0.007 A 
ATOM     33  C   UNL     1       2.042   0.054   2.450  0.00  0.00    +0.001 A 
ATOM     34  C   UNL     1       1.478  -1.190   2.670  0.00  0.00    +0.004 A 
ATOM     35  C   UNL     1       0.887  -1.876   1.628  0.00  0.00    +0.046 A 
ATOM     36  C   UNL     1       0.853  -1.314   0.359  0.00  0.00    +0.124 A 
BRANCH  31  37
ATOM     37  C   UNL     1       1.395   0.542  -1.238  0.00  0.00    +0.065 C 
BRANCH  37  39
ATOM     38  C   UNL     1       0.086   2.528  -1.789  0.00  0.00    +0.004 C 
ATOM     39  C   UNL     1       0.089   1.266  -1.439  0.00  0.00    -0.030 C 
ENDBRANCH  37  39
ENDBRANCH  31  37
ENDBRANCH  30  36
ENDBRANCH  29  30
ENDBRANCH  28  29
ENDBRANCH  27  28
ENDBRANCH   1  27
TORSDOF 10
