REMARK  Name = ZINC44021336
REMARK  6 active torsions:
REMARK  status: ('A' for Active; 'I' for Inactive)
REMARK    1  A    between atoms: C_1  and  C_2
REMARK    2  A    between atoms: C_4  and  C_29
REMARK    3  A    between atoms: C_5  and  N_9
REMARK    4  A    between atoms: C_6  and  C_8
REMARK    5  A    between atoms: N_9  and  C_10
REMARK    6  A    between atoms: N_14  and  C_19
REMARK                            x       y       z     vdW  Elec       q    Type
REMARK                         _______ _______ _______ _____ _____    ______ ____
ROOT
ATOM      1  C   UNL     1       0.411  -4.789   1.205  0.00  0.00    +0.109 A 
ATOM      2  C   UNL     1       0.476  -6.154   1.228  0.00  0.00    +0.112 A 
ATOM      3  C   UNL     1       0.763  -6.803   2.439  0.00  0.00    +0.259 A 
ATOM      4  O   UNL     1       0.827  -8.020   2.483  0.00  0.00    -0.267 OA
ATOM      5  N   UNL     1       0.968  -6.073   3.553  0.00  0.00    -0.255 N 
ATOM      6  C   UNL     1       0.899  -4.730   3.514  0.00  0.00    +0.331 A 
ATOM      7  O   UNL     1       1.087  -4.090   4.530  0.00  0.00    -0.246 OA
ATOM      8  N   UNL     1       0.631  -4.083   2.364  0.00  0.00    -0.295 N 
ATOM      9  H   UNL     1       0.590  -3.114   2.354  0.00  0.00    +0.172 HD
ENDROOT
BRANCH   5  10
ATOM     10  C   UNL     1       1.267  -6.748   4.819  0.00  0.00    +0.054 C 
ATOM     11  C   UNL     1       0.192  -6.397   5.850  0.00  0.00    +0.032 C 
ATOM     12  C   UNL     1       0.505  -7.102   7.172  0.00  0.00    -0.008 C 
ATOM     13  C   UNL     1       0.525  -8.615   6.951  0.00  0.00    +0.007 C 
ATOM     14  C   UNL     1       1.599  -8.966   5.919  0.00  0.00    -0.008 C 
ATOM     15  C   UNL     1       1.287  -8.261   4.598  0.00  0.00    +0.032 C 
ATOM     16  C   UNL     1       2.966  -8.508   6.431  0.00  0.00    +0.007 C 
ATOM     17  C   UNL     1       2.946  -6.994   6.652  0.00  0.00    -0.008 C 
ATOM     18  C   UNL     1       1.872  -6.643   7.684  0.00  0.00    +0.007 C 
ATOM     19  C   UNL     1       2.634  -6.289   5.330  0.00  0.00    +0.032 C 
ENDBRANCH   5  10
BRANCH   1  20
ATOM     20  N   UNL     1       0.133  -4.128   0.035  0.00  0.00    -0.300 N 
ATOM     21  H   UNL     1       0.066  -4.622  -0.797  0.00  0.00    +0.154 HD
BRANCH  20  26
ATOM     22  C   UNL     1      -0.625   1.494   0.061  0.00  0.00    +0.044 C 
ATOM     23  C   UNL     1      -0.423   0.000   0.054  0.00  0.00    -0.050 A 
ATOM     24  C   UNL     1       0.813  -0.531   0.373  0.00  0.00    +0.008 A 
ATOM     25  C   UNL     1       1.001  -1.899   0.367  0.00  0.00    -0.029 A 
ATOM     26  C   UNL     1      -0.054  -2.742   0.042  0.00  0.00    +0.038 A 
ATOM     27  C   UNL     1      -1.295  -2.206  -0.278  0.00  0.00    -0.029 A 
ATOM     28  C   UNL     1      -1.477  -0.837  -0.266  0.00  0.00    +0.008 A 
ATOM     29  C   UNL     1      -2.442  -3.116  -0.632  0.00  0.00    +0.045 C 
ATOM     30  C   UNL     1       2.349  -2.477   0.714  0.00  0.00    +0.045 C 
ENDBRANCH  20  26
ENDBRANCH   1  20
TORSDOF 3
