REMARK  Name = ZINC50578540
REMARK  5 active torsions:
REMARK  status: ('A' for Active; 'I' for Inactive)
REMARK    1  A    between atoms: C_3  and  N_9
REMARK    2  A    between atoms: N_9  and  N_10
REMARK    3  A    between atoms: C_11  and  C_13
REMARK    4  A    between atoms: N_15  and  C_16
REMARK    5  A    between atoms: C_16  and  C_17
REMARK                            x       y       z     vdW  Elec       q    Type
REMARK                         _______ _______ _______ _____ _____    ______ ____
ROOT
ATOM      1  N   UNL     1       3.565   3.527  -0.014  0.00  0.00    -0.229 N 
ATOM      2  C   UNL     1       4.723   4.216  -0.022  0.00  0.00    +0.315 C 
ATOM      3  O   UNL     1       5.782   3.623  -0.035  0.00  0.00    -0.264 OA
ATOM      4  H   UNL     1       2.718   4.001  -0.003  0.00  0.00    +0.173 HD
ENDROOT
BRANCH   2   5
ATOM      5  C   UNL     1       4.704   5.710  -0.014  0.00  0.00    +0.301 C 
ATOM      6  O   UNL     1       3.645   6.303  -0.001  0.00  0.00    -0.265 OA
ATOM      7  N   UNL     1       5.862   6.399  -0.022  0.00  0.00    -0.303 N 
ATOM      8  H   UNL     1       6.708   5.925  -0.033  0.00  0.00    +0.149 HD
BRANCH   7   9
ATOM      9  C   UNL     1       5.843   7.864  -0.014  0.00  0.00    +0.140 C 
BRANCH   9  10
ATOM     10  C   UNL     1       7.257   8.385  -0.025  0.00  0.00    -0.023 A 
ATOM     11  C   UNL     1       7.928   8.616   1.160  0.00  0.00    +0.013 A 
ATOM     12  C   UNL     1       9.200   9.085   1.115  0.00  0.00    +0.045 A 
ATOM     13  S   UNL     1       9.484   9.213  -0.643  0.00  0.00    -0.105 S 
ATOM     14  C   UNL     1       7.891   8.628  -1.198  0.00  0.00    +0.050 A 
ENDBRANCH   9  10
ENDBRANCH   7   9
ENDBRANCH   2   5
BRANCH   1  15
ATOM     15  N   UNL     1       3.583   2.126  -0.021  0.00  0.00    -0.263 N 
ATOM     16  H   UNL     1       4.429   1.652  -0.032  0.00  0.00    +0.170 HD
BRANCH  15  19
ATOM     17  C   UNL     1      -0.017   1.379   0.010  0.00  0.00    +0.022 A 
ATOM     18  C   UNL     1       1.169   2.088   0.002  0.00  0.00    +0.027 A 
ATOM     19  C   UNL     1       2.381   1.411  -0.013  0.00  0.00    +0.063 A 
ATOM     20  C   UNL     1       2.398   0.021  -0.021  0.00  0.00    +0.065 A 
ATOM     21  C   UNL     1       1.208  -0.682  -0.013  0.00  0.00    +0.042 A 
ATOM     22  C   UNL     1       0.002  -0.004   0.002  0.00  0.00    +0.042 A 
ATOM     23 CL   UNL     1      -1.490  -0.891   0.011  0.00  0.00    -0.083 Cl
ATOM     24 CL   UNL     1       3.911  -0.830  -0.040  0.00  0.00    -0.082 Cl
ENDBRANCH  15  19
ENDBRANCH   1  15
TORSDOF 5
