REMARK  Name = ZINC59746490
REMARK  8 active torsions:
REMARK  status: ('A' for Active; 'I' for Inactive)
REMARK    1  A    between atoms: C_1  and  O_2
REMARK    2  A    between atoms: O_2  and  C_3
REMARK    3  A    between atoms: C_8  and  C_9
REMARK    4  A    between atoms: C_9  and  C_11
REMARK    5  A    between atoms: C_9  and  N_27
REMARK    6  A    between atoms: C_11  and  N_12
REMARK    7  A    between atoms: N_12  and  S_13
REMARK    8  A    between atoms: S_13  and  C_16
REMARK                            x       y       z     vdW  Elec       q    Type
REMARK                         _______ _______ _______ _____ _____    ______ ____
ROOT
ATOM      1  C   UNL     1      -1.422  -2.940  -0.327  0.00  0.00    +0.095 C 
ENDROOT
BRANCH   1   2
ATOM      2  N   UNL     1      -1.605  -3.609  -1.617  0.00  0.00    -0.191 NA
ATOM      3  H   UNL     1      -0.842  -3.768  -2.194  0.00  0.00    +0.148 HD
BRANCH   2   4
ATOM      4  S   UNL     1      -3.116  -4.094  -2.091  0.00  0.00    +0.058 S 
ATOM      5  O   UNL     1      -2.970  -4.677  -3.379  0.00  0.00    -0.153 OA
ATOM      6  O   UNL     1      -3.679  -4.801  -0.994  0.00  0.00    -0.153 OA
BRANCH   4   7
ATOM      7  C   UNL     1      -4.088  -2.639  -2.303  0.00  0.00    +0.106 A 
ATOM      8  C   UNL     1      -4.804  -2.127  -1.238  0.00  0.00    +0.030 A 
ATOM      9  C   UNL     1      -5.566  -0.987  -1.400  0.00  0.00    +0.025 A 
ATOM     10  C   UNL     1      -5.612  -0.355  -2.636  0.00  0.00    +0.037 A 
ATOM     11  C   UNL     1      -4.891  -0.873  -3.704  0.00  0.00    -0.024 A 
ATOM     12  C   UNL     1      -4.127  -2.010  -3.534  0.00  0.00    +0.034 A 
ATOM     13  C   UNL     1      -4.941  -0.187  -5.045  0.00  0.00    +0.046 C 
ATOM     14  C   UNL     1      -6.328   0.420  -5.257  0.00  0.00    +0.101 C 
ATOM     15  C   UNL     1      -6.736   1.206  -4.041  0.00  0.00    +0.218 C 
ATOM     16  O   UNL     1      -7.391   2.218  -4.173  0.00  0.00    -0.275 OA
ATOM     17  N   UNL     1      -6.382   0.800  -2.808  0.00  0.00    -0.285 N 
ATOM     18  H   UNL     1      -6.662   1.311  -2.033  0.00  0.00    +0.155 HD
ENDBRANCH   4   7
ENDBRANCH   2   4
ENDBRANCH   1   2
BRANCH   1  19
ATOM     19  C   UNL     1       0.059  -2.970   0.058  0.00  0.00    -0.018 C 
BRANCH  19  20
ATOM     20  N   UNL     1       0.547  -4.355   0.019  0.00  0.00    +0.385 N 
ATOM     21  C   UNL     1      -0.291  -5.191   0.887  0.00  0.00    -0.078 C 
ATOM     22  C   UNL     1       0.163  -6.650   0.789  0.00  0.00    -0.019 C 
ATOM     23  C   UNL     1       1.625  -6.755   1.232  0.00  0.00    -0.004 C 
ATOM     24  C   UNL     1       2.478  -5.822   0.368  0.00  0.00    -0.019 C 
ATOM     25  C   UNL     1       1.939  -4.395   0.482  0.00  0.00    -0.078 C 
ATOM     26  H   UNL     1       0.498  -4.702  -0.927  0.00  0.00    -0.081 HD
ENDBRANCH  19  20
BRANCH  19  32
ATOM     27  C   UNL     1       0.961  -0.764  -0.721  0.00  0.00    +0.122 A 
ATOM     28  C   UNL     1       1.692   0.004  -1.616  0.00  0.00    +0.046 A 
ATOM     29  C   UNL     1       2.300  -0.596  -2.702  0.00  0.00    +0.004 A 
ATOM     30  C   UNL     1       2.180  -1.959  -2.897  0.00  0.00    +0.000 A 
ATOM     31  C   UNL     1       1.452  -2.726  -2.007  0.00  0.00    +0.005 A 
ATOM     32  C   UNL     1       0.847  -2.132  -0.916  0.00  0.00    -0.018 A 
BRANCH  27  34
ATOM     33  C   UNL     1       0.522   1.237   0.486  0.00  0.00    +0.277 C 
ATOM     34  O   UNL     1       0.362  -0.177   0.349  0.00  0.00    -0.495 OA
ENDBRANCH  27  34
ENDBRANCH  19  32
ENDBRANCH   1  19
TORSDOF 7
