REMARK  Name = ZINC63375342
REMARK  6 active torsions:
REMARK  status: ('A' for Active; 'I' for Inactive)
REMARK    1  A    between atoms: C_1  and  C_2
REMARK    2  A    between atoms: C_2  and  C_3
REMARK    3  A    between atoms: C_2  and  C_4
REMARK    4  A    between atoms: C_4  and  C_5
REMARK    5  A    between atoms: C_5  and  N_6
REMARK    6  A    between atoms: C_7  and  C_9
REMARK                            x       y       z     vdW  Elec       q    Type
REMARK                         _______ _______ _______ _____ _____    ______ ____
ROOT
ATOM      1  C   UNL     1      -4.435  -4.410  -0.207  0.00  0.00    +0.167 C 
ATOM      2  C   UNL     1      -5.117  -4.036   1.123  0.00  0.00    +0.065 C 
ATOM      3  C   UNL     1      -5.451  -5.328   1.826  0.00  0.00    -0.034 C 
ATOM      4  C   UNL     1      -6.597  -5.753   2.352  0.00  0.00    -0.001 A 
ATOM      5  C   UNL     1      -7.901  -5.092   2.518  0.00  0.00    +0.010 A 
ATOM      6  C   UNL     1      -8.882  -5.837   3.092  0.00  0.00    +0.001 A 
ATOM      7  C   UNL     1      -8.697  -7.158   3.513  0.00  0.00    +0.002 A 
ATOM      8  C   UNL     1      -7.530  -7.842   3.406  0.00  0.00    +0.026 A 
ATOM      9  C   UNL     1      -6.423  -7.161   2.822  0.00  0.00    +0.043 A 
ATOM     10  N   UNL     1      -5.203  -7.561   2.616  0.00  0.00    -0.375 N 
ATOM     11  C   UNL     1      -4.443  -6.448   2.045  0.00  0.00    +0.131 C 
ATOM     12  C   UNL     1      -3.850  -6.797   0.681  0.00  0.00    +0.134 C 
ATOM     13  N   UNL     1      -4.424  -5.874  -0.320  0.00  0.00    -0.276 N 
ATOM     14  C   UNL     1      -4.941  -6.601  -1.328  0.00  0.00    +0.248 C 
ATOM     15  O   UNL     1      -5.378  -6.143  -2.366  0.00  0.00    -0.270 OA
ATOM     16  C   UNL     1      -4.901  -8.026  -0.991  0.00  0.00    +0.042 A 
ATOM     17  C   UNL     1      -4.220  -8.181   0.258  0.00  0.00    -0.013 A 
ATOM     18  C   UNL     1      -4.016  -9.408   0.848  0.00  0.00    +0.006 A 
ATOM     19  C   UNL     1      -4.492 -10.524   0.166  0.00  0.00    +0.000 A 
ATOM     20  C   UNL     1      -5.138 -10.413  -1.049  0.00  0.00    +0.001 A 
ATOM     21  C   UNL     1      -5.384  -9.141  -1.681  0.00  0.00    +0.013 A 
ATOM     22  H   UNL     1      -4.856  -8.446   2.808  0.00  0.00    +0.160 HD
ENDROOT
BRANCH   1  24
ATOM     23  N   UNL     1      -2.790  -2.565  -0.111  0.00  0.00    -0.314 N 
ATOM     24  C   UNL     1      -3.021  -3.888  -0.217  0.00  0.00    +0.234 C 
ATOM     25  O   UNL     1      -2.091  -4.660  -0.322  0.00  0.00    -0.274 OA
ATOM     26  H   UNL     1      -3.534  -1.948  -0.027  0.00  0.00    +0.149 HD
BRANCH  23  27
ATOM     27  C   UNL     1      -1.416  -2.058  -0.121  0.00  0.00    +0.104 C 
BRANCH  27  28
ATOM     28  C   UNL     1      -1.433  -0.534   0.013  0.00  0.00    +0.022 C 
BRANCH  28  30
ATOM     29  C   UNL     1      -0.019   1.526   0.010  0.00  0.00    +0.007 C 
ATOM     30  C   UNL     1       0.002  -0.004   0.002  0.00  0.00    -0.016 C 
ATOM     31  C   UNL     1       0.742  -0.511   1.242  0.00  0.00    +0.007 C 
ENDBRANCH  28  30
ENDBRANCH  27  28
ENDBRANCH  23  27
ENDBRANCH   1  24
TORSDOF 4
