REMARK  Name = ZINC39693357
REMARK  10 active torsions:
REMARK  status: ('A' for Active; 'I' for Inactive)
REMARK    1  A    between atoms: C_1  and  C_2
REMARK    2  A    between atoms: C_2  and  C_3
REMARK    3  A    between atoms: C_2  and  C_4
REMARK    4  A    between atoms: C_2  and  O_5
REMARK    5  A    between atoms: O_5  and  C_6
REMARK    6  A    between atoms: N_8  and  C_9
REMARK    7  A    between atoms: C_9  and  C_10
REMARK    8  A    between atoms: C_10  and  N_11
REMARK    9  A    between atoms: C_12  and  C_14
REMARK   10  A    between atoms: C_25  and  C_27
REMARK                            x       y       z     vdW  Elec       q    Type
REMARK                         _______ _______ _______ _____ _____    ______ ____
ROOT
ATOM      1  C   UNL     1       8.093  -0.216  -5.347  0.00  0.00    +0.100 C 
ATOM      2  C   UNL     1       8.955  -0.677  -4.150  0.00  0.00    +0.121 C 
ATOM      3  N   UNL     1       9.537  -1.969  -4.583  0.00  0.00    -0.296 N 
ATOM      4  C   UNL     1       9.872  -1.762  -6.013  0.00  0.00    +0.115 C 
ATOM      5  C   UNL     1       8.700  -0.928  -6.568  0.00  0.00    -0.004 C 
ATOM      6  C   UNL     1       7.664  -1.841  -7.216  0.00  0.00    -0.010 C 
ATOM      7  C   UNL     1       8.273  -2.494  -8.460  0.00  0.00    -0.082 C 
ATOM      8  N   UNL     1       8.696  -1.452  -9.404  0.00  0.00    +0.379 N 
ATOM      9  C   UNL     1       9.758  -0.635  -8.806  0.00  0.00    -0.082 C 
ATOM     10  C   UNL     1       9.212   0.096  -7.577  0.00  0.00    -0.010 C 
ATOM     11  C   UNL     1       9.721  -3.081  -3.845  0.00  0.00    +0.248 C 
ATOM     12  O   UNL     1       9.304  -3.129  -2.704  0.00  0.00    -0.270 OA
ATOM     13  H   UNL     1       9.040  -1.885 -10.248  0.00  0.00    -0.086 HD
ATOM     14  H   UNL     1       7.907  -0.864  -9.629  0.00  0.00    -0.086 HD
ENDROOT
BRANCH  11  15
ATOM     15  C   UNL     1      10.430  -4.242  -4.421  0.00  0.00    +0.055 A 
ATOM     16  C   UNL     1      11.488  -4.046  -5.312  0.00  0.00    +0.016 A 
ATOM     17  C   UNL     1      12.145  -5.133  -5.846  0.00  0.00    +0.021 A 
ATOM     18  C   UNL     1      11.758  -6.419  -5.503  0.00  0.00    +0.042 A 
ATOM     19  C   UNL     1      10.710  -6.621  -4.622  0.00  0.00    +0.040 A 
ATOM     20  C   UNL     1      10.048  -5.540  -4.074  0.00  0.00    +0.054 A 
ATOM     21 CL   UNL     1       8.738  -5.795  -2.963  0.00  0.00    -0.083 Cl
ATOM     22 CL   UNL     1      12.591  -7.782  -6.183  0.00  0.00    -0.083 Cl
ENDBRANCH  11  15
BRANCH   1  24
ATOM     23  N   UNL     1       5.662   0.109  -5.670  0.00  0.00    -0.314 N 
ATOM     24  C   UNL     1       6.659  -0.637  -5.154  0.00  0.00    +0.218 C 
ATOM     25  O   UNL     1       6.402  -1.647  -4.533  0.00  0.00    -0.275 OA
ATOM     26  H   UNL     1       5.868   0.916  -6.166  0.00  0.00    +0.149 HD
BRANCH  23  27
ATOM     27  C   UNL     1       4.268  -0.301  -5.482  0.00  0.00    +0.123 C 
BRANCH  27  28
ATOM     28  C   UNL     1       3.343   0.711  -6.162  0.00  0.00    +0.126 C 
BRANCH  28  31
ATOM     29  C   UNL     1       0.953   1.048  -6.490  0.00  0.00    +0.401 C 
ATOM     30  O   UNL     1       1.210   2.060  -7.112  0.00  0.00    -0.226 OA
ATOM     31  N   UNL     1       1.949   0.302  -5.974  0.00  0.00    -0.280 N 
ATOM     32  H   UNL     1       1.744  -0.506  -5.478  0.00  0.00    +0.152 HD
BRANCH  29  33
ATOM     33  O   UNL     1      -0.329   0.672  -6.317  0.00  0.00    -0.445 OA
BRANCH  33  35
ATOM     34  C   UNL     1      -1.129   1.587  -8.406  0.00  0.00    +0.055 C 
ATOM     35  C   UNL     1      -1.334   1.510  -6.892  0.00  0.00    +0.107 C 
ATOM     36  C   UNL     1      -1.233   2.913  -6.291  0.00  0.00    +0.055 C 
ATOM     37  C   UNL     1      -2.716   0.925  -6.594  0.00  0.00    +0.055 C 
ENDBRANCH  33  35
ENDBRANCH  29  33
ENDBRANCH  28  31
ENDBRANCH  27  28
ENDBRANCH  23  27
ENDBRANCH   1  24
TORSDOF 7
