REMARK  Name = ZINC15342204
REMARK  4 active torsions:
REMARK  status: ('A' for Active; 'I' for Inactive)
REMARK    1  A    between atoms: C_3  and  C_10
REMARK    2  A    between atoms: C_5  and  N_7
REMARK    3  A    between atoms: N_12  and  N_13
REMARK    4  A    between atoms: C_14  and  C_16
REMARK                            x       y       z     vdW  Elec       q    Type
REMARK                         _______ _______ _______ _____ _____    ______ ____
ROOT
ATOM      1  C   UNL     1      -4.981   1.160   0.033  0.00  0.00    +0.260 C 
ATOM      2  O   UNL     1      -4.969  -0.055   0.026  0.00  0.00    -0.269 OA
ATOM      3  N   UNL     1      -6.155   1.823   0.043  0.00  0.00    -0.230 N 
ATOM      4  H   UNL     1      -6.164   2.793   0.048  0.00  0.00    +0.173 HD
ENDROOT
BRANCH   1   7
ATOM      5  C   UNL     1      -2.526   4.003   0.037  0.00  0.00    +0.003 A 
ATOM      6  C   UNL     1      -3.718   3.308   0.039  0.00  0.00    +0.013 A 
ATOM      7  C   UNL     1      -3.708   1.912   0.030  0.00  0.00    +0.040 A 
ATOM      8  C   UNL     1      -2.490   1.229   0.021  0.00  0.00    +0.045 A 
ATOM      9  C   UNL     1      -1.306   1.936   0.019  0.00  0.00    +0.127 A 
ATOM     10  C   UNL     1      -1.323   3.320   0.032  0.00  0.00    +0.033 A 
BRANCH   9  11
ATOM     11  N   UNL     1      -0.014   1.214   0.009  0.00  0.00    +0.056 N 
ATOM     12  O   UNL     1       0.002  -0.004   0.002  0.00  0.00    -0.126 OA
ATOM     13  O   UNL     1       1.032   1.837   0.002  0.00  0.00    -0.126 OA
ENDBRANCH   9  11
ENDBRANCH   1   7
BRANCH   3  14
ATOM     14  N   UNL     1      -7.361   1.111   0.045  0.00  0.00    -0.230 N 
ATOM     15  C   UNL     1      -8.535   1.773   0.054  0.00  0.00    +0.267 C 
ATOM     16  O   UNL     1      -8.547   2.990   0.061  0.00  0.00    -0.268 OA
ATOM     17  H   UNL     1      -7.351   0.141   0.040  0.00  0.00    +0.173 HD
BRANCH  15  18
ATOM     18  C   UNL     1      -9.796   1.028   0.057  0.00  0.00    +0.077 A 
ATOM     19  C   UNL     1     -11.096   1.511   0.066  0.00  0.00    +0.037 A 
ATOM     20  C   UNL     1     -12.107   0.583   0.066  0.00  0.00    +0.040 A 
ATOM     21  C   UNL     1     -11.793  -0.741   0.056  0.00  0.00    +0.070 A 
ATOM     22  S   UNL     1     -10.060  -0.736   0.041  0.00  0.00    -0.076 S 
ATOM     23 BR   UNL     1     -12.964  -2.225   0.052  0.00  0.00    -0.041 Br
ATOM     24 BR   UNL     1     -13.915   1.138   0.077  0.00  0.00    -0.049 Br
ENDBRANCH  15  18
ENDBRANCH   3  14
TORSDOF 4
