REMARK  Name = ZINC64740946
REMARK  7 active torsions:
REMARK  status: ('A' for Active; 'I' for Inactive)
REMARK    1  A    between atoms: C_1  and  C_2
REMARK    2  A    between atoms: C_2  and  C_3
REMARK    3  A    between atoms: C_8  and  N_9
REMARK    4  A    between atoms: C_10  and  C_12
REMARK    5  A    between atoms: C_20  and  S_26
REMARK    6  A    between atoms: S_26  and  C_27
REMARK    7  A    between atoms: C_27  and  C_28
REMARK                            x       y       z     vdW  Elec       q    Type
REMARK                         _______ _______ _______ _____ _____    ______ ____
ROOT
ATOM      1  C   UNL     1       4.947  -0.219   1.171  0.00  0.00    +0.103 C 
ATOM      2  C   UNL     1       4.807   1.252   1.576  0.00  0.00    +0.110 C 
ATOM      3  C   UNL     1       5.581   2.140   0.647  0.00  0.00    +0.219 C 
ATOM      4  O   UNL     1       5.290   3.316   0.604  0.00  0.00    -0.275 OA
ATOM      5  N   UNL     1       6.577   1.705  -0.138  0.00  0.00    -0.273 N 
ATOM      6  C   UNL     1       6.900   0.379  -0.192  0.00  0.00    +0.117 C 
ATOM      7  N   UNL     1       7.588  -0.098  -1.188  0.00  0.00    -0.212 NA
ATOM      8  C   UNL     1       7.824  -1.409  -1.331  0.00  0.00    +0.182 C 
ATOM      9  N   UNL     1       7.335  -2.309  -0.490  0.00  0.00    -0.154 NA
ATOM     10  C   UNL     1       6.646  -1.955   0.586  0.00  0.00    +0.249 C 
ATOM     11  O   UNL     1       6.183  -2.816   1.308  0.00  0.00    -0.273 OA
ATOM     12  C   UNL     1       6.429  -0.514   0.929  0.00  0.00    +0.153 C 
ATOM     13  H   UNL     1       7.075   2.341  -0.675  0.00  0.00    +0.156 HD
ENDROOT
BRANCH   1  15
ATOM     14  N   UNL     1       2.833  -0.268  -0.113  0.00  0.00    -0.285 N 
ATOM     15  C   UNL     1       4.165  -0.474  -0.091  0.00  0.00    +0.222 C 
ATOM     16  O   UNL     1       4.734  -0.865  -1.088  0.00  0.00    -0.275 OA
ATOM     17  H   UNL     1       2.388   0.106   0.663  0.00  0.00    +0.155 HD
BRANCH  14  23
ATOM     18  C   UNL     1       0.800  -1.084  -1.129  0.00  0.00    -0.026 A 
ATOM     19  C   UNL     1       0.070  -1.399  -2.259  0.00  0.00    +0.005 A 
ATOM     20  C   UNL     1       0.627  -1.233  -3.513  0.00  0.00    +0.000 A 
ATOM     21  C   UNL     1       1.917  -0.750  -3.641  0.00  0.00    +0.002 A 
ATOM     22  C   UNL     1       2.652  -0.433  -2.516  0.00  0.00    +0.023 A 
ATOM     23  C   UNL     1       2.093  -0.594  -1.255  0.00  0.00    +0.037 A 
BRANCH  18  25
ATOM     24  C   UNL     1      -0.422   0.057   0.702  0.00  0.00    +0.009 C 
ATOM     25  C   UNL     1       0.191  -1.265   0.237  0.00  0.00    +0.033 C 
ENDBRANCH  18  25
ENDBRANCH  14  23
ENDBRANCH   1  15
BRANCH   8  26
ATOM     26  S   UNL     1       8.816  -1.954  -2.682  0.00  0.00    -0.084 S 
BRANCH  26  27
ATOM     27  C   UNL     1       8.868  -3.757  -2.487  0.00  0.00    +0.112 C 
BRANCH  27  28
ATOM     28  C   UNL     1       9.697  -4.358  -3.593  0.00  0.00    -0.037 A 
ATOM     29  C   UNL     1       9.097  -4.730  -4.781  0.00  0.00    +0.004 A 
ATOM     30  C   UNL     1       9.857  -5.281  -5.796  0.00  0.00    +0.000 A 
ATOM     31  C   UNL     1      11.217  -5.460  -5.623  0.00  0.00    +0.000 A 
ATOM     32  C   UNL     1      11.817  -5.086  -4.434  0.00  0.00    +0.000 A 
ATOM     33  C   UNL     1      11.058  -4.531  -3.421  0.00  0.00    +0.004 A 
ENDBRANCH  27  28
ENDBRANCH  26  27
ENDBRANCH   8  26
TORSDOF 6
