REMARK  Name = ZINC09343644
REMARK  11 active torsions:
REMARK  status: ('A' for Active; 'I' for Inactive)
REMARK    1  A    between atoms: C_1  and  C_2
REMARK    2  A    between atoms: C_2  and  C_3
REMARK    3  A    between atoms: N_9  and  S_10
REMARK    4  A    between atoms: S_10  and  C_13
REMARK    5  A    between atoms: C_16  and  N_19
REMARK    6  A    between atoms: C_20  and  C_22
REMARK    7  A    between atoms: C_22  and  C_23
REMARK    8  A    between atoms: C_23  and  N_24
REMARK    9  A    between atoms: N_24  and  S_25
REMARK   10  A    between atoms: S_25  and  C_28
REMARK   11  A    between atoms: C_31  and  N_34
REMARK                            x       y       z     vdW  Elec       q    Type
REMARK                         _______ _______ _______ _____ _____    ______ ____
ROOT
ATOM      1  N   UNL     1       8.723   2.510  -0.528  0.00  0.00    -0.285 N 
ATOM      2  C   UNL     1       9.340   3.700  -0.661  0.00  0.00    +0.218 C 
ATOM      3  O   UNL     1       8.771   4.718  -0.327  0.00  0.00    -0.275 OA
ATOM      4  H   UNL     1       9.155   1.701  -0.847  0.00  0.00    +0.155 HD
ENDROOT
BRANCH   1   8
ATOM      5  C   UNL     1       4.960   2.299   1.247  0.00  0.00    +0.106 A 
ATOM      6  C   UNL     1       5.876   1.283   1.450  0.00  0.00    +0.030 A 
ATOM      7  C   UNL     1       7.123   1.348   0.859  0.00  0.00    +0.025 A 
ATOM      8  C   UNL     1       7.459   2.439   0.068  0.00  0.00    +0.033 A 
ATOM      9  C   UNL     1       6.538   3.460  -0.129  0.00  0.00    +0.025 A 
ATOM     10  C   UNL     1       5.292   3.387   0.461  0.00  0.00    +0.030 A 
BRANCH   5  11
ATOM     11  S   UNL     1       3.368   2.210   1.997  0.00  0.00    +0.061 S 
ATOM     12  O   UNL     1       2.826   3.523   1.958  0.00  0.00    -0.153 OA
ATOM     13  O   UNL     1       3.531   1.489   3.211  0.00  0.00    -0.153 OA
BRANCH  11  19
ATOM     14  C   UNL     1       1.768   1.854  -0.169  0.00  0.00    +0.080 C 
ATOM     15  C   UNL     1       0.266   1.559  -0.104  0.00  0.00    +0.021 C 
ATOM     16  C   UNL     1       0.053   0.052   0.056  0.00  0.00    +0.003 C 
ATOM     17  C   UNL     1       0.695  -0.420   1.363  0.00  0.00    +0.017 C 
ATOM     18  C   UNL     1       2.202  -0.147   1.314  0.00  0.00    +0.110 C 
ATOM     19  N   UNL     1       2.415   1.276   1.016  0.00  0.00    -0.174 NA
BRANCH  14  21
ATOM     20  C   UNL     1       1.498   3.939  -1.520  0.00  0.00    +0.005 C 
ATOM     21  C   UNL     1       1.993   3.368  -0.190  0.00  0.00    +0.017 C 
ENDBRANCH  14  21
ENDBRANCH  11  19
ENDBRANCH   5  11
ENDBRANCH   1   8
BRANCH   2  22
ATOM     22  C   UNL     1      10.737   3.767  -1.223  0.00  0.00    +0.113 C 
BRANCH  22  23
ATOM     23  C   UNL     1      11.200   5.224  -1.266  0.00  0.00    +0.115 C 
BRANCH  23  24
ATOM     24  N   UNL     1      12.558   5.289  -1.812  0.00  0.00    -0.189 NA
ATOM     25  H   UNL     1      13.094   4.483  -1.875  0.00  0.00    +0.148 HD
BRANCH  24  26
ATOM     26  S   UNL     1      13.178   6.737  -2.322  0.00  0.00    +0.058 S 
ATOM     27  O   UNL     1      14.502   6.479  -2.766  0.00  0.00    -0.153 OA
ATOM     28  O   UNL     1      12.194   7.327  -3.161  0.00  0.00    -0.153 OA
BRANCH  26  29
ATOM     29  C   UNL     1      13.316   7.773  -0.903  0.00  0.00    +0.105 A 
ATOM     30  C   UNL     1      12.262   8.591  -0.540  0.00  0.00    +0.031 A 
ATOM     31  C   UNL     1      12.369   9.401   0.576  0.00  0.00    +0.034 A 
ATOM     32  C   UNL     1      13.532   9.399   1.322  0.00  0.00    +0.126 A 
ATOM     33  C   UNL     1      14.587   8.584   0.956  0.00  0.00    +0.034 A 
ATOM     34  C   UNL     1      14.479   7.772  -0.157  0.00  0.00    +0.031 A 
BRANCH  32  35
ATOM     35  N   UNL     1      13.648  10.269   2.514  0.00  0.00    +0.056 N 
ATOM     36  O   UNL     1      14.673  10.267   3.172  0.00  0.00    -0.126 OA
ATOM     37  O   UNL     1      12.719  10.987   2.837  0.00  0.00    -0.126 OA
ENDBRANCH  32  35
ENDBRANCH  26  29
ENDBRANCH  24  26
ENDBRANCH  23  24
ENDBRANCH  22  23
ENDBRANCH   2  22
TORSDOF 10
