REMARK  Name = ZINC24143669
REMARK  14 active torsions:
REMARK  status: ('A' for Active; 'I' for Inactive)
REMARK    1  A    between atoms: C_1  and  C_2
REMARK    2  A    between atoms: C_2  and  C_4
REMARK    3  A    between atoms: C_2  and  N_33
REMARK    4  A    between atoms: C_7  and  S_16
REMARK    5  A    between atoms: N_8  and  C_9
REMARK    6  A    between atoms: S_16  and  C_17
REMARK    7  A    between atoms: C_17  and  C_18
REMARK    8  A    between atoms: N_20  and  C_21
REMARK    9  A    between atoms: C_21  and  C_22
REMARK   10  A    between atoms: C_22  and  C_23
REMARK   11  A    between atoms: C_26  and  O_29
REMARK   12  A    between atoms: O_29  and  C_30
REMARK   13  A    between atoms: N_33  and  C_34
REMARK   14  A    between atoms: N_33  and  C_35
REMARK                            x       y       z     vdW  Elec       q    Type
REMARK                         _______ _______ _______ _____ _____    ______ ____
ROOT
ATOM      1  C   UNL     1       1.490  -6.659  -2.511  0.00  0.00    +0.125 A 
ATOM      2  N   UNL     1       0.861  -6.379  -1.404  0.00  0.00    -0.135 NA
ATOM      3  N   UNL     1       0.766  -5.106  -1.258  0.00  0.00    -0.122 NA
ATOM      4  C   UNL     1       1.334  -4.496  -2.272  0.00  0.00    +0.197 A 
ATOM      5  N   UNL     1       1.810  -5.469  -3.108  0.00  0.00    -0.275 N 
ENDROOT
BRANCH   5   6
ATOM      6  C   UNL     1       2.487  -5.285  -4.324  0.00  0.00    +0.050 A 
ATOM      7  C   UNL     1       1.910  -5.711  -5.512  0.00  0.00    +0.029 A 
ATOM      8  C   UNL     1       2.575  -5.524  -6.708  0.00  0.00    +0.040 A 
ATOM      9  C   UNL     1       3.823  -4.924  -6.720  0.00  0.00    +0.124 A 
ATOM     10  C   UNL     1       4.403  -4.503  -5.535  0.00  0.00    +0.040 A 
ATOM     11  C   UNL     1       3.737  -4.683  -4.338  0.00  0.00    +0.029 A 
ATOM     12  F   UNL     1       4.475  -4.747  -7.890  0.00  0.00    -0.205 F 
ENDBRANCH   5   6
BRANCH   1  14
ATOM     13  C   UNL     1       2.954  -8.641  -2.234  0.00  0.00    -0.005 C 
ATOM     14  C   UNL     1       1.801  -8.036  -3.038  0.00  0.00    -0.003 C 
BRANCH  14  15
ATOM     15  N   UNL     1       0.613  -8.889  -2.910  0.00  0.00    +0.382 N 
ATOM     16  C   UNL     1      -0.542  -8.291  -3.593  0.00  0.00    -0.096 C 
ATOM     17  C   UNL     1       0.880 -10.243  -3.415  0.00  0.00    -0.096 C 
ATOM     18  H   UNL     1       0.369  -8.970  -1.840  0.00  0.00    -0.082 HD
ENDBRANCH  14  15
ENDBRANCH   1  14
BRANCH   4  19
ATOM     19  S   UNL     1       1.453  -2.755  -2.515  0.00  0.00    -0.076 S 
BRANCH  19  20
ATOM     20  C   UNL     1       0.606  -2.171  -1.026  0.00  0.00    +0.173 C 
BRANCH  20  21
ATOM     21  C   UNL     1       0.585  -0.664  -1.018  0.00  0.00    +0.223 C 
ATOM     22  O   UNL     1       1.093  -0.046  -1.929  0.00  0.00    -0.275 OA
ATOM     23  N   UNL     1       0.002  -0.004   0.002  0.00  0.00    -0.314 N 
ATOM     24  H   UNL     1      -0.459  -0.565   0.828  0.00  0.00    +0.149 HD
BRANCH  23  25
ATOM     25  C   UNL     1      -0.018   1.461   0.010  0.00  0.00    +0.109 C 
BRANCH  25  26
ATOM     26  C   UNL     1      -0.734   1.954   1.269  0.00  0.00    +0.054 C 
BRANCH  26  27
ATOM     27  C   UNL     1      -0.754   3.461   1.277  0.00  0.00    -0.046 A 
ATOM     28  C   UNL     1       0.277   4.162   1.875  0.00  0.00    +0.007 A 
ATOM     29  C   UNL     1       0.263   5.543   1.879  0.00  0.00    +0.046 A 
ATOM     30  C   UNL     1      -0.792   6.227   1.292  0.00  0.00    +0.127 A 
ATOM     31  C   UNL     1      -1.828   5.521   0.698  0.00  0.00    +0.046 A 
ATOM     32  C   UNL     1      -1.807   4.140   0.692  0.00  0.00    +0.007 A 
BRANCH  30  33
ATOM     33  O   UNL     1      -0.810   7.586   1.300  0.00  0.00    -0.434 OA
BRANCH  33  34
ATOM     34  C   UNL     1       0.290   8.246   1.929  0.00  0.00    +0.541 C 
ATOM     35  F   UNL     1       0.355   7.864   3.273  0.00  0.00    -0.166 F 
ATOM     36  F   UNL     1       1.479   7.890   1.284  0.00  0.00    -0.166 F 
ENDBRANCH  33  34
ENDBRANCH  30  33
ENDBRANCH  26  27
ENDBRANCH  25  26
ENDBRANCH  23  25
ENDBRANCH  20  21
ENDBRANCH  19  20
ENDBRANCH   4  19
TORSDOF 11
