REMARK  Name = ZINC66121775
REMARK  7 active torsions:
REMARK  status: ('A' for Active; 'I' for Inactive)
REMARK    1  A    between atoms: C_3  and  C_6
REMARK    2  A    between atoms: C_6  and  N_7
REMARK    3  A    between atoms: C_10  and  C_13
REMARK    4  A    between atoms: C_13  and  N_14
REMARK    5  A    between atoms: C_21  and  C_24
REMARK    6  A    between atoms: C_24  and  C_25
REMARK    7  A    between atoms: C_25  and  C_26
REMARK                            x       y       z     vdW  Elec       q    Type
REMARK                         _______ _______ _______ _____ _____    ______ ____
ROOT
ATOM      1  N   UNL     1       7.843   2.281   5.053  0.00  0.00    -0.299 N 
ATOM      2  C   UNL     1       8.400   2.572   6.245  0.00  0.00    +0.302 C 
ATOM      3  O   UNL     1       7.738   2.489   7.261  0.00  0.00    -0.253 OA
ATOM      4  N   UNL     1       9.691   2.955   6.310  0.00  0.00    -0.285 N 
ATOM      5  C   UNL     1      10.470   3.173   5.084  0.00  0.00    +0.109 C 
ATOM      6  C   UNL     1      11.750   2.336   5.158  0.00  0.00    +0.019 C 
ATOM      7  C   UNL     1      12.502   2.673   6.448  0.00  0.00    +0.006 C 
ATOM      8  C   UNL     1      11.627   2.326   7.655  0.00  0.00    +0.007 C 
ATOM      9  C   UNL     1      10.343   3.168   7.609  0.00  0.00    +0.112 C 
ATOM     10  H   UNL     1       8.347   2.418   4.235  0.00  0.00    +0.150 HD
ENDROOT
BRANCH   1  11
ATOM     11  C   UNL     1       6.476   1.759   4.991  0.00  0.00    +0.109 C 
BRANCH  11  15
ATOM     12  N   UNL     1       4.236   1.998   1.357  0.00  0.00    +0.383 N 
ATOM     13  C   UNL     1       4.293   0.684   2.008  0.00  0.00    -0.078 C 
ATOM     14  C   UNL     1       4.708   0.853   3.471  0.00  0.00    -0.014 C 
ATOM     15  C   UNL     1       6.088   1.514   3.531  0.00  0.00    +0.003 C 
ATOM     16  C   UNL     1       6.035   2.851   2.785  0.00  0.00    -0.014 C 
ATOM     17  C   UNL     1       5.571   2.608   1.347  0.00  0.00    -0.078 C 
ATOM     18  H   UNL     1       3.598   2.595   1.864  0.00  0.00    -0.081 HD
BRANCH  12  19
ATOM     19  C   UNL     1       3.761   1.839  -0.024  0.00  0.00    -0.036 C 
BRANCH  19  22
ATOM     20  C   UNL     1      -0.015   1.341   0.010  0.00  0.00    +0.008 A 
ATOM     21  C   UNL     1       1.184   2.029   0.002  0.00  0.00    +0.009 A 
ATOM     22  C   UNL     1       2.344   1.328  -0.013  0.00  0.00    -0.027 A 
ATOM     23  S   UNL     1       1.756  -0.358  -0.015  0.00  0.00    -0.103 S 
ATOM     24  C   UNL     1       0.005  -0.015   0.003  0.00  0.00    +0.045 A 
ENDBRANCH  19  22
ENDBRANCH  12  19
ENDBRANCH  11  15
ENDBRANCH   1  11
BRANCH   8  25
ATOM     25  C   UNL     1      12.392   2.632   8.944  0.00  0.00    +0.014 C 
BRANCH  25  26
ATOM     26  C   UNL     1      11.568   2.170  10.148  0.00  0.00    +0.096 C 
BRANCH  26  27
ATOM     27  C   UNL     1      12.321   2.471  11.418  0.00  0.00    +0.210 C 
ATOM     28  O   UNL     1      13.409   3.004  11.366  0.00  0.00    -0.276 OA
ATOM     29  N   UNL     1      11.784   2.150  12.612  0.00  0.00    -0.329 N 
ATOM     30  H   UNL     1      10.914   1.724  12.654  0.00  0.00    +0.145 HD
ATOM     31  H   UNL     1      12.269   2.344  13.429  0.00  0.00    +0.145 HD
ENDBRANCH  26  27
ENDBRANCH  25  26
ENDBRANCH   8  25
TORSDOF 7
