REMARK  Name = ZINC43542129
REMARK  7 active torsions:
REMARK  status: ('A' for Active; 'I' for Inactive)
REMARK    1  A    between atoms: C_1  and  C_2
REMARK    2  A    between atoms: C_2  and  C_3
REMARK    3  A    between atoms: C_3  and  C_5
REMARK    4  A    between atoms: C_3  and  S_9
REMARK    5  A    between atoms: N_6  and  O_7
REMARK    6  A    between atoms: S_9  and  C_10
REMARK    7  A    between atoms: C_12  and  C_17
REMARK                            x       y       z     vdW  Elec       q    Type
REMARK                         _______ _______ _______ _____ _____    ______ ____
ROOT
ATOM      1  C   UNL     1      -1.416  -0.609   0.113  0.00  0.00    +0.120 C 
ENDROOT
BRANCH   1   2
ATOM      2  C   UNL     1      -1.432  -2.102   0.313  0.00  0.00    +0.145 C 
ATOM      3  N   UNL     1      -1.278  -2.598   1.496  0.00  0.00    -0.076 NA
ATOM      4  N   UNL     1      -1.612  -2.939  -0.766  0.00  0.00    -0.343 N 
ATOM      5  H   UNL     1      -1.728  -2.567  -1.655  0.00  0.00    +0.144 HD
ATOM      6  H   UNL     1      -1.623  -3.901  -0.638  0.00  0.00    +0.144 HD
BRANCH   3   7
ATOM      7  O   UNL     1      -1.293  -4.001   1.683  0.00  0.00    -0.408 OA
ATOM      8  H   UNL     1      -1.170  -4.276   2.602  0.00  0.00    +0.328 HD
ENDBRANCH   3   7
ENDBRANCH   1   2
BRANCH   1  10
ATOM      9  C   UNL     1       0.058   1.398  -0.098  0.00  0.00    +0.005 C 
ATOM     10  C   UNL     1       0.030  -0.130  -0.035  0.00  0.00    +0.019 C 
ENDBRANCH   1  10
BRANCH   1  11
ATOM     11  S   UNL     1      -2.348  -0.188  -1.385  0.00  0.00    -0.075 S 
BRANCH  11  12
ATOM     12  C   UNL     1      -4.016  -0.578  -0.972  0.00  0.00    +0.192 A 
ATOM     13  N   UNL     1      -4.974  -0.341  -1.858  0.00  0.00    -0.227 NA
ATOM     14  C   UNL     1      -6.238  -0.621  -1.583  0.00  0.00    +0.046 A 
ATOM     15  C   UNL     1      -6.558  -1.168  -0.354  0.00  0.00    +0.095 A 
ATOM     16  C   UNL     1      -5.529  -1.406   0.557  0.00  0.00    +0.274 A 
ATOM     17  O   UNL     1      -5.797  -1.940   1.772  0.00  0.00    -0.266 OA
ATOM     18  N   UNL     1      -4.282  -1.106   0.214  0.00  0.00    -0.183 NA
ATOM     19  C   UNL     1      -7.318  -0.346  -2.598  0.00  0.00    +0.066 C 
ENDBRANCH  11  12
ENDBRANCH   1  11
TORSDOF 5
