REMARK  Name = ZINC63137669
REMARK  10 active torsions:
REMARK  status: ('A' for Active; 'I' for Inactive)
REMARK    1  A    between atoms: C_1  and  O_2
REMARK    2  A    between atoms: O_2  and  C_3
REMARK    3  A    between atoms: C_7  and  C_9
REMARK    4  A    between atoms: N_28  and  C_31
REMARK    5  A    between atoms: C_31  and  C_32
REMARK    6  A    between atoms: C_32  and  C_33
REMARK    7  A    between atoms: C_36  and  O_41
REMARK    8  A    between atoms: C_37  and  O_39
REMARK    9  A    between atoms: O_39  and  C_40
REMARK   10  A    between atoms: O_41  and  C_42
REMARK                            x       y       z     vdW  Elec       q    Type
REMARK                         _______ _______ _______ _____ _____    ______ ____
ROOT
ATOM      1  C   UNL     1       1.389  -4.130   2.211  0.00  0.00    +0.134 C 
ATOM      2  C   UNL     1       0.291  -4.640   3.144  0.00  0.00    +0.131 C 
ATOM      3  C   UNL     1       0.638  -6.098   3.438  0.00  0.00    -0.034 C 
ATOM      4  C   UNL     1      -0.373  -6.830   2.988  0.00  0.00    -0.001 A 
ATOM      5  C   UNL     1      -0.619  -8.281   3.013  0.00  0.00    +0.010 A 
ATOM      6  C   UNL     1      -1.780  -8.702   2.448  0.00  0.00    +0.001 A 
ATOM      7  C   UNL     1      -2.711  -7.836   1.867  0.00  0.00    +0.002 A 
ATOM      8  C   UNL     1      -2.568  -6.488   1.801  0.00  0.00    +0.026 A 
ATOM      9  C   UNL     1      -1.385  -5.925   2.364  0.00  0.00    +0.043 A 
ATOM     10  N   UNL     1      -1.003  -4.667   2.449  0.00  0.00    -0.375 N 
ATOM     11  C   UNL     1       1.938  -6.473   4.093  0.00  0.00    +0.065 C 
ATOM     12  C   UNL     1       3.057  -5.639   3.523  0.00  0.00    +0.167 C 
ATOM     13  N   UNL     1       2.713  -4.527   2.663  0.00  0.00    -0.279 N 
ATOM     14  C   UNL     1       3.779  -3.802   2.188  0.00  0.00    +0.234 C 
ATOM     15  O   UNL     1       3.619  -2.808   1.512  0.00  0.00    -0.274 OA
ATOM     16  C   UNL     1       5.162  -4.302   2.547  0.00  0.00    +0.203 C 
ATOM     17  N   UNL     1       5.192  -5.765   2.367  0.00  0.00    -0.291 N 
ATOM     18  C   UNL     1       4.138  -6.467   2.875  0.00  0.00    +0.237 C 
ATOM     19  O   UNL     1       4.076  -7.677   2.813  0.00  0.00    -0.274 OA
ATOM     20  H   UNL     1      -1.481  -3.892   2.114  0.00  0.00    +0.160 HD
ENDROOT
BRANCH   1  25
ATOM     21  C   UNL     1       0.626  -0.618   1.042  0.00  0.00    +0.120 A 
ATOM     22  C   UNL     1       1.202   0.139   2.051  0.00  0.00    +0.045 A 
ATOM     23  C   UNL     1       1.835  -0.488   3.107  0.00  0.00    +0.004 A 
ATOM     24  C   UNL     1       1.895  -1.869   3.158  0.00  0.00    +0.006 A 
ATOM     25  C   UNL     1       1.321  -2.625   2.153  0.00  0.00    -0.021 A 
ATOM     26  C   UNL     1       0.682  -2.003   1.097  0.00  0.00    +0.051 A 
BRANCH  21  28
ATOM     27  C   UNL     1      -0.017   1.425   0.010  0.00  0.00    +0.277 C 
ATOM     28  O   UNL     1       0.002  -0.004   0.002  0.00  0.00    -0.495 OA
ENDBRANCH  21  28
ENDBRANCH   1  25
BRANCH  17  29
ATOM     29  C   UNL     1       6.297  -6.433   1.675  0.00  0.00    +0.113 C 
BRANCH  29  30
ATOM     30  C   UNL     1       7.382  -6.805   2.688  0.00  0.00    +0.054 C 
BRANCH  30  31
ATOM     31  C   UNL     1       8.519  -7.491   1.976  0.00  0.00    -0.042 A 
ATOM     32  C   UNL     1       8.507  -8.865   1.823  0.00  0.00    +0.007 A 
ATOM     33  C   UNL     1       9.548  -9.500   1.170  0.00  0.00    +0.049 A 
ATOM     34  C   UNL     1      10.606  -8.759   0.668  0.00  0.00    +0.161 A 
ATOM     35  C   UNL     1      10.617  -7.376   0.822  0.00  0.00    +0.162 A 
ATOM     36  C   UNL     1       9.569  -6.745   1.473  0.00  0.00    +0.053 A 
BRANCH  35  37
ATOM     37  O   UNL     1      11.653  -6.644   0.331  0.00  0.00    -0.491 OA
ATOM     38  C   UNL     1      11.598  -5.229   0.526  0.00  0.00    +0.277 C 
ENDBRANCH  35  37
BRANCH  34  39
ATOM     39  O   UNL     1      11.630  -9.382   0.027  0.00  0.00    -0.491 OA
ATOM     40  C   UNL     1      11.552 -10.803  -0.094  0.00  0.00    +0.277 C 
ENDBRANCH  34  39
ENDBRANCH  30  31
ENDBRANCH  29  30
ENDBRANCH  17  29
TORSDOF 7
