REMARK  Name = ZINC19961829
REMARK  8 active torsions:
REMARK  status: ('A' for Active; 'I' for Inactive)
REMARK    1  A    between atoms: C_1  and  C_2
REMARK    2  A    between atoms: C_2  and  C_3
REMARK    3  A    between atoms: C_8  and  N_9
REMARK    4  A    between atoms: C_10  and  C_12
REMARK    5  A    between atoms: C_12  and  C_13
REMARK    6  A    between atoms: C_21  and  C_23
REMARK    7  A    between atoms: C_23  and  N_24
REMARK    8  A    between atoms: C_30  and  C_32
REMARK                            x       y       z     vdW  Elec       q    Type
REMARK                         _______ _______ _______ _____ _____    ______ ____
ROOT
ATOM      1  C   UNL     1       3.705  -7.149  -3.226  0.00  0.00    +0.170 C 
ATOM      2  C   UNL     1       4.498  -8.419  -3.327  0.00  0.00    +0.234 C 
ATOM      3  O   UNL     1       3.917  -9.476  -3.197  0.00  0.00    -0.274 OA
ATOM      4  N   UNL     1       5.813  -8.438  -3.550  0.00  0.00    -0.312 N 
ATOM      5  C   UNL     1       6.654  -7.253  -3.636  0.00  0.00    +0.123 C 
ATOM      6  C   UNL     1       5.819  -6.018  -3.979  0.00  0.00    +0.127 C 
ATOM      7  N   UNL     1       4.630  -6.012  -3.110  0.00  0.00    -0.289 N 
ATOM      8  C   UNL     1       4.402  -5.008  -2.241  0.00  0.00    +0.200 C 
ATOM      9  O   UNL     1       3.459  -5.066  -1.480  0.00  0.00    -0.278 OA
ATOM     10  H   UNL     1       6.256  -9.438  -3.672  0.00  0.00    +0.149 HD
ENDROOT
BRANCH   1  11
ATOM     11  C   UNL     1       2.805  -7.205  -1.990  0.00  0.00    +0.128 C 
BRANCH  11  13
ATOM     12  N   UNL     1       3.072  -7.523   0.449  0.00  0.00    -0.285 N 
ATOM     13  C   UNL     1       3.655  -7.367  -0.756  0.00  0.00    +0.219 C 
ATOM     14  O   UNL     1       4.865  -7.356  -0.848  0.00  0.00    -0.275 OA
ATOM     15  H   UNL     1       1.977  -7.601   0.524  0.00  0.00    +0.155 HD
BRANCH  12  21
ATOM     16  C   UNL     1       3.324  -7.221   2.832  0.00  0.00    -0.026 A 
ATOM     17  C   UNL     1       4.104  -7.285   3.970  0.00  0.00    +0.005 A 
ATOM     18  C   UNL     1       5.415  -7.715   3.888  0.00  0.00    +0.000 A 
ATOM     19  C   UNL     1       5.951  -8.082   2.667  0.00  0.00    +0.002 A 
ATOM     20  C   UNL     1       5.175  -8.024   1.526  0.00  0.00    +0.023 A 
ATOM     21  C   UNL     1       3.859  -7.588   1.604  0.00  0.00    +0.037 A 
BRANCH  16  23
ATOM     22  C   UNL     1       0.968  -7.963   3.045  0.00  0.00    +0.009 C 
ATOM     23  C   UNL     1       1.895  -6.752   2.922  0.00  0.00    +0.033 C 
ENDBRANCH  16  23
ENDBRANCH  12  21
ENDBRANCH  11  13
ENDBRANCH   1  11
BRANCH   8  24
ATOM     24  C   UNL     1       5.319  -3.812  -2.213  0.00  0.00    +0.019 C 
BRANCH  24  25
ATOM     25  N   UNL     1       4.807  -2.824  -1.254  0.00  0.00    +0.387 N 
ATOM     26  C   UNL     1       3.488  -2.325  -1.667  0.00  0.00    -0.059 C 
ATOM     27  C   UNL     1       3.071  -1.172  -0.747  0.00  0.00    +0.089 C 
ATOM     28  N   UNL     1       3.153  -1.635   0.647  0.00  0.00    -0.299 N 
ATOM     29  C   UNL     1       4.402  -2.267   1.099  0.00  0.00    +0.089 C 
ATOM     30  C   UNL     1       4.764  -3.382   0.104  0.00  0.00    -0.059 C 
ATOM     31  C   UNL     1       2.113  -1.477   1.490  0.00  0.00    +0.282 C 
ATOM     32  O   UNL     1       2.223  -1.800   2.659  0.00  0.00    -0.267 OA
ATOM     33  H   UNL     1       5.500  -1.970  -1.243  0.00  0.00    -0.081 HD
BRANCH  31  34
ATOM     34  C   UNL     1       0.850  -0.917   1.000  0.00  0.00    +0.189 A 
ATOM     35  C   UNL     1      -0.316  -0.828   1.705  0.00  0.00    +0.054 A 
ATOM     36  C   UNL     1      -1.258  -0.231   0.854  0.00  0.00    +0.042 A 
ATOM     37  C   UNL     1      -0.635   0.015  -0.320  0.00  0.00    +0.196 A 
ATOM     38  O   UNL     1       0.635  -0.400  -0.228  0.00  0.00    -0.458 OA
ENDBRANCH  31  34
ENDBRANCH  24  25
ENDBRANCH   8  24
TORSDOF 7
