REMARK  Name = ZINC67479008
REMARK  9 active torsions:
REMARK  status: ('A' for Active; 'I' for Inactive)
REMARK    1  A    between atoms: C_1  and  C_2
REMARK    2  A    between atoms: C_2  and  C_3
REMARK    3  A    between atoms: C_5  and  C_8
REMARK    4  A    between atoms: C_8  and  C_9
REMARK    5  A    between atoms: C_9  and  N_10
REMARK    6  A    between atoms: N_13  and  C_14
REMARK    7  A    between atoms: C_14  and  C_15
REMARK    8  A    between atoms: C_15  and  C_17
REMARK    9  A    between atoms: C_15  and  O_27
REMARK                            x       y       z     vdW  Elec       q    Type
REMARK                         _______ _______ _______ _____ _____    ______ ____
ROOT
ATOM      1  N   UNL     1      -0.862  -0.675   6.604  0.00  0.00    -0.299 N 
ATOM      2  C   UNL     1      -1.580   0.243   7.280  0.00  0.00    +0.300 C 
ATOM      3  O   UNL     1      -1.776   1.341   6.794  0.00  0.00    -0.253 OA
ATOM      4  N   UNL     1      -2.082  -0.055   8.495  0.00  0.00    -0.297 N 
ATOM      5  H   UNL     1      -0.706  -1.550   6.991  0.00  0.00    +0.150 HD
ATOM      6  H   UNL     1      -1.926  -0.931   8.882  0.00  0.00    +0.150 HD
ENDROOT
BRANCH   1   7
ATOM      7  C   UNL     1      -0.317  -0.350   5.283  0.00  0.00    +0.112 C 
BRANCH   7   8
ATOM      8  C   UNL     1       0.451  -1.556   4.738  0.00  0.00    +0.074 C 
BRANCH   8  11
ATOM      9  C   UNL     1       0.731  -0.503   1.223  0.00  0.00    +0.078 A 
ATOM     10  N   UNL     1       0.240  -0.793   2.402  0.00  0.00    -0.249 NA
ATOM     11  C   UNL     1       1.012  -1.223   3.380  0.00  0.00    +0.050 A 
ATOM     12  C   UNL     1       2.336  -1.351   3.107  0.00  0.00    +0.070 A 
ATOM     13  S   UNL     1       2.372  -0.831   1.400  0.00  0.00    -0.080 S 
BRANCH   9  15
ATOM     14  C   UNL     1      -0.019   1.526   0.010  0.00  0.00    +0.011 C 
ATOM     15  C   UNL     1       0.002  -0.004   0.002  0.00  0.00    +0.059 C 
ENDBRANCH   9  15
ENDBRANCH   8  11
ENDBRANCH   7   8
ENDBRANCH   1   7
BRANCH   4  16
ATOM     16  C   UNL     1      -2.863   0.943   9.230  0.00  0.00    +0.141 C 
BRANCH  16  17
ATOM     17  C   UNL     1      -3.311   0.354  10.569  0.00  0.00    +0.162 C 
BRANCH  17  18
ATOM     18  C   UNL     1      -4.215   1.334  11.271  0.00  0.00    -0.017 A 
ATOM     19  C   UNL     1      -3.659   2.411  11.959  0.00  0.00    +0.007 A 
ATOM     20  C   UNL     1      -4.447   3.313  12.604  0.00  0.00    +0.009 A 
ATOM     21  C   UNL     1      -5.844   3.161  12.578  0.00  0.00    -0.018 A 
ATOM     22  C   UNL     1      -6.690   4.072  13.231  0.00  0.00    +0.008 A 
ATOM     23  C   UNL     1      -8.039   3.893  13.184  0.00  0.00    +0.001 A 
ATOM     24  C   UNL     1      -8.595   2.816  12.495  0.00  0.00    +0.001 A 
ATOM     25  C   UNL     1      -7.807   1.913  11.851  0.00  0.00    +0.008 A 
ATOM     26  C   UNL     1      -6.410   2.066  11.878  0.00  0.00    -0.018 A 
ATOM     27  C   UNL     1      -5.564   1.157  11.220  0.00  0.00    +0.014 A 
ENDBRANCH  17  18
BRANCH  17  28
ATOM     28  O   UNL     1      -2.165   0.096  11.383  0.00  0.00    -0.386 OA
ATOM     29  H   UNL     1      -1.637   0.882  11.580  0.00  0.00    +0.210 HD
ENDBRANCH  17  28
ENDBRANCH  16  17
ENDBRANCH   4  16
TORSDOF 8
