REMARK  Name = ZINC32979156
REMARK  8 active torsions:
REMARK  status: ('A' for Active; 'I' for Inactive)
REMARK    1  A    between atoms: C_1  and  C_2
REMARK    2  A    between atoms: C_5  and  C_7
REMARK    3  A    between atoms: N_9  and  C_10
REMARK    4  A    between atoms: C_14  and  C_16
REMARK    5  A    between atoms: N_18  and  C_19
REMARK    6  A    between atoms: C_19  and  C_20
REMARK    7  A    between atoms: C_20  and  N_21
REMARK    8  A    between atoms: C_25  and  C_26
REMARK                            x       y       z     vdW  Elec       q    Type
REMARK                         _______ _______ _______ _____ _____    ______ ____
ROOT
ATOM      1  C   UNL     1      -1.973  -6.522   0.527  0.00  0.00    +0.244 C 
ATOM      2  O   UNL     1      -2.908  -5.753   0.633  0.00  0.00    -0.270 OA
ATOM      3  N   UNL     1      -2.198  -7.847   0.424  0.00  0.00    -0.310 N 
ATOM      4  H   UNL     1      -1.352  -8.543   0.328  0.00  0.00    +0.149 HD
ENDROOT
BRANCH   1   9
ATOM      5  C   UNL     1       0.949  -4.156   0.603  0.00  0.00    +0.034 A 
ATOM      6  C   UNL     1       2.013  -5.042   0.476  0.00  0.00    +0.023 A 
ATOM      7  C   UNL     1       1.780  -6.400   0.376  0.00  0.00    +0.003 A 
ATOM      8  C   UNL     1       0.488  -6.886   0.390  0.00  0.00    +0.013 A 
ATOM      9  C   UNL     1      -0.588  -6.005   0.511  0.00  0.00    +0.038 A 
ATOM     10  C   UNL     1      -0.352  -4.634   0.618  0.00  0.00    +0.036 A 
BRANCH   5  13
ATOM     11  C   UNL     1       0.391  -2.014   1.473  0.00  0.00    +0.221 C 
ATOM     12  O   UNL     1      -0.603  -2.490   1.980  0.00  0.00    -0.275 OA
ATOM     13  N   UNL     1       1.192  -2.782   0.709  0.00  0.00    -0.285 N 
ATOM     14  H   UNL     1       2.036  -2.329   0.168  0.00  0.00    +0.155 HD
BRANCH  11  18
ATOM     15  C   UNL     1      -0.433   1.726   2.205  0.00  0.00    +0.008 C 
ATOM     16  C   UNL     1      -0.220   0.257   2.575  0.00  0.00    -0.002 C 
ATOM     17  C   UNL     1       1.157  -0.146   3.106  0.00  0.00    +0.017 C 
ATOM     18  C   UNL     1       0.729  -0.562   1.697  0.00  0.00    +0.078 C 
ENDBRANCH  11  18
ENDBRANCH   5  13
ENDBRANCH   1   9
BRANCH   3  19
ATOM     19  C   UNL     1      -3.571  -8.360   0.439  0.00  0.00    +0.124 C 
BRANCH  19  20
ATOM     20  C   UNL     1      -3.547  -9.884   0.308  0.00  0.00    +0.136 C 
BRANCH  20  21
ATOM     21  N   UNL     1      -4.919 -10.396   0.324  0.00  0.00    -0.227 N 
ATOM     22  C   UNL     1      -5.574 -10.525  -0.818  0.00  0.00    +0.260 C 
ATOM     23  O   UNL     1      -5.066 -10.227  -1.883  0.00  0.00    -0.269 OA
ATOM     24  C   UNL     1      -6.954 -11.048  -0.734  0.00  0.00    +0.080 C 
ATOM     25  C   UNL     1      -7.851 -11.282  -1.723  0.00  0.00    +0.028 C 
ATOM     26  S   UNL     1      -7.114 -11.287   1.030  0.00  0.00    -0.026 S 
ATOM     27  C   UNL     1      -5.484 -10.732   1.502  0.00  0.00    +0.286 C 
ATOM     28  O   UNL     1      -5.000 -10.670   2.616  0.00  0.00    -0.262 OA
BRANCH  25  29
ATOM     29  C   UNL     1      -9.118 -11.962  -1.420  0.00  0.00    -0.024 A 
ATOM     30  C   UNL     1      -9.262 -12.683  -0.229  0.00  0.00    +0.009 A 
ATOM     31  C   UNL     1     -10.455 -13.313   0.051  0.00  0.00    +0.020 A 
ATOM     32  C   UNL     1     -11.507 -13.244  -0.849  0.00  0.00    +0.041 A 
ATOM     33  C   UNL     1     -11.370 -12.537  -2.032  0.00  0.00    +0.020 A 
ATOM     34  C   UNL     1     -10.185 -11.897  -2.324  0.00  0.00    +0.009 A 
ATOM     35 CL   UNL     1     -13.004 -14.046  -0.490  0.00  0.00    -0.084 Cl
ENDBRANCH  25  29
ENDBRANCH  20  21
ENDBRANCH  19  20
ENDBRANCH   3  19
TORSDOF 7
