REMARK  Name = ZINC09217866
REMARK  11 active torsions:
REMARK  status: ('A' for Active; 'I' for Inactive)
REMARK    1  A    between atoms: C_1  and  C_2
REMARK    2  A    between atoms: C_3  and  C_14
REMARK    3  A    between atoms: C_4  and  C_13
REMARK    4  A    between atoms: N_5  and  C_7
REMARK    5  A    between atoms: C_14  and  N_62
REMARK    6  A    between atoms: C_15  and  N_62
REMARK    7  A    between atoms: C_16  and  C_17
REMARK    8  A    between atoms: C_16  and  N_62
REMARK    9  A    between atoms: N_19  and  N_20
REMARK   10  A    between atoms: C_23  and  C_27
REMARK   11  A    between atoms: C_23  and  C_28
REMARK                            x       y       z     vdW  Elec       q    Type
REMARK                         _______ _______ _______ _____ _____    ______ ____
ROOT
ATOM      1  C   UNL     1       2.922   5.309   2.858  0.00  0.00    +0.213 C 
ATOM      2  O   UNL     1       2.664   4.526   3.747  0.00  0.00    -0.276 OA
ATOM      3  N   UNL     1       3.535   6.475   3.143  0.00  0.00    -0.225 N 
ATOM      4  H   UNL     1       3.741   7.101   2.432  0.00  0.00    +0.173 HD
ENDROOT
BRANCH   3   5
ATOM      5  N   UNL     1       3.874   6.782   4.468  0.00  0.00    -0.137 N 
ATOM      6  C   UNL     1       5.128   6.729   4.960  0.00  0.00    +0.267 C 
ATOM      7  O   UNL     1       6.136   6.418   4.362  0.00  0.00    -0.271 OA
ATOM      8  C   UNL     1       5.014   7.139   6.415  0.00  0.00    +0.137 C 
ATOM      9  N   UNL     1       3.575   7.400   6.590  0.00  0.00    -0.280 N 
ATOM     10  C   UNL     1       2.994   7.169   5.399  0.00  0.00    +0.327 C 
ATOM     11  O   UNL     1       1.804   7.295   5.192  0.00  0.00    -0.251 OA
ATOM     12  C   UNL     1       5.828   8.407   6.681  0.00  0.00    +0.047 C 
ATOM     13  H   UNL     1       3.133   7.686   7.404  0.00  0.00    +0.152 HD
BRANCH   8  14
ATOM     14  C   UNL     1       5.464   6.019   7.317  0.00  0.00    -0.015 A 
ATOM     15  C   UNL     1       6.425   5.125   6.884  0.00  0.00    +0.006 A 
ATOM     16  C   UNL     1       6.841   4.101   7.714  0.00  0.00    +0.000 A 
ATOM     17  C   UNL     1       6.289   3.965   8.974  0.00  0.00    +0.000 A 
ATOM     18  C   UNL     1       5.324   4.856   9.405  0.00  0.00    +0.000 A 
ATOM     19  C   UNL     1       4.912   5.883   8.577  0.00  0.00    +0.006 A 
ENDBRANCH   8  14
ENDBRANCH   3   5
BRANCH   1  20
ATOM     20  C   UNL     1       2.557   4.979   1.433  0.00  0.00    +0.020 C 
BRANCH  20  22
ATOM     21  C   UNL     1       0.611   3.693   2.082  0.00  0.00    -0.095 C 
ATOM     22  N   UNL     1       1.922   3.645   1.401  0.00  0.00    +0.386 N 
ATOM     23  H   UNL     1       2.527   2.975   1.890  0.00  0.00    -0.081 HD
BRANCH  22  24
ATOM     24  C   UNL     1       1.748   3.202   0.002  0.00  0.00    -0.039 C 
BRANCH  24  27
ATOM     25  C   UNL     1      -1.249   2.171   0.020  0.00  0.00    +0.068 C 
ATOM     26  C   UNL     1      -0.016   1.304   0.009  0.00  0.00    +0.062 A 
ATOM     27  C   UNL     1       1.307   1.761  -0.001  0.00  0.00    -0.020 A 
ATOM     28  C   UNL     1       2.120   0.679  -0.015  0.00  0.00    +0.043 A 
ATOM     29  N   UNL     1       1.339  -0.424  -0.013  0.00  0.00    -0.237 N 
ATOM     30  N   UNL     1       0.002  -0.004   0.002  0.00  0.00    -0.171 NA
ATOM     31  C   UNL     1       3.627   0.701  -0.030  0.00  0.00    +0.066 C 
BRANCH  29  32
ATOM     32  C   UNL     1       1.786  -1.752  -0.024  0.00  0.00    +0.066 A 
ATOM     33  C   UNL     1       2.931  -2.095  -0.730  0.00  0.00    +0.028 A 
ATOM     34  C   UNL     1       3.372  -3.404  -0.736  0.00  0.00    +0.002 A 
ATOM     35  C   UNL     1       2.668  -4.375  -0.047  0.00  0.00    +0.000 A 
ATOM     36  C   UNL     1       1.524  -4.037   0.654  0.00  0.00    +0.002 A 
ATOM     37  C   UNL     1       1.081  -2.729   0.667  0.00  0.00    +0.028 A 
ENDBRANCH  29  32
ENDBRANCH  24  27
ENDBRANCH  22  24
ENDBRANCH  20  22
ENDBRANCH   1  20
TORSDOF 7
