REMARK  Name = ZINC23581350
REMARK  12 active torsions:
REMARK  status: ('A' for Active; 'I' for Inactive)
REMARK    1  A    between atoms: C_1  and  C_2
REMARK    2  A    between atoms: C_6  and  C_36
REMARK    3  A    between atoms: C_7  and  N_8
REMARK    4  A    between atoms: C_9  and  C_11
REMARK    5  A    between atoms: C_11  and  N_12
REMARK    6  A    between atoms: C_13  and  C_15
REMARK    7  A    between atoms: C_15  and  C_17
REMARK    8  A    between atoms: C_15  and  S_18
REMARK    9  A    between atoms: S_18  and  C_19
REMARK   10  A    between atoms: C_22  and  C_30
REMARK   11  A    between atoms: N_23  and  C_24
REMARK   12  A    between atoms: C_34  and  C_35
REMARK                            x       y       z     vdW  Elec       q    Type
REMARK                         _______ _______ _______ _____ _____    ______ ____
ROOT
ATOM      1  C   UNL     1       1.668  -2.685   4.728  0.00  0.00    +0.137 C 
ATOM      2  C   UNL     1       1.639  -3.536   3.457  0.00  0.00    +0.029 C 
ENDROOT
BRANCH   1   4
ATOM      3  N   UNL     1       0.554  -4.076   6.444  0.00  0.00    -0.306 N 
ATOM      4  C   UNL     1       0.484  -3.033   5.593  0.00  0.00    +0.227 C 
ATOM      5  O   UNL     1      -0.532  -2.375   5.523  0.00  0.00    -0.275 OA
ATOM      6  H   UNL     1       1.476  -4.673   6.507  0.00  0.00    +0.149 HD
BRANCH   3   7
ATOM      7  C   UNL     1      -0.597  -4.415   7.284  0.00  0.00    +0.200 C 
BRANCH   7   9
ATOM      8  N   UNL     1      -1.177  -6.104   8.996  0.00  0.00    -0.284 N 
ATOM      9  C   UNL     1      -0.262  -5.611   8.137  0.00  0.00    +0.234 C 
ATOM     10  O   UNL     1       0.831  -6.130   8.052  0.00  0.00    -0.274 OA
ATOM     11  H   UNL     1      -2.138  -5.587   9.132  0.00  0.00    +0.155 HD
BRANCH   8  18
ATOM     12  C   UNL     1      -1.508  -6.055  11.822  0.00  0.00    +0.045 C 
ATOM     13  C   UNL     1      -1.052  -7.294  11.094  0.00  0.00    -0.029 A 
ATOM     14  C   UNL     1      -0.787  -8.451  11.799  0.00  0.00    +0.005 A 
ATOM     15  C   UNL     1      -0.363  -9.587  11.132  0.00  0.00    +0.001 A 
ATOM     16  C   UNL     1      -0.209  -9.568   9.758  0.00  0.00    +0.005 A 
ATOM     17  C   UNL     1      -0.478  -8.415   9.047  0.00  0.00    -0.029 A 
ATOM     18  C   UNL     1      -0.903  -7.274   9.713  0.00  0.00    +0.039 A 
ATOM     19  C   UNL     1      -0.310  -8.396   7.550  0.00  0.00    +0.045 C 
ENDBRANCH   8  18
ENDBRANCH   7   9
ENDBRANCH   3   7
ENDBRANCH   1   4
BRANCH   1  20
ATOM     20  S   UNL     1       1.596  -0.932   4.283  0.00  0.00    -0.073 S 
BRANCH  20  21
ATOM     21  C   UNL     1       3.129  -0.770   3.430  0.00  0.00    +0.197 A 
ATOM     22  N   UNL     1       4.010  -1.721   3.223  0.00  0.00    -0.122 NA
ATOM     23  N   UNL     1       5.017  -1.258   2.572  0.00  0.00    -0.128 NA
ATOM     24  C   UNL     1       4.840   0.017   2.317  0.00  0.00    +0.173 A 
ATOM     25  N   UNL     1       3.623   0.371   2.855  0.00  0.00    -0.270 N 
BRANCH  25  26
ATOM     26  C   UNL     1       3.018   1.636   2.826  0.00  0.00    +0.051 A 
ATOM     27  C   UNL     1       1.832   1.823   2.129  0.00  0.00    +0.026 A 
ATOM     28  C   UNL     1       1.238   3.070   2.103  0.00  0.00    +0.002 A 
ATOM     29  C   UNL     1       1.824   4.131   2.768  0.00  0.00    +0.000 A 
ATOM     30  C   UNL     1       3.006   3.947   3.463  0.00  0.00    +0.002 A 
ATOM     31  C   UNL     1       3.604   2.702   3.493  0.00  0.00    +0.026 A 
ENDBRANCH  25  26
BRANCH  24  32
ATOM     32  C   UNL     1       5.772   0.906   1.589  0.00  0.00    +0.060 A 
ATOM     33  C   UNL     1       5.589   2.333   1.296  0.00  0.00    +0.053 A 
ATOM     34  C   UNL     1       6.684   2.716   0.621  0.00  0.00    +0.196 A 
ATOM     35  O   UNL     1       7.503   1.663   0.481  0.00  0.00    -0.467 OA
ATOM     36  C   UNL     1       6.979   0.572   1.058  0.00  0.00    +0.112 A 
ATOM     37  C   UNL     1       7.617  -0.792   1.107  0.00  0.00    +0.087 C 
ENDBRANCH  24  32
ENDBRANCH  20  21
ENDBRANCH   1  20
TORSDOF 8
