REMARK  Name = ZINC19980837
REMARK  10 active torsions:
REMARK  status: ('A' for Active; 'I' for Inactive)
REMARK    1  A    between atoms: C_1  and  C_2
REMARK    2  A    between atoms: C_2  and  C_4
REMARK    3  A    between atoms: C_2  and  S_16
REMARK    4  A    between atoms: S_16  and  C_17
REMARK    5  A    between atoms: C_20  and  C_25
REMARK    6  A    between atoms: N_21  and  C_22
REMARK    7  A    between atoms: C_22  and  C_23
REMARK    8  A    between atoms: C_25  and  C_27
REMARK    9  A    between atoms: C_25  and  O_28
REMARK   10  A    between atoms: O_28  and  C_29
REMARK                            x       y       z     vdW  Elec       q    Type
REMARK                         _______ _______ _______ _____ _____    ______ ____
ROOT
ATOM      1  C   UNL     1       1.677  -3.825   1.600  0.00  0.00    +0.193 A 
ATOM      2  N   UNL     1       0.537  -3.964   0.965  0.00  0.00    -0.122 NA
ATOM      3  N   UNL     1       0.269  -2.891   0.310  0.00  0.00    -0.130 NA
ATOM      4  C   UNL     1       1.218  -2.015   0.479  0.00  0.00    +0.175 A 
ATOM      5  N   UNL     1       2.148  -2.577   1.310  0.00  0.00    -0.299 N 
ENDROOT
BRANCH   4   6
ATOM      6  C   UNL     1       1.278  -0.635  -0.124  0.00  0.00    +0.238 C 
ATOM      7  C   UNL     1       1.650  -0.741  -1.605  0.00  0.00    +0.060 C 
BRANCH   6   8
ATOM      8  O   UNL     1       0.002  -0.004   0.002  0.00  0.00    -0.479 OA
BRANCH   8   9
ATOM      9  C   UNL     1      -0.016   1.355   0.009  0.00  0.00    +0.157 A 
ATOM     10  C   UNL     1       1.152   2.067  -0.218  0.00  0.00    +0.048 A 
ATOM     11  C   UNL     1       1.131   3.449  -0.210  0.00  0.00    +0.004 A 
ATOM     12  C   UNL     1      -0.054   4.123   0.022  0.00  0.00    +0.003 A 
ATOM     13  C   UNL     1      -1.221   3.417   0.248  0.00  0.00    +0.042 A 
ATOM     14  C   UNL     1      -1.207   2.034   0.237  0.00  0.00    +0.165 A 
ATOM     15  F   UNL     1      -2.348   1.344   0.453  0.00  0.00    -0.202 F 
ENDBRANCH   8   9
ENDBRANCH   6   8
ENDBRANCH   4   6
BRANCH   1  16
ATOM     16  S   UNL     1       2.454  -5.024   2.632  0.00  0.00    -0.075 S 
BRANCH  16  18
ATOM     17  C   UNL     1       1.198  -6.886   1.077  0.00  0.00    +0.027 C 
ATOM     18  C   UNL     1       1.248  -6.368   2.516  0.00  0.00    +0.117 C 
BRANCH  18  19
ATOM     19  C   UNL     1       1.653  -7.488   3.439  0.00  0.00    +0.124 A 
ATOM     20  N   UNL     1       0.674  -8.196   4.061  0.00  0.00    -0.309 N 
ATOM     21  H   UNL     1      -0.382  -7.946   3.885  0.00  0.00    +0.170 HD
ATOM     22  C   UNL     1       0.986  -9.212   4.899  0.00  0.00    +0.259 A 
ATOM     23  O   UNL     1       0.119  -9.855   5.463  0.00  0.00    -0.267 OA
ATOM     24  C   UNL     1       2.412  -9.508   5.104  0.00  0.00    +0.065 A 
ATOM     25  C   UNL     1       2.838 -10.532   5.947  0.00  0.00    +0.015 A 
ATOM     26  C   UNL     1       4.187 -10.766   6.102  0.00  0.00    +0.001 A 
ATOM     27  C   UNL     1       5.121  -9.991   5.426  0.00  0.00    +0.002 A 
ATOM     28  C   UNL     1       4.720  -8.974   4.589  0.00  0.00    +0.028 A 
ATOM     29  C   UNL     1       3.358  -8.717   4.415  0.00  0.00    +0.078 A 
ATOM     30  N   UNL     1       2.919  -7.729   3.596  0.00  0.00    -0.233 NA
ENDBRANCH  18  19
ENDBRANCH  16  18
ENDBRANCH   1  16
BRANCH   5  31
ATOM     31  C   UNL     1       3.390  -1.966   1.789  0.00  0.00    +0.152 C 
BRANCH  31  32
ATOM     32  C   UNL     1       3.126  -1.234   3.079  0.00  0.00    -0.013 C 
ATOM     33  C   UNL     1       3.832  -1.513   4.147  0.00  0.00    +0.005 C 
ENDBRANCH  31  32
ENDBRANCH   5  31
TORSDOF 8
