REMARK  Name = ZINC08695096
REMARK  8 active torsions:
REMARK  status: ('A' for Active; 'I' for Inactive)
REMARK    1  A    between atoms: C_1  and  C_2
REMARK    2  A    between atoms: C_5  and  C_8
REMARK    3  A    between atoms: C_8  and  C_9
REMARK    4  A    between atoms: N_15  and  C_18
REMARK    5  A    between atoms: C_21  and  C_24
REMARK    6  A    between atoms: N_25  and  C_26
REMARK    7  A    between atoms: C_26  and  C_27
REMARK    8  A    between atoms: C_27  and  C_28
REMARK                            x       y       z     vdW  Elec       q    Type
REMARK                         _______ _______ _______ _____ _____    ______ ____
ROOT
ATOM      1  C   UNL     1      -2.926   1.606   5.331  0.00  0.00    +0.064 C 
ATOM      2  N   UNL     1      -1.971   1.943   6.246  0.00  0.00    -0.286 NA
ENDROOT
BRANCH   1   3
ATOM      3  C   UNL     1      -3.973   2.490   5.057  0.00  0.00    +0.210 C 
ATOM      4  C   UNL     1      -4.172   3.712   5.850  0.00  0.00    +0.238 C 
ATOM      5  O   UNL     1      -3.427   3.987   6.771  0.00  0.00    -0.274 OA
ATOM      6  N   UNL     1      -5.200   4.523   5.525  0.00  0.00    -0.238 N 
ATOM      7  C   UNL     1      -6.033   4.228   4.516  0.00  0.00    +0.319 C 
ATOM      8  O   UNL     1      -6.943   4.997   4.277  0.00  0.00    -0.251 OA
ATOM      9  N   UNL     1      -5.912   3.130   3.757  0.00  0.00    -0.193 N 
ATOM     10  C   UNL     1      -4.926   2.234   3.966  0.00  0.00    +0.245 C 
ATOM     11  O   UNL     1      -4.826   1.241   3.270  0.00  0.00    -0.274 OA
ATOM     12  H   UNL     1      -5.343   5.335   6.035  0.00  0.00    +0.159 HD
BRANCH   9  13
ATOM     13  C   UNL     1      -6.832   2.907   2.724  0.00  0.00    +0.045 A 
ATOM     14  C   UNL     1      -6.609   3.448   1.465  0.00  0.00    +0.024 A 
ATOM     15  C   UNL     1      -7.515   3.222   0.447  0.00  0.00    +0.005 A 
ATOM     16  C   UNL     1      -8.649   2.467   0.684  0.00  0.00    -0.050 A 
ATOM     17  C   UNL     1      -8.877   1.931   1.938  0.00  0.00    +0.005 A 
ATOM     18  C   UNL     1      -7.972   2.149   2.959  0.00  0.00    +0.024 A 
ATOM     19  C   UNL     1      -9.638   2.227  -0.427  0.00  0.00    +0.044 C 
ENDBRANCH   9  13
ENDBRANCH   1   3
BRANCH   1  24
ATOM     20  C   UNL     1      -2.643  -3.451   2.607  0.00  0.00    +0.044 C 
ATOM     21  C   UNL     1      -2.717  -2.126   3.321  0.00  0.00    -0.050 A 
ATOM     22  C   UNL     1      -1.667  -1.230   3.221  0.00  0.00    +0.004 A 
ATOM     23  C   UNL     1      -1.729  -0.013   3.867  0.00  0.00    +0.010 A 
ATOM     24  C   UNL     1      -2.853   0.310   4.633  0.00  0.00    -0.003 A 
ATOM     25  C   UNL     1      -3.908  -0.602   4.734  0.00  0.00    +0.010 A 
ATOM     26  C   UNL     1      -3.833  -1.813   4.077  0.00  0.00    +0.004 A 
ENDBRANCH   1  24
BRANCH   2  27
ATOM     27  C   UNL     1      -0.873   1.016   6.534  0.00  0.00    +0.148 C 
BRANCH  27  28
ATOM     28  C   UNL     1      -0.002   1.590   7.653  0.00  0.00    +0.078 C 
BRANCH  28  29
ATOM     29  C   UNL     1       1.127   0.637   7.950  0.00  0.00    +0.037 A 
ATOM     30  C   UNL     1       2.309   0.569   7.309  0.00  0.00    +0.133 A 
ATOM     31  N   UNL     1       3.033  -0.408   7.875  0.00  0.00    -0.244 NA
ATOM     32  C   UNL     1       2.343  -0.949   8.842  0.00  0.00    +0.196 A 
ATOM     33  N   UNL     1       1.150  -0.323   8.925  0.00  0.00    -0.348 N 
ATOM     34  H   UNL     1       0.419  -0.523   9.578  0.00  0.00    +0.166 HD
ENDBRANCH  28  29
ENDBRANCH  27  28
ENDBRANCH   2  27
TORSDOF 6
