REMARK  Name = ZINC36313375
REMARK  12 active torsions:
REMARK  status: ('A' for Active; 'I' for Inactive)
REMARK    1  A    between atoms: C_4  and  C_7
REMARK    2  A    between atoms: C_7  and  O_8
REMARK    3  A    between atoms: O_8  and  C_9
REMARK    4  A    between atoms: C_9  and  C_10
REMARK    5  A    between atoms: C_10  and  C_12
REMARK    6  A    between atoms: C_10  and  O_36
REMARK    7  A    between atoms: C_12  and  N_13
REMARK    8  A    between atoms: N_13  and  C_14
REMARK    9  A    between atoms: N_13  and  C_33
REMARK   10  A    between atoms: C_14  and  C_15
REMARK   11  A    between atoms: C_16  and  C_26
REMARK   12  A    between atoms: C_19  and  N_20
REMARK                            x       y       z     vdW  Elec       q    Type
REMARK                         _______ _______ _______ _____ _____    ______ ____
ROOT
ATOM      1  C   UNL     1       8.765  -3.332   4.681  0.00  0.00    -0.035 C 
ENDROOT
BRANCH   1   2
ATOM      2  C   UNL     1       8.648  -3.542   6.169  0.00  0.00    +0.025 A 
ATOM      3  C   UNL     1       7.686  -4.342   6.820  0.00  0.00    +0.119 A 
ATOM      4  N   UNL     1       7.910  -4.271   8.113  0.00  0.00    -0.076 NA
ATOM      5  O   UNL     1       9.023  -3.421   8.318  0.00  0.00    -0.339 OA
ATOM      6  C   UNL     1       9.452  -2.999   7.117  0.00  0.00    +0.222 A 
BRANCH   3   7
ATOM      7  C   UNL     1       6.612  -5.126   6.162  0.00  0.00    +0.039 A 
ATOM      8  C   UNL     1       6.522  -5.159   4.772  0.00  0.00    +0.013 A 
ATOM      9  C   UNL     1       5.521  -5.890   4.165  0.00  0.00    +0.001 A 
ATOM     10  C   UNL     1       4.606  -6.588   4.932  0.00  0.00    +0.003 A 
ATOM     11  C   UNL     1       4.688  -6.560   6.312  0.00  0.00    +0.039 A 
ATOM     12  C   UNL     1       5.691  -5.836   6.932  0.00  0.00    +0.133 A 
ATOM     13  F   UNL     1       5.774  -5.812   8.280  0.00  0.00    -0.205 F 
ENDBRANCH   3   7
BRANCH   6  14
ATOM     14  N   UNL     1      10.524  -2.155   6.888  0.00  0.00    -0.295 N 
ATOM     15  C   UNL     1      10.369  -0.694   6.969  0.00  0.00    +0.136 C 
ATOM     16  C   UNL     1      11.472  -0.141   7.879  0.00  0.00    +0.179 C 
ATOM     17  O   UNL     1      12.740  -0.620   7.426  0.00  0.00    -0.377 OA
ATOM     18  C   UNL     1      12.884  -2.042   7.485  0.00  0.00    +0.179 C 
ATOM     19  C   UNL     1      11.855  -2.692   6.561  0.00  0.00    +0.136 C 
ENDBRANCH   6  14
ENDBRANCH   1   2
BRANCH   1  20
ATOM     20  N   UNL     1       7.687  -2.445   4.225  0.00  0.00    +0.386 N 
ATOM     21  H   UNL     1       6.796  -2.824   4.509  0.00  0.00    -0.081 HD
BRANCH  20  22
ATOM     22  C   UNL     1       7.864  -1.113   4.820  0.00  0.00    -0.068 C 
ATOM     23  C   UNL     1       6.986  -0.753   6.020  0.00  0.00    -0.017 C 
ATOM     24  C   UNL     1       6.721  -0.109   4.658  0.00  0.00    -0.017 C 
ENDBRANCH  20  22
BRANCH  20  25
ATOM     25  C   UNL     1       7.728  -2.336   2.761  0.00  0.00    -0.044 C 
BRANCH  25  26
ATOM     26  C   UNL     1       6.517  -1.539   2.274  0.00  0.00    +0.124 C 
BRANCH  26  27
ATOM     27  O   UNL     1       5.321  -2.126   2.792  0.00  0.00    -0.391 OA
ATOM     28  H   UNL     1       5.185  -3.044   2.523  0.00  0.00    +0.210 HD
ENDBRANCH  26  27
BRANCH  26  29
ATOM     29  C   UNL     1       6.473  -1.560   0.745  0.00  0.00    +0.189 C 
BRANCH  29  30
ATOM     30  O   UNL     1       5.411  -0.721   0.287  0.00  0.00    -0.373 OA
BRANCH  30  31
ATOM     31  C   UNL     1       5.283  -0.669  -1.136  0.00  0.00    +0.195 C 
BRANCH  31  35
ATOM     32  C   UNL     1       2.040   1.906  -2.183  0.00  0.00    +0.000 A 
ATOM     33  C   UNL     1       3.315   2.421  -2.046  0.00  0.00    +0.000 A 
ATOM     34  C   UNL     1       4.365   1.588  -1.707  0.00  0.00    +0.006 A 
ATOM     35  C   UNL     1       4.139   0.239  -1.504  0.00  0.00    -0.022 A 
ATOM     36  C   UNL     1       2.863  -0.276  -1.640  0.00  0.00    +0.006 A 
ATOM     37  C   UNL     1       1.814   0.557  -1.980  0.00  0.00    +0.000 A 
ENDBRANCH  31  35
ENDBRANCH  30  31
ENDBRANCH  29  30
ENDBRANCH  26  29
ENDBRANCH  25  26
ENDBRANCH  20  25
ENDBRANCH   1  20
TORSDOF 12
