REMARK  Name = ZINC15860472
REMARK  8 active torsions:
REMARK  status: ('A' for Active; 'I' for Inactive)
REMARK    1  A    between atoms: C_1  and  C_2
REMARK    2  A    between atoms: C_5  and  C_7
REMARK    3  A    between atoms: C_7  and  C_9
REMARK    4  A    between atoms: C_7  and  N_53
REMARK    5  A    between atoms: C_9  and  N_10
REMARK    6  A    between atoms: C_11  and  C_13
REMARK    7  A    between atoms: C_14  and  C_24
REMARK    8  A    between atoms: C_18  and  C_22
REMARK                            x       y       z     vdW  Elec       q    Type
REMARK                         _______ _______ _______ _____ _____    ______ ____
ROOT
ATOM      1  N   UNL     1       1.144   1.919   0.035  0.00  0.00    -0.310 N 
ATOM      2  C   UNL     1      -0.024   1.247   0.006  0.00  0.00    +0.280 C 
ATOM      3  O   UNL     1      -0.027   0.038  -0.126  0.00  0.00    -0.267 OA
ATOM      4  H   UNL     1       1.146   2.884   0.140  0.00  0.00    +0.149 HD
ENDROOT
BRANCH   2   5
ATOM      5  C   UNL     1      -1.295   1.976   0.127  0.00  0.00    +0.193 A 
ATOM      6  C   UNL     1      -2.527   1.406   0.105  0.00  0.00    +0.008 A 
ATOM      7  C   UNL     1      -3.483   2.503   0.257  0.00  0.00    +0.025 A 
ATOM      8  C   UNL     1      -4.877   2.579   0.311  0.00  0.00    +0.032 A 
ATOM      9  C   UNL     1      -5.484   3.795   0.465  0.00  0.00    +0.045 A 
ATOM     10  C   UNL     1      -4.722   4.953   0.567  0.00  0.00    -0.029 A 
ATOM     11  C   UNL     1      -3.347   4.898   0.515  0.00  0.00    +0.051 A 
ATOM     12  C   UNL     1      -2.708   3.673   0.360  0.00  0.00    +0.136 A 
ATOM     13  O   UNL     1      -1.412   3.311   0.282  0.00  0.00    -0.450 OA
ATOM     14  C   UNL     1      -5.409   6.283   0.736  0.00  0.00    +0.045 C 
ATOM     15 CL   UNL     1      -7.215   3.892   0.533  0.00  0.00    -0.083 Cl
ATOM     16  C   UNL     1      -2.846  -0.059  -0.045  0.00  0.00    +0.048 C 
ENDBRANCH   2   5
BRANCH   1  17
ATOM     17  C   UNL     1       2.410   1.194  -0.091  0.00  0.00    +0.097 C 
BRANCH  17  18
ATOM     18  C   UNL     1       3.567   2.193  -0.146  0.00  0.00    +0.016 C 
BRANCH  18  23
ATOM     19  C   UNL     1       4.660   3.216   4.671  0.00  0.00    +0.086 C 
ATOM     20  C   UNL     1       4.140   3.366   3.264  0.00  0.00    +0.102 A 
ATOM     21  C   UNL     1       3.500   4.442   2.773  0.00  0.00    +0.044 A 
ATOM     22  C   UNL     1       3.198   4.157   1.421  0.00  0.00    +0.043 A 
ATOM     23  C   UNL     1       3.665   2.921   1.170  0.00  0.00    +0.093 A 
ATOM     24  O   UNL     1       4.237   2.448   2.289  0.00  0.00    -0.466 OA
ENDBRANCH  18  23
BRANCH  18  29
ATOM     25  C   UNL     1       4.760   0.734  -1.688  0.00  0.00    -0.078 C 
ATOM     26  C   UNL     1       6.251   0.505  -2.039  0.00  0.00    -0.020 C 
ATOM     27  C   UNL     1       6.921   1.819  -1.575  0.00  0.00    -0.020 C 
ATOM     28  C   UNL     1       5.955   2.417  -0.535  0.00  0.00    -0.078 C 
ATOM     29  N   UNL     1       4.846   1.469  -0.416  0.00  0.00    +0.387 N 
ATOM     30  H   UNL     1       5.031   0.814   0.352  0.00  0.00    -0.081 HD
ENDBRANCH  18  29
ENDBRANCH  17  18
ENDBRANCH   1  17
TORSDOF 5
