REMARK  Name = ZINC64202202
REMARK  9 active torsions:
REMARK  status: ('A' for Active; 'I' for Inactive)
REMARK    1  A    between atoms: C_1  and  C_2
REMARK    2  A    between atoms: C_5  and  C_7
REMARK    3  A    between atoms: C_10  and  C_12
REMARK    4  A    between atoms: C_12  and  N_13
REMARK    5  A    between atoms: N_13  and  C_14
REMARK    6  A    between atoms: C_15  and  C_17
REMARK    7  A    between atoms: C_22  and  N_23
REMARK    8  A    between atoms: N_23  and  S_24
REMARK    9  A    between atoms: S_24  and  C_27
REMARK                            x       y       z     vdW  Elec       q    Type
REMARK                         _______ _______ _______ _____ _____    ______ ____
ROOT
ATOM      1  C   UNL     1       6.577   1.844   4.936  0.00  0.00    +0.059 A 
ATOM      2  C   UNL     1       7.294   1.951   3.741  0.00  0.00    +0.015 A 
ATOM      3  C   UNL     1       8.629   1.612   3.708  0.00  0.00    +0.001 A 
ATOM      4  C   UNL     1       9.267   1.164   4.855  0.00  0.00    +0.002 A 
ATOM      5  C   UNL     1       8.573   1.053   6.042  0.00  0.00    +0.025 A 
ATOM      6  C   UNL     1       7.227   1.397   6.096  0.00  0.00    +0.060 A 
ENDROOT
BRANCH   1   9
ATOM      7  N   UNL     1       4.324   1.810   3.987  0.00  0.00    -0.293 N 
ATOM      8  C   UNL     1       4.820   0.925   2.931  0.00  0.00    +0.133 C 
ATOM      9  C   UNL     1       5.149   2.205   4.978  0.00  0.00    +0.249 C 
ATOM     10  O   UNL     1       4.714   2.859   5.907  0.00  0.00    -0.270 OA
BRANCH   7  11
ATOM     11  C   UNL     1       2.932   2.266   3.967  0.00  0.00    +0.182 C 
BRANCH  11  15
ATOM     12  C   UNL     1       0.777  -0.420   5.180  0.00  0.00    +0.109 A 
ATOM     13  C   UNL     1       0.961   0.244   6.335  0.00  0.00    +0.045 A 
ATOM     14  C   UNL     1       1.796   1.347   6.045  0.00  0.00    +0.046 A 
ATOM     15  C   UNL     1       2.073   1.291   4.730  0.00  0.00    +0.122 A 
ATOM     16  O   UNL     1       1.458   0.215   4.212  0.00  0.00    -0.463 OA
BRANCH  12  20
ATOM     17  C   UNL     1      -1.473  -0.281   3.304  0.00  0.00    +0.008 C 
ATOM     18  C   UNL     1      -1.224  -1.607   4.026  0.00  0.00    -0.003 C 
ATOM     19  C   UNL     1       0.038  -2.388   3.654  0.00  0.00    +0.015 C 
ATOM     20  C   UNL     1      -0.048  -1.669   5.003  0.00  0.00    +0.058 C 
ENDBRANCH  12  20
ENDBRANCH  11  15
ENDBRANCH   7  11
ENDBRANCH   1   9
BRANCH   6  21
ATOM     21  N   UNL     1       6.528   1.291   7.292  0.00  0.00    -0.216 N 
ATOM     22  H   UNL     1       5.597   1.017   7.286  0.00  0.00    +0.174 HD
BRANCH  21  23
ATOM     23  S   UNL     1       7.282   1.634   8.725  0.00  0.00    +0.072 S 
ATOM     24  O   UNL     1       6.282   1.583   9.733  0.00  0.00    -0.150 OA
ATOM     25  O   UNL     1       8.452   0.829   8.771  0.00  0.00    -0.150 OA
BRANCH  23  26
ATOM     26  C   UNL     1       7.826   3.308   8.641  0.00  0.00    +0.110 A 
ATOM     27  C   UNL     1       9.153   3.594   8.109  0.00  0.00    +0.031 A 
ATOM     28  C   UNL     1       9.631   4.854   8.016  0.00  0.00    +0.027 A 
ATOM     29  C   UNL     1       8.803   5.973   8.459  0.00  0.00    +0.056 A 
ATOM     30  N   UNL     1       8.955   7.273   8.506  0.00  0.00    -0.268 N 
ATOM     31  C   UNL     1       7.812   7.825   9.033  0.00  0.00    +0.308 C 
ATOM     32  O   UNL     1       7.628   9.011   9.211  0.00  0.00    -0.252 OA
ATOM     33  N   UNL     1       6.907   6.832   9.327  0.00  0.00    -0.267 N 
ATOM     34  C   UNL     1       7.440   5.680   9.005  0.00  0.00    +0.058 A 
ATOM     35  C   UNL     1       6.999   4.287   9.065  0.00  0.00    +0.054 A 
ATOM     36  H   UNL     1       6.025   6.963   9.708  0.00  0.00    +0.156 HD
ATOM     37  H   UNL     1       9.742   7.763   8.219  0.00  0.00    +0.156 HD
ENDBRANCH  23  26
ENDBRANCH  21  23
ENDBRANCH   6  21
TORSDOF 7
