REMARK  Name = ZINC09307154
REMARK  6 active torsions:
REMARK  status: ('A' for Active; 'I' for Inactive)
REMARK    1  A    between atoms: C_1  and  C_2
REMARK    2  A    between atoms: C_4  and  C_37
REMARK    3  A    between atoms: N_20  and  C_23
REMARK    4  A    between atoms: C_25  and  N_31
REMARK    5  A    between atoms: C_28  and  O_29
REMARK    6  A    between atoms: O_29  and  C_30
REMARK                            x       y       z     vdW  Elec       q    Type
REMARK                         _______ _______ _______ _____ _____    ______ ____
ROOT
ATOM      1  C   UNL     1      -1.331   2.116   0.020  0.00  0.00    +0.044 C 
ATOM      2  C   UNL     1      -0.017   1.379   0.010  0.00  0.00    -0.050 A 
ATOM      3  C   UNL     1       0.002  -0.004   0.002  0.00  0.00    +0.008 A 
ATOM      4  C   UNL     1       1.202  -0.685  -0.013  0.00  0.00    -0.029 A 
ATOM      5  C   UNL     1       2.405   0.017  -0.021  0.00  0.00    +0.039 A 
ATOM      6  C   UNL     1       2.374   1.408  -0.013  0.00  0.00    -0.027 A 
ATOM      7  C   UNL     1       1.174   2.083   0.002  0.00  0.00    +0.008 A 
ATOM      8  C   UNL     1       3.810   1.852  -0.025  0.00  0.00    +0.053 C 
ATOM      9  C   UNL     1       4.139   2.708   1.203  0.00  0.00    +0.089 C 
ATOM     10  C   UNL     1       5.142   3.774   0.683  0.00  0.00    +0.074 C 
ATOM     11  C   UNL     1       5.322   3.462  -0.814  0.00  0.00    -0.054 C 
ATOM     12  C   UNL     1       3.046   3.710  -1.370  0.00  0.00    -0.076 C 
ATOM     13  C   UNL     1       3.754   4.926  -2.001  0.00  0.00    -0.020 C 
ATOM     14  C   UNL     1       5.239   4.770  -1.620  0.00  0.00    -0.016 C 
ATOM     15  C   UNL     1       4.383   5.072   0.837  0.00  0.00    +0.229 C 
ATOM     16  O   UNL     1       4.805   6.170   0.543  0.00  0.00    -0.275 OA
ATOM     17  N   UNL     1       3.172   4.821   1.347  0.00  0.00    -0.206 N 
ATOM     18  C   UNL     1       2.930   3.528   1.592  0.00  0.00    +0.230 C 
ATOM     19  O   UNL     1       1.901   3.084   2.055  0.00  0.00    -0.275 OA
ATOM     20  C   UNL     1       4.612   0.579  -0.038  0.00  0.00    +0.212 C 
ATOM     21  O   UNL     1       5.821   0.485  -0.049  0.00  0.00    -0.277 OA
ATOM     22  N   UNL     1       3.726  -0.436  -0.035  0.00  0.00    -0.286 N 
ATOM     23  C   UNL     1       1.211  -2.192  -0.020  0.00  0.00    +0.045 C 
ATOM     24  H   UNL     1       3.977  -1.373  -0.043  0.00  0.00    +0.155 HD
ATOM     25  N   UNL     1       4.127   2.726  -1.158  0.00  0.00    +0.395 N 
ATOM     26  H   UNL     1       4.272   2.168  -2.008  0.00  0.00    -0.079 HD
ENDROOT
BRANCH  17  27
ATOM     27  C   UNL     1       2.232   5.831   1.603  0.00  0.00    +0.088 A 
ATOM     28  C   UNL     1       1.329   6.207   0.618  0.00  0.00    +0.060 A 
ATOM     29  C   UNL     1       0.401   7.198   0.874  0.00  0.00    +0.128 A 
ATOM     30  C   UNL     1       0.376   7.825   2.107  0.00  0.00    +0.036 A 
ATOM     31  C   UNL     1       1.275   7.459   3.091  0.00  0.00    +0.050 A 
ATOM     32  C   UNL     1       2.205   6.463   2.844  0.00  0.00    +0.142 A 
BRANCH  29  33
ATOM     33  N   UNL     1      -0.565   7.594  -0.175  0.00  0.00    +0.056 N 
ATOM     34  O   UNL     1      -1.380   8.471   0.047  0.00  0.00    -0.126 OA
ATOM     35  O   UNL     1      -0.543   7.043  -1.261  0.00  0.00    -0.126 OA
ENDBRANCH  29  33
BRANCH  32  36
ATOM     36  O   UNL     1       3.091   6.102   3.810  0.00  0.00    -0.493 OA
ATOM     37  C   UNL     1       3.006   6.793   5.058  0.00  0.00    +0.277 C 
ENDBRANCH  32  36
ENDBRANCH  17  27
TORSDOF 3
