REMARK  Name = ZINC39652654
REMARK  9 active torsions:
REMARK  status: ('A' for Active; 'I' for Inactive)
REMARK    1  A    between atoms: C_1  and  C_2
REMARK    2  A    between atoms: C_2  and  O_3
REMARK    3  A    between atoms: O_3  and  C_4
REMARK    4  A    between atoms: C_9  and  C_10
REMARK    5  A    between atoms: C_10  and  C_11
REMARK    6  A    between atoms: C_11  and  N_12
REMARK    7  A    between atoms: C_13  and  C_15
REMARK    8  A    between atoms: C_26  and  C_28
REMARK    9  A    between atoms: C_32  and  C_34
REMARK                            x       y       z     vdW  Elec       q    Type
REMARK                         _______ _______ _______ _____ _____    ______ ____
ROOT
ATOM      1  C   UNL     1       5.982   0.704  -4.925  0.00  0.00    +0.100 C 
ATOM      2  C   UNL     1       6.134   0.253  -6.395  0.00  0.00    +0.121 C 
ATOM      3  N   UNL     1       7.375   0.914  -6.864  0.00  0.00    -0.296 N 
ATOM      4  C   UNL     1       8.299   0.824  -5.708  0.00  0.00    +0.115 C 
ATOM      5  C   UNL     1       7.406   1.078  -4.478  0.00  0.00    -0.004 C 
ATOM      6  C   UNL     1       7.464   2.549  -4.078  0.00  0.00    -0.010 C 
ATOM      7  C   UNL     1       8.875   2.883  -3.583  0.00  0.00    -0.082 C 
ATOM      8  N   UNL     1       9.208   2.029  -2.437  0.00  0.00    +0.379 N 
ATOM      9  C   UNL     1       9.240   0.621  -2.853  0.00  0.00    -0.082 C 
ATOM     10  C   UNL     1       7.845   0.192  -3.316  0.00  0.00    -0.010 C 
ATOM     11  C   UNL     1       7.609   1.471  -8.069  0.00  0.00    +0.247 C 
ATOM     12  O   UNL     1       6.705   1.581  -8.874  0.00  0.00    -0.270 OA
ATOM     13  H   UNL     1      10.112   2.292  -2.075  0.00  0.00    -0.086 HD
ATOM     14  H   UNL     1       8.512   2.149  -1.716  0.00  0.00    -0.086 HD
ENDROOT
BRANCH  11  15
ATOM     15  C   UNL     1       8.965   1.947  -8.411  0.00  0.00    +0.038 A 
ATOM     16  C   UNL     1      10.075   1.459  -7.718  0.00  0.00    +0.016 A 
ATOM     17  C   UNL     1      11.338   1.907  -8.040  0.00  0.00    +0.039 A 
ATOM     18  C   UNL     1      11.508   2.841  -9.051  0.00  0.00    +0.135 A 
ATOM     19  C   UNL     1      10.409   3.329  -9.742  0.00  0.00    +0.091 A 
ATOM     20  C   UNL     1       9.142   2.883  -9.431  0.00  0.00    +0.028 A 
ATOM     21  F   UNL     1      12.747   3.277  -9.364  0.00  0.00    -0.205 F 
BRANCH  19  22
ATOM     22  C   UNL     1      10.601   4.344 -10.839  0.00  0.00    +0.420 C 
ATOM     23  F   UNL     1       9.358   4.682 -11.384  0.00  0.00    -0.166 F 
ATOM     24  F   UNL     1      11.207   5.490 -10.313  0.00  0.00    -0.166 F 
ATOM     25  F   UNL     1      11.417   3.802 -11.839  0.00  0.00    -0.166 F 
ENDBRANCH  19  22
ENDBRANCH  11  15
BRANCH   1  27
ATOM     26  N   UNL     1       4.690  -0.157  -3.000  0.00  0.00    -0.315 N 
ATOM     27  C   UNL     1       5.447  -0.424  -4.082  0.00  0.00    +0.218 C 
ATOM     28  O   UNL     1       5.698  -1.574  -4.378  0.00  0.00    -0.275 OA
ATOM     29  H   UNL     1       4.489   0.763  -2.764  0.00  0.00    +0.149 HD
BRANCH  26  30
ATOM     30  C   UNL     1       4.169  -1.254  -2.180  0.00  0.00    +0.109 C 
BRANCH  30  31
ATOM     31  C   UNL     1       3.348  -0.681  -1.023  0.00  0.00    +0.057 C 
BRANCH  31  37
ATOM     32  C   UNL     1       3.597  -2.358   0.824  0.00  0.00    +0.124 A 
ATOM     33  C   UNL     1       3.099  -3.394   1.601  0.00  0.00    +0.046 A 
ATOM     34  C   UNL     1       1.827  -3.879   1.371  0.00  0.00    +0.004 A 
ATOM     35  C   UNL     1       1.049  -3.333   0.366  0.00  0.00    +0.000 A 
ATOM     36  C   UNL     1       1.543  -2.302  -0.410  0.00  0.00    +0.007 A 
ATOM     37  C   UNL     1       2.813  -1.810  -0.180  0.00  0.00    -0.004 A 
BRANCH  32  38
ATOM     38  O   UNL     1       4.849  -1.879   1.048  0.00  0.00    -0.492 OA
BRANCH  38  40
ATOM     39  C   UNL     1       6.972  -1.825   2.201  0.00  0.00    +0.048 C 
ATOM     40  C   UNL     1       5.599  -2.492   2.098  0.00  0.00    +0.225 C 
ENDBRANCH  38  40
ENDBRANCH  32  38
ENDBRANCH  31  37
ENDBRANCH  30  31
ENDBRANCH  26  30
ENDBRANCH   1  27
TORSDOF 8
