REMARK  Name = ZINC20867486
REMARK  4 active torsions:
REMARK  status: ('A' for Active; 'I' for Inactive)
REMARK    1  A    between atoms: C_5  and  N_7
REMARK    2  A    between atoms: N_7  and  C_8
REMARK    3  A    between atoms: C_8  and  C_9
REMARK    4  A    between atoms: N_11  and  C_12
REMARK                            x       y       z     vdW  Elec       q    Type
REMARK                         _______ _______ _______ _____ _____    ______ ____
ROOT
ATOM      1  N   UNL     1       3.741   3.482   3.529  0.00  0.00    -0.270 N 
ATOM      2  C   UNL     1       3.059   3.149   2.381  0.00  0.00    +0.136 C 
ATOM      3  N   UNL     1       3.102   2.019   1.748  0.00  0.00    -0.362 N 
ATOM      4  C   UNL     1       2.316   1.776   0.553  0.00  0.00    +0.117 C 
ATOM      5  C   UNL     1       1.436   0.523   0.776  0.00  0.00    +0.191 C 
ATOM      6  S   UNL     1      -0.094   0.962  -0.156  0.00  0.00    -0.028 S 
ATOM      7  O   UNL     1      -1.227   0.445   0.528  0.00  0.00    -0.174 OA
ATOM      8  O   UNL     1       0.092   0.669  -1.534  0.00  0.00    -0.174 OA
ATOM      9  C   UNL     1      -0.009   2.789   0.098  0.00  0.00    +0.182 C 
ATOM     10  C   UNL     1       1.516   3.011   0.115  0.00  0.00    +0.099 C 
ATOM     11  S   UNL     1       1.935   4.182   1.461  0.00  0.00    -0.085 S 
ATOM     12  H   UNL     1       3.750   1.209   2.113  0.00  0.00    +0.162 HD
ENDROOT
BRANCH   1  17
ATOM     13  C   UNL     1       2.437   6.237   5.588  0.00  0.00    +0.002 A 
ATOM     14  C   UNL     1       3.274   7.270   5.206  0.00  0.00    +0.003 A 
ATOM     15  C   UNL     1       4.266   7.050   4.268  0.00  0.00    +0.040 A 
ATOM     16  C   UNL     1       4.427   5.793   3.713  0.00  0.00    +0.145 A 
ATOM     17  C   UNL     1       3.584   4.755   4.092  0.00  0.00    +0.071 A 
ATOM     18  C   UNL     1       2.590   4.981   5.034  0.00  0.00    +0.026 A 
ATOM     19  F   UNL     1       5.400   5.577   2.800  0.00  0.00    -0.204 F 
ENDBRANCH   1  17
BRANCH   1  20
ATOM     20  C   UNL     1       4.631   2.506   4.162  0.00  0.00    +0.208 C 
BRANCH  20  21
ATOM     21  C   UNL     1       6.020   2.652   3.596  0.00  0.00    +0.235 C 
ATOM     22  O   UNL     1       6.244   3.489   2.747  0.00  0.00    -0.274 OA
ATOM     23  N   UNL     1       7.013   1.852   4.033  0.00  0.00    -0.284 N 
ATOM     24  H   UNL     1       6.832   1.153   4.863  0.00  0.00    +0.155 HD
BRANCH  23  25
ATOM     25  C   UNL     1       8.276   1.911   3.430  0.00  0.00    +0.034 A 
ATOM     26  C   UNL     1       8.387   2.186   2.074  0.00  0.00    +0.026 A 
ATOM     27  C   UNL     1       9.633   2.249   1.483  0.00  0.00    +0.040 A 
ATOM     28  C   UNL     1      10.772   2.027   2.240  0.00  0.00    +0.124 A 
ATOM     29  C   UNL     1      10.663   1.748   3.591  0.00  0.00    +0.040 A 
ATOM     30  C   UNL     1       9.418   1.689   4.188  0.00  0.00    +0.026 A 
ATOM     31  F   UNL     1      11.990   2.084   1.658  0.00  0.00    -0.205 F 
ENDBRANCH  23  25
ENDBRANCH  20  21
ENDBRANCH   1  20
TORSDOF 4
