REMARK  Name = ZINC36658485
REMARK  9 active torsions:
REMARK  status: ('A' for Active; 'I' for Inactive)
REMARK    1  A    between atoms: C_1  and  O_2
REMARK    2  A    between atoms: O_2  and  C_3
REMARK    3  A    between atoms: C_6  and  S_9
REMARK    4  A    between atoms: S_9  and  N_12
REMARK    5  A    between atoms: C_16  and  C_19
REMARK    6  A    between atoms: C_25  and  C_27
REMARK    7  A    between atoms: C_27  and  C_28
REMARK    8  A    between atoms: C_31  and  S_34
REMARK    9  A    between atoms: S_34  and  C_35
REMARK                            x       y       z     vdW  Elec       q    Type
REMARK                         _______ _______ _______ _____ _____    ______ ____
ROOT
ATOM      1  C   UNL     1      -1.521  -5.062   5.907  0.00  0.00    +0.225 C 
ATOM      2  O   UNL     1      -0.967  -6.137   5.991  0.00  0.00    -0.275 OA
ATOM      3  N   UNL     1      -2.866  -4.992   5.962  0.00  0.00    -0.238 N 
ATOM      4  C   UNL     1      -3.616  -6.149   6.114  0.00  0.00    +0.314 A 
ATOM      5  N   UNL     1      -3.149  -7.368   6.223  0.00  0.00    -0.092 NA
ATOM      6  N   UNL     1      -4.130  -8.190   6.350  0.00  0.00    -0.111 NA
ATOM      7  C   UNL     1      -5.253  -7.533   6.328  0.00  0.00    +0.223 A 
ATOM      8  O   UNL     1      -4.957  -6.228   6.184  0.00  0.00    -0.409 OA
ATOM      9  H   UNL     1      -3.310  -4.132   5.895  0.00  0.00    +0.159 HD
ENDROOT
BRANCH   1  14
ATOM     10  N   UNL     1       1.565  -2.916   5.681  0.00  0.00    -0.176 NA
ATOM     11  C   UNL     1       1.317  -1.900   6.712  0.00  0.00    +0.109 C 
ATOM     12  C   UNL     1      -0.179  -1.570   6.730  0.00  0.00    +0.018 C 
ATOM     13  C   UNL     1      -0.980  -2.861   6.915  0.00  0.00    +0.015 C 
ATOM     14  C   UNL     1      -0.707  -3.805   5.741  0.00  0.00    +0.091 C 
ATOM     15  C   UNL     1       0.778  -4.157   5.708  0.00  0.00    +0.122 C 
BRANCH  10  16
ATOM     16  S   UNL     1       2.704  -2.665   4.505  0.00  0.00    +0.061 S 
ATOM     17  O   UNL     1       3.098  -3.949   4.041  0.00  0.00    -0.153 OA
ATOM     18  O   UNL     1       3.632  -1.728   5.033  0.00  0.00    -0.153 OA
BRANCH  16  22
ATOM     19  C   UNL     1       0.626  -0.618   1.042  0.00  0.00    +0.120 A 
ATOM     20  C   UNL     1       1.202   0.138   2.051  0.00  0.00    +0.047 A 
ATOM     21  C   UNL     1       1.835  -0.488   3.107  0.00  0.00    +0.032 A 
ATOM     22  C   UNL     1       1.895  -1.869   3.158  0.00  0.00    +0.106 A 
ATOM     23  C   UNL     1       1.322  -2.625   2.152  0.00  0.00    +0.032 A 
ATOM     24  C   UNL     1       0.682  -2.003   1.098  0.00  0.00    +0.047 A 
BRANCH  19  26
ATOM     25  C   UNL     1      -0.017   1.425   0.010  0.00  0.00    +0.277 C 
ATOM     26  O   UNL     1       0.002  -0.004   0.002  0.00  0.00    -0.495 OA
ENDBRANCH  19  26
ENDBRANCH  16  22
ENDBRANCH  10  16
ENDBRANCH   1  14
BRANCH   7  27
ATOM     27  C   UNL     1      -6.634  -8.126   6.447  0.00  0.00    +0.132 C 
BRANCH  27  28
ATOM     28  C   UNL     1      -7.036  -8.175   7.899  0.00  0.00    -0.038 A 
ATOM     29  C   UNL     1      -6.737  -9.290   8.660  0.00  0.00    +0.005 A 
ATOM     30  C   UNL     1      -7.104  -9.339   9.990  0.00  0.00    +0.015 A 
ATOM     31  C   UNL     1      -7.774  -8.265  10.564  0.00  0.00    +0.008 A 
ATOM     32  C   UNL     1      -8.073  -7.146   9.796  0.00  0.00    +0.015 A 
ATOM     33  C   UNL     1      -7.698  -7.102   8.468  0.00  0.00    +0.005 A 
BRANCH  31  34
ATOM     34  S   UNL     1      -8.245  -8.323  12.261  0.00  0.00    -0.129 S 
ATOM     35  C   UNL     1      -9.071  -6.733  12.541  0.00  0.00    +0.090 C 
ENDBRANCH  31  34
ENDBRANCH  27  28
ENDBRANCH   7  27
TORSDOF 7
