REMARK  Name = ZINC20028433
REMARK  7 active torsions:
REMARK  status: ('A' for Active; 'I' for Inactive)
REMARK    1  A    between atoms: C_1  and  C_2
REMARK    2  A    between atoms: C_2  and  N_3
REMARK    3  A    between atoms: C_6  and  O_34
REMARK    4  A    between atoms: C_10  and  C_28
REMARK    5  A    between atoms: C_16  and  C_17
REMARK    6  A    between atoms: N_24  and  C_26
REMARK    7  A    between atoms: C_26  and  C_27
REMARK                            x       y       z     vdW  Elec       q    Type
REMARK                         _______ _______ _______ _____ _____    ______ ____
ROOT
ATOM      1  N   UNL     1       3.078   9.278   1.146  0.00  0.00    +0.380 N 
ATOM      2  C   UNL     1       1.822  10.011   1.351  0.00  0.00    -0.072 C 
ATOM      3  C   UNL     1       0.668   9.243   0.702  0.00  0.00    +0.060 C 
ATOM      4  C   UNL     1       0.574   7.850   1.327  0.00  0.00    +0.210 C 
ATOM      5  C   UNL     1       1.911   7.115   1.145  0.00  0.00    +0.056 C 
ATOM      6  C   UNL     1       3.028   7.952   1.773  0.00  0.00    -0.068 C 
ATOM      7  C   UNL     1       1.800   5.762   1.850  0.00  0.00    +0.057 C 
ATOM      8  C   UNL     1       0.521   5.071   1.435  0.00  0.00    -0.006 C 
ATOM      9  C   UNL     1      -0.487   5.753   0.893  0.00  0.00    +0.130 C 
ATOM     10  O   UNL     1      -0.432   7.089   0.655  0.00  0.00    -0.461 OA
ATOM     11  C   UNL     1      -1.729   5.043   0.515  0.00  0.00    +0.009 C 
ATOM     12  C   UNL     1      -2.839   5.719   0.168  0.00  0.00    +0.016 C 
ATOM     13  C   UNL     1      -1.708   3.530   0.534  0.00  0.00    +0.123 C 
ATOM     14  N   UNL     1      -0.955   3.126   1.736  0.00  0.00    -0.294 NA
ATOM     15  C   UNL     1       0.433   3.580   1.650  0.00  0.00    +0.119 C 
ATOM     16  H   UNL     1       3.206   9.132   0.063  0.00  0.00    -0.082 HD
ENDROOT
BRANCH  12  17
ATOM     17  C   UNL     1      -4.006   4.995  -0.363  0.00  0.00    -0.025 A 
ATOM     18  C   UNL     1      -3.827   3.842  -1.133  0.00  0.00    +0.008 A 
ATOM     19  C   UNL     1      -4.925   3.166  -1.623  0.00  0.00    +0.001 A 
ATOM     20  C   UNL     1      -6.202   3.633  -1.363  0.00  0.00    +0.000 A 
ATOM     21  C   UNL     1      -6.387   4.777  -0.606  0.00  0.00    +0.001 A 
ATOM     22  C   UNL     1      -5.299   5.460  -0.105  0.00  0.00    +0.008 A 
ENDBRANCH  12  17
BRANCH   7  23
ATOM     23  C   UNL     1       2.978   4.902   1.471  0.00  0.00    -0.040 A 
ATOM     24  C   UNL     1       3.192   4.567   0.147  0.00  0.00    +0.004 A 
ATOM     25  C   UNL     1       4.276   3.783  -0.201  0.00  0.00    +0.000 A 
ATOM     26  C   UNL     1       5.139   3.323   0.776  0.00  0.00    +0.000 A 
ATOM     27  C   UNL     1       4.922   3.653   2.101  0.00  0.00    +0.000 A 
ATOM     28  C   UNL     1       3.842   4.442   2.448  0.00  0.00    +0.004 A 
ENDBRANCH   7  23
BRANCH   1  30
ATOM     29  C   UNL     1       4.130  10.192   3.159  0.00  0.00    -0.017 C 
ATOM     30  C   UNL     1       4.225  10.052   1.639  0.00  0.00    -0.082 C 
ENDBRANCH   1  30
BRANCH  14  31
ATOM     31  C   UNL     1      -1.023   1.673   1.936  0.00  0.00    +0.082 C 
ATOM     32  C   UNL     1      -0.290   0.966   0.794  0.00  0.00    +0.020 C 
ENDBRANCH  14  31
BRANCH   4  33
ATOM     33  O   UNL     1       0.259   7.957   2.717  0.00  0.00    -0.355 OA
ATOM     34  H   UNL     1       0.152   7.049   3.328  0.00  0.00    +0.214 HD
ENDBRANCH   4  33
TORSDOF 5
