REMARK  Name = ZINC10103930
REMARK  12 active torsions:
REMARK  status: ('A' for Active; 'I' for Inactive)
REMARK    1  A    between atoms: C_1  and  C_2
REMARK    2  A    between atoms: C_2  and  C_3
REMARK    3  A    between atoms: C_3  and  C_4
REMARK    4  A    between atoms: C_4  and  C_5
REMARK    5  A    between atoms: C_5  and  C_6
REMARK    6  A    between atoms: C_6  and  N_7
REMARK    7  A    between atoms: C_16  and  C_23
REMARK    8  A    between atoms: N_17  and  C_18
REMARK    9  A    between atoms: C_18  and  C_20
REMARK   10  A    between atoms: C_18  and  C_21
REMARK   11  A    between atoms: C_21  and  C_22
REMARK   12  A    between atoms: N_24  and  C_27
REMARK                            x       y       z     vdW  Elec       q    Type
REMARK                         _______ _______ _______ _____ _____    ______ ____
ROOT
ATOM      1  N   UNL     1      -0.624   6.860   7.187  0.00  0.00    -0.259 N 
ATOM      2  C   UNL     1      -1.469   6.032   6.540  0.00  0.00    +0.283 A 
ATOM      3  O   UNL     1      -2.565   5.782   7.009  0.00  0.00    -0.265 OA
ATOM      4  C   UNL     1      -1.073   5.461   5.319  0.00  0.00    +0.157 A 
ATOM      5  C   UNL     1       0.192   5.753   4.811  0.00  0.00    +0.170 A 
ATOM      6  N   UNL     1       0.322   5.097   3.661  0.00  0.00    -0.193 NA
ATOM      7  C   UNL     1      -0.777   4.401   3.411  0.00  0.00    +0.218 A 
ATOM      8  N   UNL     1      -1.666   4.595   4.413  0.00  0.00    -0.277 N 
ATOM      9  C   UNL     1      -2.801   3.854   4.133  0.00  0.00    +0.116 A 
ATOM     10  C   UNL     1      -2.612   3.221   2.979  0.00  0.00    +0.036 A 
ATOM     11  N   UNL     1      -1.356   3.550   2.507  0.00  0.00    -0.311 N 
ATOM     12  C   UNL     1      -3.598   2.303   2.303  0.00  0.00    +0.065 C 
ATOM     13  N   UNL     1       1.018   6.608   5.526  0.00  0.00    -0.279 N 
ATOM     14  C   UNL     1       0.589   7.147   6.683  0.00  0.00    +0.333 A 
ATOM     15  O   UNL     1       1.323   7.898   7.295  0.00  0.00    -0.246 OA
ATOM     16  C   UNL     1       2.349   6.940   5.012  0.00  0.00    +0.155 C 
ENDROOT
BRANCH  11  17
ATOM     17  C   UNL     1      -0.749   3.069   1.264  0.00  0.00    +0.087 C 
ATOM     18  C   UNL     1       0.481   2.220   1.592  0.00  0.00    +0.031 C 
BRANCH  17  19
ATOM     19  C   UNL     1      -0.328   4.264   0.406  0.00  0.00    +0.021 C 
ATOM     20  C   UNL     1       0.191   3.766  -0.944  0.00  0.00    +0.006 C 
ENDBRANCH  17  19
ENDBRANCH  11  17
BRANCH   1  21
ATOM     21  C   UNL     1      -1.034   7.457   8.461  0.00  0.00    +0.130 C 
BRANCH  21  22
ATOM     22  C   UNL     1      -0.616   6.540   9.612  0.00  0.00    +0.022 C 
BRANCH  22  23
ATOM     23  C   UNL     1      -1.044   7.162  10.942  0.00  0.00    +0.002 C 
BRANCH  23  24
ATOM     24  C   UNL     1      -0.626   6.245  12.093  0.00  0.00    -0.000 C 
BRANCH  24  26
ATOM     25  C   UNL     1      -0.636   5.951  14.574  0.00  0.00    +0.004 C 
ATOM     26  C   UNL     1      -1.054   6.868  13.423  0.00  0.00    -0.003 C 
ENDBRANCH  24  26
ENDBRANCH  23  24
ENDBRANCH  22  23
ENDBRANCH  21  22
ENDBRANCH   1  21
TORSDOF 7
