REMARK  Name = ZINC44714211
REMARK  8 active torsions:
REMARK  status: ('A' for Active; 'I' for Inactive)
REMARK    1  A    between atoms: C_1  and  C_2
REMARK    2  A    between atoms: C_3  and  C_9
REMARK    3  A    between atoms: C_4  and  C_8
REMARK    4  A    between atoms: C_9  and  C_11
REMARK    5  A    between atoms: C_9  and  N_12
REMARK    6  A    between atoms: C_13  and  C_15
REMARK    7  A    between atoms: C_26  and  C_28
REMARK    8  A    between atoms: C_31  and  C_33
REMARK                            x       y       z     vdW  Elec       q    Type
REMARK                         _______ _______ _______ _____ _____    ______ ____
ROOT
ATOM      1  C   UNL     1      -2.476  -1.284  -5.532  0.00  0.00    +0.100 C 
ATOM      2  C   UNL     1      -3.760  -1.655  -4.756  0.00  0.00    +0.121 C 
ATOM      3  N   UNL     1      -4.716  -0.568  -5.072  0.00  0.00    -0.294 N 
ATOM      4  C   UNL     1      -4.484  -0.279  -6.507  0.00  0.00    +0.115 C 
ATOM      5  C   UNL     1      -2.956  -0.384  -6.683  0.00  0.00    -0.004 C 
ATOM      6  C   UNL     1      -2.622  -1.022  -8.027  0.00  0.00    -0.010 C 
ATOM      7  C   UNL     1      -3.056  -0.082  -9.155  0.00  0.00    -0.082 C 
ATOM      8  N   UNL     1      -2.364   1.205  -9.016  0.00  0.00    +0.379 N 
ATOM      9  C   UNL     1      -2.764   1.855  -7.762  0.00  0.00    -0.082 C 
ATOM     10  C   UNL     1      -2.317   0.997  -6.575  0.00  0.00    -0.010 C 
ATOM     11  C   UNL     1      -5.597   0.025  -4.241  0.00  0.00    +0.282 C 
ATOM     12  O   UNL     1      -6.321   0.912  -4.655  0.00  0.00    -0.267 OA
ATOM     13  H   UNL     1      -1.367   1.051  -9.010  0.00  0.00    -0.086 HD
ATOM     14  H   UNL     1      -2.605   1.801  -9.794  0.00  0.00    -0.086 HD
ENDROOT
BRANCH  11  15
ATOM     15  C   UNL     1      -5.683  -0.398  -2.842  0.00  0.00    +0.190 A 
ATOM     16  C   UNL     1      -6.538   0.117  -1.892  0.00  0.00    +0.055 A 
ATOM     17  C   UNL     1      -6.283  -0.574  -0.703  0.00  0.00    +0.051 A 
ATOM     18  C   UNL     1      -5.292  -1.475  -0.967  0.00  0.00    +0.139 A 
ATOM     19  O   UNL     1      -4.942  -1.365  -2.259  0.00  0.00    -0.450 OA
BRANCH  18  20
ATOM     20  C   UNL     1      -4.706  -2.420   0.006  0.00  0.00    +0.052 A 
ATOM     21  C   UNL     1      -4.270  -1.963   1.252  0.00  0.00    +0.014 A 
ATOM     22  C   UNL     1      -3.724  -2.851   2.155  0.00  0.00    +0.001 A 
ATOM     23  C   UNL     1      -3.607  -4.191   1.831  0.00  0.00    +0.003 A 
ATOM     24  C   UNL     1      -4.036  -4.652   0.600  0.00  0.00    +0.039 A 
ATOM     25  C   UNL     1      -4.591  -3.776  -0.314  0.00  0.00    +0.134 A 
ATOM     26  F   UNL     1      -5.016  -4.228  -1.514  0.00  0.00    -0.205 F 
ENDBRANCH  18  20
ENDBRANCH  11  15
BRANCH   1  28
ATOM     27  N   UNL     1      -0.196  -0.597  -4.864  0.00  0.00    -0.308 N 
ATOM     28  C   UNL     1      -1.523  -0.532  -4.639  0.00  0.00    +0.219 C 
ATOM     29  O   UNL     1      -1.950   0.133  -3.719  0.00  0.00    -0.275 OA
ATOM     30  H   UNL     1       0.146  -1.128  -5.601  0.00  0.00    +0.149 HD
BRANCH  27  31
ATOM     31  C   UNL     1       0.731   0.135  -3.997  0.00  0.00    +0.104 C 
ATOM     32  C   UNL     1       0.849   1.581  -4.482  0.00  0.00    +0.033 C 
BRANCH  31  35
ATOM     33  C   UNL     1       2.239  -0.800  -6.574  0.00  0.00    +0.065 C 
ATOM     34  C   UNL     1       2.738  -0.926  -5.158  0.00  0.00    +0.038 A 
ATOM     35  C   UNL     1       2.086  -0.522  -4.043  0.00  0.00    +0.015 A 
ATOM     36  C   UNL     1       2.893  -0.822  -2.940  0.00  0.00    +0.065 A 
ATOM     37  N   UNL     1       3.990  -1.385  -3.377  0.00  0.00    -0.179 NA
ATOM     38  N   UNL     1       3.913  -1.467  -4.774  0.00  0.00    -0.281 N 
ATOM     39  H   UNL     1       4.587  -1.844  -5.361  0.00  0.00    +0.189 HD
ATOM     40  C   UNL     1       2.557  -0.543  -1.498  0.00  0.00    +0.068 C 
ENDBRANCH  31  35
ENDBRANCH  27  31
ENDBRANCH   1  28
TORSDOF 5
