REMARK  Name = ZINC08869036
REMARK  9 active torsions:
REMARK  status: ('A' for Active; 'I' for Inactive)
REMARK    1  A    between atoms: C_1  and  C_2
REMARK    2  A    between atoms: N_11  and  C_12
REMARK    3  A    between atoms: C_12  and  C_13
REMARK    4  A    between atoms: C_13  and  N_60
REMARK    5  A    between atoms: C_14  and  N_60
REMARK    6  A    between atoms: C_15  and  N_60
REMARK    7  A    between atoms: C_16  and  C_18
REMARK    8  A    between atoms: N_23  and  S_24
REMARK    9  A    between atoms: S_24  and  C_27
REMARK                            x       y       z     vdW  Elec       q    Type
REMARK                         _______ _______ _______ _____ _____    ______ ____
ROOT
ATOM      1  C   UNL     1      -1.527   7.091   0.617  0.00  0.00    +0.044 C 
ATOM      2  C   UNL     1      -1.582   5.592   0.479  0.00  0.00    -0.049 A 
ATOM      3  C   UNL     1      -2.797   4.950   0.285  0.00  0.00    +0.005 A 
ATOM      4  C   UNL     1      -2.875   3.588   0.157  0.00  0.00    +0.029 A 
ATOM      5  C   UNL     1      -1.710   2.788   0.219  0.00  0.00    +0.080 A 
ATOM      6  C   UNL     1      -0.491   3.476   0.418  0.00  0.00    +0.041 A 
ATOM      7  C   UNL     1      -0.423   4.841   0.546  0.00  0.00    +0.020 A 
ATOM      8  S   UNL     1       0.693   2.151   0.436  0.00  0.00    -0.052 S 
ATOM      9  C   UNL     1      -0.465   0.813   0.186  0.00  0.00    +0.168 A 
ATOM     10  N   UNL     1      -1.612   1.446   0.106  0.00  0.00    -0.224 NA
ATOM     11  N   UNL     1      -0.215  -0.547   0.095  0.00  0.00    -0.251 N 
ATOM     12  C   UNL     1       1.047  -1.008   0.197  0.00  0.00    +0.240 C 
ATOM     13  O   UNL     1       1.952  -0.246   0.462  0.00  0.00    -0.273 OA
ENDROOT
BRANCH  12  14
ATOM     14  C   UNL     1       1.334  -2.472  -0.019  0.00  0.00    +0.166 C 
ATOM     15  C   UNL     1       1.240  -3.228   1.323  0.00  0.00    +0.031 C 
ATOM     16  C   UNL     1       2.403  -4.255   1.222  0.00  0.00    +0.019 C 
ATOM     17  C   UNL     1       3.470  -3.444   0.446  0.00  0.00    +0.110 C 
ATOM     18  N   UNL     1       2.703  -2.644  -0.526  0.00  0.00    -0.165 NA
BRANCH  18  19
ATOM     19  S   UNL     1       3.287  -2.039  -1.953  0.00  0.00    +0.062 S 
ATOM     20  O   UNL     1       4.293  -2.940  -2.394  0.00  0.00    -0.153 OA
ATOM     21  O   UNL     1       2.156  -1.711  -2.748  0.00  0.00    -0.153 OA
BRANCH  19  22
ATOM     22  C   UNL     1       4.099  -0.520  -1.581  0.00  0.00    +0.106 A 
ATOM     23  C   UNL     1       3.422   0.677  -1.718  0.00  0.00    +0.030 A 
ATOM     24  C   UNL     1       4.056   1.869  -1.421  0.00  0.00    +0.022 A 
ATOM     25  C   UNL     1       5.374   1.863  -0.999  0.00  0.00    +0.041 A 
ATOM     26  C   UNL     1       6.053   0.665  -0.868  0.00  0.00    +0.022 A 
ATOM     27  C   UNL     1       5.415  -0.526  -1.159  0.00  0.00    +0.030 A 
ATOM     28 CL   UNL     1       6.174   3.360  -0.632  0.00  0.00    -0.084 Cl
ENDBRANCH  19  22
ENDBRANCH  18  19
ENDBRANCH  12  14
BRANCH  11  29
ATOM     29  C   UNL     1      -1.323  -1.483  -0.114  0.00  0.00    +0.097 C 
BRANCH  29  30
ATOM     30  C   UNL     1      -1.584  -1.638  -1.613  0.00  0.00    -0.060 C 
BRANCH  30  33
ATOM     31  C   UNL     1      -3.954  -2.026  -1.303  0.00  0.00    -0.097 C 
ATOM     32  C   UNL     1      -2.822  -2.934  -3.241  0.00  0.00    -0.097 C 
ATOM     33  N   UNL     1      -2.689  -2.601  -1.808  0.00  0.00    +0.377 N 
ATOM     34  H   UNL     1      -2.480  -3.459  -1.284  0.00  0.00    -0.083 HD
ENDBRANCH  30  33
ENDBRANCH  29  30
ENDBRANCH  11  29
TORSDOF 6
