REMARK  Name = ZINC33053996
REMARK  3 active torsions:
REMARK  status: ('A' for Active; 'I' for Inactive)
REMARK    1  A    between atoms: C_7  and  C_13
REMARK    2  A    between atoms: N_15  and  C_16
REMARK    3  A    between atoms: C_16  and  C_17
REMARK                            x       y       z     vdW  Elec       q    Type
REMARK                         _______ _______ _______ _____ _____    ______ ____
ROOT
ATOM      1  C   UNL     1      -3.642  -0.938   0.033  0.00  0.00    +0.001 A 
ATOM      2  C   UNL     1      -3.550  -2.324   0.024  0.00  0.00    +0.001 A 
ATOM      3  C   UNL     1      -2.322  -2.949   0.009  0.00  0.00    +0.014 A 
ATOM      4  C   UNL     1      -1.164  -2.177   0.001  0.00  0.00    +0.050 A 
ATOM      5  C   UNL     1      -1.257  -0.766   0.016  0.00  0.00    +0.020 A 
ATOM      6  C   UNL     1      -2.507  -0.156   0.026  0.00  0.00    +0.011 A 
ATOM      7  C   UNL     1       0.002  -0.004   0.002  0.00  0.00    +0.153 A 
ATOM      8  N   UNL     1       1.142  -0.652  -0.012  0.00  0.00    -0.166 NA
ATOM      9  N   UNL     1       1.245  -1.927  -0.020  0.00  0.00    -0.242 N 
ATOM     10  H   UNL     1       2.239  -2.398  -0.032  0.00  0.00    +0.192 HD
ATOM     11  C   UNL     1       0.184  -2.760  -0.015  0.00  0.00    +0.272 A 
ATOM     12  O   UNL     1       0.341  -3.968  -0.022  0.00  0.00    -0.266 OA
ENDROOT
BRANCH   7  13
ATOM     13  C   UNL     1      -0.018   1.472   0.010  0.00  0.00    +0.265 C 
ATOM     14  O   UNL     1      -1.079   2.066   0.018  0.00  0.00    -0.268 OA
ATOM     15  N   UNL     1       1.140   2.162   0.003  0.00  0.00    -0.310 N 
ATOM     16  H   UNL     1       2.100   1.625  -0.009  0.00  0.00    +0.149 HD
BRANCH  15  17
ATOM     17  C   UNL     1       1.120   3.627   0.011  0.00  0.00    +0.108 C 
BRANCH  17  18
ATOM     18  C   UNL     1       2.555   4.156   0.000  0.00  0.00    +0.006 C 
ATOM     19  C   UNL     1       3.253   3.819   1.334  0.00  0.00    +0.005 C 
ATOM     20  C   UNL     1       4.136   5.058   1.624  0.00  0.00    +0.000 C 
ATOM     21  C   UNL     1       3.245   6.232   1.149  0.00  0.00    +0.000 C 
ATOM     22  C   UNL     1       2.550   5.691  -0.118  0.00  0.00    +0.005 C 
ENDBRANCH  17  18
ENDBRANCH  15  17
ENDBRANCH   7  13
TORSDOF 3
