REMARK  Name = ZINC38666273
REMARK  12 active torsions:
REMARK  status: ('A' for Active; 'I' for Inactive)
REMARK    1  A    between atoms: C_1  and  C_2
REMARK    2  A    between atoms: C_5  and  N_9
REMARK    3  A    between atoms: C_6  and  C_8
REMARK    4  A    between atoms: C_10  and  C_12
REMARK    5  A    between atoms: N_14  and  C_15
REMARK    6  A    between atoms: C_15  and  C_16
REMARK    7  A    between atoms: C_16  and  C_18
REMARK    8  A    between atoms: C_16  and  N_27
REMARK    9  A    between atoms: C_21  and  N_24
REMARK   10  A    between atoms: N_24  and  C_25
REMARK   11  A    between atoms: N_24  and  C_26
REMARK   12  A    between atoms: N_30  and  C_33
REMARK                            x       y       z     vdW  Elec       q    Type
REMARK                         _______ _______ _______ _____ _____    ______ ____
ROOT
ATOM      1  C   UNL     1      -0.284  -8.967  -3.814  0.00  0.00    +0.104 C 
ENDROOT
BRANCH   1   2
ATOM      2  C   UNL     1      -0.601 -10.166  -4.671  0.00  0.00    -0.029 A 
ATOM      3  C   UNL     1      -1.445 -10.032  -5.759  0.00  0.00    +0.007 A 
ATOM      4  C   UNL     1      -1.737 -11.128  -6.546  0.00  0.00    +0.023 A 
ATOM      5  C   UNL     1      -1.183 -12.366  -6.245  0.00  0.00    +0.029 A 
ATOM      6  C   UNL     1      -0.336 -12.496  -5.152  0.00  0.00    +0.023 A 
ATOM      7  C   UNL     1      -0.043 -11.395  -4.372  0.00  0.00    +0.007 A 
BRANCH   5   8
ATOM      8  N   UNL     1      -1.477 -13.477  -7.039  0.00  0.00    -0.336 N 
ATOM      9  C   UNL     1      -2.371 -13.337  -8.191  0.00  0.00    +0.129 C 
ATOM     10  C   UNL     1      -0.892 -14.781  -6.720  0.00  0.00    +0.129 C 
ENDBRANCH   5   8
ENDBRANCH   1   2
BRANCH   1  11
ATOM     11  N   UNL     1       0.560  -8.033  -4.572  0.00  0.00    -0.291 NA
ATOM     12  C   UNL     1       1.907  -8.584  -4.770  0.00  0.00    +0.104 C 
ATOM     13  C   UNL     1       2.805  -7.513  -5.400  0.00  0.00    +0.120 C 
ATOM     14  N   UNL     1       2.151  -7.014  -6.619  0.00  0.00    -0.327 N 
ATOM     15  C   UNL     1       0.751  -6.572  -6.527  0.00  0.00    +0.120 C 
ATOM     16  C   UNL     1      -0.065  -7.679  -5.853  0.00  0.00    +0.104 C 
BRANCH  14  17
ATOM     17  C   UNL     1       2.842  -6.960  -7.834  0.00  0.00    +0.030 A 
ATOM     18  C   UNL     1       2.252  -6.372  -8.944  0.00  0.00    +0.026 A 
ATOM     19  C   UNL     1       2.936  -6.319 -10.143  0.00  0.00    +0.040 A 
ATOM     20  C   UNL     1       4.211  -6.853 -10.237  0.00  0.00    +0.124 A 
ATOM     21  C   UNL     1       4.801  -7.440  -9.131  0.00  0.00    +0.040 A 
ATOM     22  C   UNL     1       4.123  -7.489  -7.929  0.00  0.00    +0.026 A 
ATOM     23  F   UNL     1       4.878  -6.801 -11.411  0.00  0.00    -0.205 F 
ENDBRANCH  14  17
ENDBRANCH   1  11
BRANCH   1  24
ATOM     24  C   UNL     1      -1.585  -8.269  -3.413  0.00  0.00    +0.128 C 
BRANCH  24  27
ATOM     25  C   UNL     1      -2.270  -6.353  -2.073  0.00  0.00    +0.299 C 
ATOM     26  O   UNL     1      -3.425  -6.691  -2.233  0.00  0.00    -0.265 OA
ATOM     27  N   UNL     1      -1.274  -7.075  -2.623  0.00  0.00    -0.306 N 
ATOM     28  H   UNL     1      -0.351  -6.804  -2.495  0.00  0.00    +0.149 HD
BRANCH  25  30
ATOM     29  N   UNL     1      -2.950  -4.413  -0.718  0.00  0.00    -0.278 N 
ATOM     30  C   UNL     1      -1.954  -5.135  -1.268  0.00  0.00    +0.303 C 
ATOM     31  O   UNL     1      -0.799  -4.797  -1.108  0.00  0.00    -0.265 OA
ATOM     32  H   UNL     1      -3.866  -4.725  -0.780  0.00  0.00    +0.155 HD
BRANCH  29  37
ATOM     33  C   UNL     1      -1.784   0.451   1.956  0.00  0.00    +0.044 C 
ATOM     34  C   UNL     1      -2.094  -0.842   1.245  0.00  0.00    -0.050 A 
ATOM     35  C   UNL     1      -1.194  -1.891   1.299  0.00  0.00    +0.005 A 
ATOM     36  C   UNL     1      -1.475  -3.077   0.649  0.00  0.00    +0.024 A 
ATOM     37  C   UNL     1      -2.663  -3.215  -0.059  0.00  0.00    +0.037 A 
ATOM     38  C   UNL     1      -3.564  -2.159  -0.110  0.00  0.00    -0.029 A 
ATOM     39  C   UNL     1      -3.279  -0.978   0.546  0.00  0.00    +0.008 A 
ATOM     40  C   UNL     1      -4.853  -2.304  -0.877  0.00  0.00    +0.045 C 
ENDBRANCH  29  37
ENDBRANCH  25  30
ENDBRANCH  24  27
ENDBRANCH   1  24
TORSDOF 8
