REMARK  Name = ZINC20497254
REMARK  9 active torsions:
REMARK  status: ('A' for Active; 'I' for Inactive)
REMARK    1  A    between atoms: C_1  and  C_2
REMARK    2  A    between atoms: N_5  and  C_8
REMARK    3  A    between atoms: C_11  and  N_35
REMARK    4  A    between atoms: C_13  and  C_14
REMARK    5  A    between atoms: N_16  and  C_17
REMARK    6  A    between atoms: C_22  and  N_23
REMARK    7  A    between atoms: C_29  and  C_31
REMARK    8  A    between atoms: C_31  and  C_32
REMARK    9  A    between atoms: C_31  and  C_33
REMARK                            x       y       z     vdW  Elec       q    Type
REMARK                         _______ _______ _______ _____ _____    ______ ____
ROOT
ATOM      1  C   UNL     1      -2.340   1.640  -0.612  0.00  0.00    +0.250 C 
ATOM      2  O   UNL     1      -2.252   0.562  -1.166  0.00  0.00    -0.270 OA
ATOM      3  N   UNL     1      -1.349   2.065   0.198  0.00  0.00    -0.280 N 
ATOM      4  H   UNL     1      -1.464   3.002   0.761  0.00  0.00    +0.155 HD
ENDROOT
BRANCH   3   5
ATOM      5  C   UNL     1      -0.174   1.312   0.321  0.00  0.00    +0.056 A 
ATOM      6  C   UNL     1      -0.225  -0.072   0.253  0.00  0.00    +0.045 A 
ATOM      7  C   UNL     1       0.937  -0.813   0.369  0.00  0.00    +0.043 A 
ATOM      8  C   UNL     1       2.152  -0.177   0.554  0.00  0.00    +0.022 A 
ATOM      9  C   UNL     1       2.211   1.202   0.623  0.00  0.00    +0.026 A 
ATOM     10  C   UNL     1       1.050   1.953   0.507  0.00  0.00    +0.051 A 
ATOM     11 CL   UNL     1       0.871  -2.546   0.283  0.00  0.00    -0.083 Cl
BRANCH  10  12
ATOM     12  N   UNL     1       1.108   3.349   0.576  0.00  0.00    -0.325 N 
ATOM     13  C   UNL     1       1.877   3.901  -0.547  0.00  0.00    +0.124 C 
ATOM     14  C   UNL     1       1.765   5.429  -0.538  0.00  0.00    +0.126 C 
ATOM     15  N   UNL     1       2.166   5.918   0.790  0.00  0.00    -0.298 N 
ATOM     16  C   UNL     1       1.537   5.314   1.974  0.00  0.00    +0.126 C 
ATOM     17  C   UNL     1       1.658   3.790   1.865  0.00  0.00    +0.124 C 
ATOM     18  C   UNL     1       3.087   6.894   0.918  0.00  0.00    +0.218 C 
ATOM     19  O   UNL     1       3.473   7.223   2.020  0.00  0.00    -0.275 OA
BRANCH  18  20
ATOM     20  C   UNL     1       3.636   7.578  -0.307  0.00  0.00    +0.069 C 
ATOM     21  C   UNL     1       4.117   8.982   0.064  0.00  0.00    +0.017 C 
ATOM     22  C   UNL     1       4.809   6.767  -0.861  0.00  0.00    +0.017 C 
ENDBRANCH  18  20
ENDBRANCH  10  12
ENDBRANCH   3   5
BRANCH   1  28
ATOM     23  C   UNL     1      -4.611   2.002  -1.580  0.00  0.00    +0.042 A 
ATOM     24  C   UNL     1      -5.729   2.804  -1.768  0.00  0.00    +0.026 A 
ATOM     25  C   UNL     1      -5.771   4.071  -1.224  0.00  0.00    +0.034 A 
ATOM     26  C   UNL     1      -4.703   4.551  -0.481  0.00  0.00    +0.127 A 
ATOM     27  C   UNL     1      -3.588   3.769  -0.279  0.00  0.00    +0.047 A 
ATOM     28  C   UNL     1      -3.530   2.483  -0.824  0.00  0.00    +0.060 A 
BRANCH  23  33
ATOM     29  C   UNL     1      -5.275  -2.950  -4.189  0.00  0.00    +0.007 C 
ATOM     30  C   UNL     1      -5.502  -1.530  -3.669  0.00  0.00    -0.011 C 
ATOM     31  C   UNL     1      -4.382  -0.615  -4.172  0.00  0.00    +0.022 C 
ATOM     32  C   UNL     1      -4.580   0.790  -3.599  0.00  0.00    +0.105 C 
ATOM     33  N   UNL     1      -4.564   0.729  -2.132  0.00  0.00    -0.329 N 
ATOM     34  C   UNL     1      -5.660  -0.106  -1.623  0.00  0.00    +0.105 C 
ATOM     35  C   UNL     1      -5.493  -1.538  -2.138  0.00  0.00    +0.022 C 
ENDBRANCH  23  33
BRANCH  26  36
ATOM     36  N   UNL     1      -4.762   5.913   0.097  0.00  0.00    +0.056 N 
ATOM     37  O   UNL     1      -3.826   6.338   0.750  0.00  0.00    -0.126 OA
ATOM     38  O   UNL     1      -5.747   6.608  -0.080  0.00  0.00    -0.126 OA
ENDBRANCH  26  36
ENDBRANCH   1  28
TORSDOF 6
