REMARK  Name = ZINC40986153
REMARK  10 active torsions:
REMARK  status: ('A' for Active; 'I' for Inactive)
REMARK    1  A    between atoms: C_1  and  C_2
REMARK    2  A    between atoms: C_2  and  C_3
REMARK    3  A    between atoms: C_3  and  S_4
REMARK    4  A    between atoms: S_4  and  C_7
REMARK    5  A    between atoms: C_10  and  C_14
REMARK    6  A    between atoms: N_16  and  C_17
REMARK    7  A    between atoms: C_17  and  C_18
REMARK    8  A    between atoms: C_18  and  C_20
REMARK    9  A    between atoms: C_18  and  N_27
REMARK   10  A    between atoms: C_23  and  C_26
REMARK                            x       y       z     vdW  Elec       q    Type
REMARK                         _______ _______ _______ _____ _____    ______ ____
ROOT
ATOM      1  C   UNL     1       5.490  -2.849  -8.101  0.00  0.00    +0.248 C 
ATOM      2  O   UNL     1       5.502  -3.324  -6.982  0.00  0.00    -0.270 OA
ATOM      3  N   UNL     1       4.535  -3.215  -8.978  0.00  0.00    -0.312 N 
ATOM      4  H   UNL     1       4.525  -2.836  -9.871  0.00  0.00    +0.149 HD
ENDROOT
BRANCH   1   8
ATOM      5  C   UNL     1       8.395  -0.094  -9.220  0.00  0.00    +0.272 A 
ATOM      6  N   UNL     1       7.470  -0.438 -10.095  0.00  0.00    -0.219 NA
ATOM      7  C   UNL     1       6.528  -1.311  -9.781  0.00  0.00    +0.130 A 
ATOM      8  C   UNL     1       6.523  -1.870  -8.499  0.00  0.00    +0.092 A 
ATOM      9  C   UNL     1       7.525  -1.475  -7.602  0.00  0.00    +0.146 A 
ATOM     10  N   UNL     1       8.432  -0.599  -8.003  0.00  0.00    -0.199 NA
ATOM     11 CL   UNL     1       7.580  -2.128  -5.995  0.00  0.00    -0.061 Cl
BRANCH   5  12
ATOM     12  S   UNL     1       9.626   1.074  -9.697  0.00  0.00    +0.032 S 
ATOM     13  O   UNL     1      10.045   1.675  -8.480  0.00  0.00    -0.166 OA
ATOM     14  O   UNL     1       9.013   1.851 -10.716  0.00  0.00    -0.166 OA
BRANCH  12  15
ATOM     15  C   UNL     1      10.970   0.075 -10.396  0.00  0.00    +0.175 C 
BRANCH  15  17
ATOM     16  C   UNL     1      13.239   0.153 -11.438  0.00  0.00    +0.005 C 
ATOM     17  C   UNL     1      12.106   0.995 -10.848  0.00  0.00    +0.020 C 
ENDBRANCH  15  17
ENDBRANCH  12  15
ENDBRANCH   5  12
ENDBRANCH   1   8
BRANCH   3  18
ATOM     18  C   UNL     1       3.511  -4.186  -8.583  0.00  0.00    +0.094 C 
BRANCH  18  19
ATOM     19  C   UNL     1       2.495  -4.344  -9.716  0.00  0.00    -0.020 C 
BRANCH  19  20
ATOM     20  C   UNL     1       3.170  -4.961 -10.914  0.00  0.00    -0.059 A 
ATOM     21  C   UNL     1       3.378  -6.327 -10.963  0.00  0.00    +0.002 A 
ATOM     22  C   UNL     1       3.998  -6.892 -12.062  0.00  0.00    +0.003 A 
ATOM     23  C   UNL     1       4.409  -6.092 -13.112  0.00  0.00    -0.050 A 
ATOM     24  C   UNL     1       4.199  -4.726 -13.063  0.00  0.00    +0.003 A 
ATOM     25  C   UNL     1       3.576  -4.161 -11.966  0.00  0.00    +0.002 A 
ATOM     26  C   UNL     1       5.085  -6.709 -14.309  0.00  0.00    +0.044 C 
ENDBRANCH  19  20
BRANCH  19  27
ATOM     27  N   UNL     1       1.397  -5.213  -9.271  0.00  0.00    +0.385 N 
ATOM     28  C   UNL     1       0.674  -4.585  -8.136  0.00  0.00    -0.078 C 
ATOM     29  C   UNL     1      -0.708  -5.284  -8.166  0.00  0.00    -0.020 C 
ATOM     30  C   UNL     1      -0.986  -5.437  -9.679  0.00  0.00    -0.020 C 
ATOM     31  C   UNL     1       0.398  -5.366 -10.351  0.00  0.00    -0.078 C 
ATOM     32  H   UNL     1       1.756  -6.116  -8.999  0.00  0.00    -0.081 HD
ENDBRANCH  19  27
ENDBRANCH  18  19
ENDBRANCH   3  18
TORSDOF 8
