REMARK  Name = ZINC67231566
REMARK  14 active torsions:
REMARK  status: ('A' for Active; 'I' for Inactive)
REMARK    1  A    between atoms: C_1  and  C_2
REMARK    2  A    between atoms: C_2  and  C_3
REMARK    3  A    between atoms: C_3  and  C_4
REMARK    4  A    between atoms: C_4  and  C_5
REMARK    5  A    between atoms: C_5  and  C_7
REMARK    6  A    between atoms: C_5  and  S_11
REMARK    7  A    between atoms: C_7  and  O_9
REMARK    8  A    between atoms: O_9  and  C_10
REMARK    9  A    between atoms: S_11  and  C_12
REMARK   10  A    between atoms: C_15  and  C_21
REMARK   11  A    between atoms: N_16  and  C_17
REMARK   12  A    between atoms: C_17  and  C_18
REMARK   13  A    between atoms: C_18  and  O_19
REMARK   14  A    between atoms: O_19  and  C_20
REMARK                            x       y       z     vdW  Elec       q    Type
REMARK                         _______ _______ _______ _____ _____    ______ ____
ROOT
ATOM      1  C   UNL     1       3.892  -2.558  -3.996  0.00  0.00    +0.193 A 
ATOM      2  N   UNL     1       3.232  -3.274  -4.881  0.00  0.00    -0.122 NA
ATOM      3  N   UNL     1       3.933  -3.408  -5.950  0.00  0.00    -0.128 NA
ATOM      4  C   UNL     1       5.082  -2.788  -5.813  0.00  0.00    +0.165 A 
ATOM      5  N   UNL     1       5.088  -2.221  -4.559  0.00  0.00    -0.300 N 
ENDROOT
BRANCH   4   6
ATOM      6  C   UNL     1       6.163  -2.709  -6.818  0.00  0.00    +0.022 A 
ATOM      7  C   UNL     1       5.910  -2.973  -8.169  0.00  0.00    +0.031 A 
ATOM      8  C   UNL     1       6.948  -2.888  -9.073  0.00  0.00    +0.111 A 
ATOM      9  N   UNL     1       8.165  -2.564  -8.678  0.00  0.00    -0.263 NA
ATOM     10  C   UNL     1       8.447  -2.308  -7.415  0.00  0.00    +0.111 A 
ATOM     11  C   UNL     1       7.468  -2.364  -6.445  0.00  0.00    +0.031 A 
ENDBRANCH   4   6
BRANCH   1  12
ATOM     12  S   UNL     1       3.333  -2.113  -2.385  0.00  0.00    -0.071 S 
BRANCH  12  13
ATOM     13  C   UNL     1       1.689  -2.871  -2.267  0.00  0.00    +0.163 C 
BRANCH  13  14
ATOM     14  C   UNL     1       1.823  -4.372  -2.310  0.00  0.00    +0.320 C 
ATOM     15  O   UNL     1       1.442  -4.985  -3.279  0.00  0.00    -0.250 OA
BRANCH  14  16
ATOM     16  O   UNL     1       2.367  -5.027  -1.272  0.00  0.00    -0.467 OA
ATOM     17  C   UNL     1       2.463  -6.449  -1.381  0.00  0.00    +0.280 C 
ENDBRANCH  14  16
ENDBRANCH  13  14
BRANCH  13  18
ATOM     18  C   UNL     1       1.029  -2.456  -0.951  0.00  0.00    +0.026 C 
BRANCH  18  19
ATOM     19  C   UNL     1       0.779  -0.947  -0.959  0.00  0.00    +0.001 C 
BRANCH  19  21
ATOM     20  C   UNL     1      -0.130   0.978   0.348  0.00  0.00    +0.004 C 
ATOM     21  C   UNL     1       0.120  -0.531   0.357  0.00  0.00    -0.003 C 
ENDBRANCH  19  21
ENDBRANCH  18  19
ENDBRANCH  13  18
ENDBRANCH  12  13
ENDBRANCH   1  12
BRANCH   5  22
ATOM     22  C   UNL     1       6.158  -1.423  -3.954  0.00  0.00    +0.154 C 
BRANCH  22  23
ATOM     23  C   UNL     1       7.077  -2.336  -3.139  0.00  0.00    +0.181 C 
BRANCH  23  24
ATOM     24  O   UNL     1       8.120  -1.557  -2.549  0.00  0.00    -0.381 OA
ATOM     25  C   UNL     1       9.038  -2.318  -1.763  0.00  0.00    +0.194 C 
ENDBRANCH  23  24
ENDBRANCH  22  23
ENDBRANCH   5  22
TORSDOF 11
