REMARK  Name = ZINC65461403
REMARK  7 active torsions:
REMARK  status: ('A' for Active; 'I' for Inactive)
REMARK    1  A    between atoms: C_1  and  C_2
REMARK    2  A    between atoms: C_4  and  C_26
REMARK    3  A    between atoms: C_6  and  N_8
REMARK    4  A    between atoms: C_9  and  C_17
REMARK    5  A    between atoms: C_12  and  C_14
REMARK    6  A    between atoms: C_17  and  C_18
REMARK    7  A    between atoms: C_18  and  C_19
REMARK                            x       y       z     vdW  Elec       q    Type
REMARK                         _______ _______ _______ _____ _____    ______ ____
ROOT
ATOM      1  N   UNL     1       0.051  -2.796   2.388  0.00  0.00    -0.203 N 
ATOM      2  C   UNL     1       0.043  -2.230   3.748  0.00  0.00    +0.183 C 
ATOM      3  N   UNL     1       0.065  -3.417   4.621  0.00  0.00    -0.311 N 
ATOM      4  C   UNL     1       0.082  -4.521   3.786  0.00  0.00    +0.118 C 
ATOM      5  N   UNL     1       0.069  -4.188   2.547  0.00  0.00    -0.167 NA
ATOM      6  H   UNL     1       0.067  -3.423   5.591  0.00  0.00    +0.149 HD
ENDROOT
BRANCH   1  12
ATOM      7  C   UNL     1      -0.018   1.503   0.010  0.00  0.00    +0.044 C 
ATOM      8  C   UNL     1       0.002  -0.004   0.002  0.00  0.00    -0.048 A 
ATOM      9  C   UNL     1       0.006  -0.688  -1.200  0.00  0.00    +0.006 A 
ATOM     10  C   UNL     1       0.024  -2.071  -1.213  0.00  0.00    -0.048 A 
ATOM     11  C   UNL     1       0.040  -2.774  -0.025  0.00  0.00    +0.028 A 
ATOM     12  C   UNL     1       0.036  -2.090   1.186  0.00  0.00    +0.054 A 
ATOM     13  C   UNL     1       0.023  -0.700   1.194  0.00  0.00    +0.028 A 
ATOM     14  C   UNL     1       0.028  -2.812  -2.525  0.00  0.00    +0.044 C 
ENDBRANCH   1  12
BRANCH   4  15
ATOM     15  C   UNL     1       0.107  -5.946   4.275  0.00  0.00    +0.054 C 
ATOM     16  C   UNL     1       1.059  -6.917   3.573  0.00  0.00    +0.012 C 
ATOM     17  C   UNL     1      -0.449  -7.023   3.341  0.00  0.00    +0.012 C 
ENDBRANCH   4  15
BRANCH   2  18
ATOM     18  C   UNL     1       1.286  -1.367   3.978  0.00  0.00    +0.050 C 
BRANCH  18  19
ATOM     19  C   UNL     1       1.253  -0.793   5.396  0.00  0.00    +0.060 C 
BRANCH  19  20
ATOM     20  C   UNL     1       2.476   0.057   5.622  0.00  0.00    +0.062 A 
ATOM     21  C   UNL     1       2.664   0.693   6.861  0.00  0.00    +0.030 A 
ATOM     22  C   UNL     1       3.784   1.456   7.034  0.00  0.00    +0.073 A 
ATOM     23  C   UNL     1       4.685   1.558   5.952  0.00  0.00    +0.265 A 
ATOM     24  O   UNL     1       5.700   2.227   6.056  0.00  0.00    -0.266 OA
ATOM     25  N   UNL     1       4.413   0.909   4.804  0.00  0.00    -0.243 N 
ATOM     26  N   UNL     1       3.355   0.193   4.668  0.00  0.00    -0.176 NA
ATOM     27  H   UNL     1       5.033   0.980   4.061  0.00  0.00    +0.192 HD
ENDBRANCH  19  20
ENDBRANCH  18  19
ENDBRANCH   2  18
TORSDOF 5
