REMARK  Name = ZINC01456279
REMARK  13 active torsions:
REMARK  status: ('A' for Active; 'I' for Inactive)
REMARK    1  A    between atoms: C_1  and  C_2
REMARK    2  A    between atoms: C_2  and  O_3
REMARK    3  A    between atoms: O_3  and  C_4
REMARK    4  A    between atoms: C_4  and  C_6
REMARK    5  A    between atoms: C_7  and  C_36
REMARK    6  A    between atoms: C_11  and  C_13
REMARK    7  A    between atoms: C_15  and  O_23
REMARK    8  A    between atoms: C_16  and  O_21
REMARK    9  A    between atoms: C_18  and  O_19
REMARK   10  A    between atoms: O_19  and  C_20
REMARK   11  A    between atoms: O_21  and  C_22
REMARK   12  A    between atoms: O_23  and  C_24
REMARK   13  A    between atoms: C_28  and  C_31
REMARK                            x       y       z     vdW  Elec       q    Type
REMARK                         _______ _______ _______ _____ _____    ______ ____
ROOT
ATOM      1  C   UNL     1      -6.991   1.239   1.994  0.00  0.00    +0.065 C 
ATOM      2  C   UNL     1      -7.396   1.627   3.216  0.00  0.00    +0.016 C 
ATOM      3  N   UNL     1      -7.029   0.917   4.325  0.00  0.00    -0.321 N 
ATOM      4  C   UNL     1      -6.599  -0.379   4.214  0.00  0.00    +0.016 C 
ATOM      5  C   UNL     1      -6.164  -0.857   3.029  0.00  0.00    +0.024 C 
ATOM      6  C   UNL     1      -6.125   0.028   1.809  0.00  0.00    +0.096 C 
ATOM      7  C   UNL     1      -5.735  -2.189   2.898  0.00  0.00    +0.162 C 
ATOM      8  O   UNL     1      -5.342  -2.586   1.819  0.00  0.00    -0.292 OA
ATOM      9  C   UNL     1      -5.753  -3.133   4.070  0.00  0.00    +0.088 C 
ATOM     10  C   UNL     1      -6.864  -2.708   5.035  0.00  0.00    +0.039 C 
ATOM     11  C   UNL     1      -6.622  -1.252   5.444  0.00  0.00    +0.060 C 
ATOM     12  C   UNL     1      -8.259   2.853   3.365  0.00  0.00    +0.061 C 
ATOM     13  H   UNL     1      -7.078   1.385   5.319  0.00  0.00    +0.152 HD
ENDROOT
BRANCH   6  14
ATOM     14  C   UNL     1      -4.705   0.469   1.561  0.00  0.00    +0.010 A 
ATOM     15  C   UNL     1      -4.039   1.219   2.513  0.00  0.00    +0.057 A 
ATOM     16  C   UNL     1      -2.735   1.625   2.287  0.00  0.00    +0.162 A 
ATOM     17  C   UNL     1      -2.094   1.277   1.102  0.00  0.00    +0.165 A 
ATOM     18  C   UNL     1      -2.764   0.529   0.148  0.00  0.00    +0.095 A 
ATOM     19  C   UNL     1      -4.069   0.121   0.380  0.00  0.00    +0.128 A 
BRANCH  19  20
ATOM     20  O   UNL     1      -4.726  -0.616  -0.555  0.00  0.00    -0.495 OA
ATOM     21  C   UNL     1      -4.010  -0.938  -1.749  0.00  0.00    +0.277 C 
ENDBRANCH  19  20
BRANCH  17  22
ATOM     22  O   UNL     1      -0.812   1.675   0.878  0.00  0.00    -0.491 OA
ATOM     23  C   UNL     1      -0.217   1.282  -0.360  0.00  0.00    +0.277 C 
ENDBRANCH  17  22
BRANCH  16  24
ATOM     24  O   UNL     1      -2.080   2.364   3.223  0.00  0.00    -0.491 OA
ATOM     25  C   UNL     1      -2.800   2.685   4.416  0.00  0.00    +0.277 C 
ENDBRANCH  16  24
ENDBRANCH   6  14
BRANCH  10  26
ATOM     26  C   UNL     1      -6.836  -3.588   6.258  0.00  0.00    -0.006 A 
ATOM     27  C   UNL     1      -7.803  -4.402   6.746  0.00  0.00    +0.011 A 
ATOM     28  C   UNL     1      -7.553  -5.126   7.897  0.00  0.00    +0.008 A 
ATOM     29  C   UNL     1      -6.348  -4.999   8.504  0.00  0.00    +0.045 A 
ATOM     30  S   UNL     1      -5.517  -3.834   7.436  0.00  0.00    -0.101 S 
ENDBRANCH  10  26
BRANCH   1  31
ATOM     31  C   UNL     1      -7.389   1.988   0.862  0.00  0.00    +0.338 C 
ATOM     32  O   UNL     1      -8.175   2.908   0.987  0.00  0.00    -0.245 OA
BRANCH  31  33
ATOM     33  O   UNL     1      -6.898   1.681  -0.356  0.00  0.00    -0.462 OA
BRANCH  33  35
ATOM     34  C   UNL     1      -6.683   1.984  -2.744  0.00  0.00    +0.048 C 
ATOM     35  C   UNL     1      -7.343   2.478  -1.455  0.00  0.00    +0.229 C 
ENDBRANCH  33  35
ENDBRANCH  31  33
ENDBRANCH   1  31
TORSDOF 8
