REMARK  Name = ZINC21881448
REMARK  8 active torsions:
REMARK  status: ('A' for Active; 'I' for Inactive)
REMARK    1  A    between atoms: C_1  and  C_2
REMARK    2  A    between atoms: C_2  and  C_3
REMARK    3  A    between atoms: C_7  and  C_12
REMARK    4  A    between atoms: C_17  and  C_20
REMARK    5  A    between atoms: N_22  and  C_23
REMARK    6  A    between atoms: C_23  and  C_24
REMARK    7  A    between atoms: C_24  and  C_25
REMARK    8  A    between atoms: C_28  and  C_31
REMARK                            x       y       z     vdW  Elec       q    Type
REMARK                         _______ _______ _______ _____ _____    ______ ____
ROOT
ATOM      1  C   UNL     1       2.198   0.324   2.237  0.00  0.00    +0.096 A 
ATOM      2  C   UNL     1       2.560   1.021   1.005  0.00  0.00    +0.104 A 
ATOM      3  C   UNL     1       3.487   0.878  -0.031  0.00  0.00    +0.138 A 
ATOM      4  N   UNL     1       3.478   1.782  -1.010  0.00  0.00    -0.217 NA
ATOM      5  C   UNL     1       2.618   2.783  -1.001  0.00  0.00    +0.132 A 
ATOM      6  N   UNL     1       1.728   2.953  -0.044  0.00  0.00    -0.195 NA
ATOM      7  C   UNL     1       1.659   2.106   0.974  0.00  0.00    +0.263 A 
ATOM      8  O   UNL     1       0.911   1.976   2.079  0.00  0.00    -0.334 OA
ATOM      9  N   UNL     1       1.216   1.012   2.744  0.00  0.00    -0.080 NA
ATOM     10  C   UNL     1       2.654   3.774  -2.135  0.00  0.00    +0.088 C 
ATOM     11  N   UNL     1       4.387  -0.169  -0.039  0.00  0.00    -0.314 N 
ATOM     12  C   UNL     1       4.213  -1.003  -1.235  0.00  0.00    +0.106 C 
ATOM     13  C   UNL     1       5.123  -2.230  -1.139  0.00  0.00    +0.020 C 
ATOM     14  C   UNL     1       6.579  -1.771  -1.022  0.00  0.00    +0.016 C 
ATOM     15  C   UNL     1       6.723  -0.865   0.204  0.00  0.00    +0.092 C 
ATOM     16  C   UNL     1       5.766   0.322   0.070  0.00  0.00    +0.119 C 
ENDROOT
BRANCH  15  17
ATOM     17  C   UNL     1       8.140  -0.361   0.294  0.00  0.00    +0.218 C 
ATOM     18  O   UNL     1       8.364   0.831   0.254  0.00  0.00    -0.275 OA
ATOM     19  N   UNL     1       9.159  -1.234   0.418  0.00  0.00    -0.315 N 
ATOM     20  H   UNL     1       8.956  -2.315   0.454  0.00  0.00    +0.149 HD
BRANCH  19  21
ATOM     21  C   UNL     1      10.537  -0.745   0.505  0.00  0.00    +0.109 C 
BRANCH  21  22
ATOM     22  C   UNL     1      11.493  -1.932   0.640  0.00  0.00    +0.054 C 
BRANCH  22  23
ATOM     23  C   UNL     1      12.911  -1.428   0.730  0.00  0.00    -0.046 A 
ATOM     24  C   UNL     1      13.659  -1.260  -0.421  0.00  0.00    +0.004 A 
ATOM     25  C   UNL     1      14.957  -0.794  -0.339  0.00  0.00    +0.003 A 
ATOM     26  C   UNL     1      15.511  -0.504   0.894  0.00  0.00    -0.050 A 
ATOM     27  C   UNL     1      14.765  -0.677   2.045  0.00  0.00    +0.003 A 
ATOM     28  C   UNL     1      13.465  -1.139   1.963  0.00  0.00    +0.004 A 
ATOM     29  C   UNL     1      16.929  -0.001   0.984  0.00  0.00    +0.044 C 
ENDBRANCH  22  23
ENDBRANCH  21  22
ENDBRANCH  19  21
ENDBRANCH  15  17
BRANCH   1  31
ATOM     30  C   UNL     1       2.022  -2.147   2.354  0.00  0.00    +0.010 C 
ATOM     31  C   UNL     1       2.827  -0.925   2.800  0.00  0.00    +0.056 C 
ENDBRANCH   1  31
TORSDOF 5
