REMARK  Name = ZINC63494958
REMARK  3 active torsions:
REMARK  status: ('A' for Active; 'I' for Inactive)
REMARK    1  A    between atoms: C_1  and  C_2
REMARK    2  A    between atoms: C_5  and  C_8
REMARK    3  A    between atoms: C_11  and  C_13
REMARK                            x       y       z     vdW  Elec       q    Type
REMARK                         _______ _______ _______ _____ _____    ______ ____
ROOT
ATOM      1  C   UNL     1       0.112  -8.317  -1.031  0.00  0.00    +0.216 C 
ATOM      2  N   UNL     1      -0.726  -8.415  -2.240  0.00  0.00    -0.292 N 
ATOM      3  C   UNL     1      -0.219  -8.038  -3.454  0.00  0.00    +0.183 C 
ATOM      4  N   UNL     1       1.071  -8.144  -3.723  0.00  0.00    -0.183 NA
ATOM      5  C   UNL     1       1.900  -8.579  -2.746  0.00  0.00    +0.236 A 
ATOM      6  N   UNL     1       1.475  -8.686  -1.431  0.00  0.00    -0.285 N 
ATOM      7  C   UNL     1       2.522  -9.159  -0.700  0.00  0.00    +0.072 A 
ATOM      8  C   UNL     1       2.671  -9.476   0.645  0.00  0.00    +0.028 A 
ATOM      9  C   UNL     1       3.911  -9.944   1.051  0.00  0.00    +0.002 A 
ATOM     10  C   UNL     1       4.965 -10.094   0.166  0.00  0.00    +0.002 A 
ATOM     11  C   UNL     1       4.843  -9.786  -1.177  0.00  0.00    +0.030 A 
ATOM     12  C   UNL     1       3.599  -9.313  -1.611  0.00  0.00    +0.091 A 
ATOM     13  N   UNL     1       3.160  -8.936  -2.827  0.00  0.00    -0.210 NA
ATOM     14  N   UNL     1      -1.064  -7.542  -4.409  0.00  0.00    -0.331 N 
ATOM     15  H   UNL     1      -1.636  -8.747  -2.175  0.00  0.00    +0.151 HD
ATOM     16  H   UNL     1      -2.012  -7.460  -4.223  0.00  0.00    +0.145 HD
ATOM     17  H   UNL     1      -0.715  -7.272  -5.273  0.00  0.00    +0.145 HD
ENDROOT
BRANCH   1  21
ATOM     18  C   UNL     1       0.060  -4.251  -0.021  0.00  0.00    +0.020 A 
ATOM     19  C   UNL     1       0.071  -5.120   1.037  0.00  0.00    +0.016 A 
ATOM     20  C   UNL     1       0.088  -6.473   0.783  0.00  0.00    +0.015 A 
ATOM     21  C   UNL     1       0.093  -6.905  -0.505  0.00  0.00    +0.031 A 
ATOM     22  S   UNL     1       0.067  -5.369  -1.414  0.00  0.00    -0.089 S 
BRANCH  18  27
ATOM     23  C   UNL     1      -0.018   1.503   0.010  0.00  0.00    +0.044 C 
ATOM     24  C   UNL     1       0.002  -0.004   0.002  0.00  0.00    -0.050 A 
ATOM     25  C   UNL     1       0.006  -0.686  -1.202  0.00  0.00    +0.004 A 
ATOM     26  C   UNL     1       0.024  -2.066  -1.216  0.00  0.00    +0.009 A 
ATOM     27  C   UNL     1       0.040  -2.773  -0.013  0.00  0.00    -0.011 A 
ATOM     28  C   UNL     1       0.037  -2.079   1.198  0.00  0.00    +0.009 A 
ATOM     29  C   UNL     1       0.023  -0.699   1.198  0.00  0.00    +0.004 A 
ENDBRANCH  18  27
ENDBRANCH   1  21
TORSDOF 2
