REMARK  Name = ZINC40167881
REMARK  9 active torsions:
REMARK  status: ('A' for Active; 'I' for Inactive)
REMARK    1  A    between atoms: C_1  and  C_2
REMARK    2  A    between atoms: C_3  and  C_33
REMARK    3  A    between atoms: C_5  and  N_9
REMARK    4  A    between atoms: C_6  and  C_7
REMARK    5  A    between atoms: C_10  and  C_12
REMARK    6  A    between atoms: C_12  and  C_14
REMARK    7  A    between atoms: C_12  and  O_15
REMARK    8  A    between atoms: O_15  and  C_16
REMARK    9  A    between atoms: C_26  and  C_27
REMARK                            x       y       z     vdW  Elec       q    Type
REMARK                         _______ _______ _______ _____ _____    ______ ____
ROOT
ATOM      1  C   UNL     1       0.780  -8.028   2.775  0.00  0.00    +0.212 A 
ATOM      2  C   UNL     1       0.910  -9.248   2.063  0.00  0.00    +0.235 A 
ATOM      3  O   UNL     1       0.566  -9.342   0.896  0.00  0.00    -0.283 OA
ATOM      4  C   UNL     1       1.479 -10.400   2.789  0.00  0.00    +0.068 A 
ATOM      5  C   UNL     1       1.643 -11.638   2.169  0.00  0.00    +0.015 A 
ATOM      6  C   UNL     1       2.178 -12.689   2.881  0.00  0.00    +0.001 A 
ATOM      7  C   UNL     1       2.551 -12.518   4.207  0.00  0.00    +0.004 A 
ATOM      8  C   UNL     1       2.393 -11.300   4.831  0.00  0.00    +0.047 A 
ATOM      9  C   UNL     1       1.856 -10.226   4.131  0.00  0.00    +0.140 A 
ATOM     10  O   UNL     1       1.694  -9.025   4.724  0.00  0.00    -0.451 OA
ATOM     11  C   UNL     1       1.183  -7.965   4.076  0.00  0.00    +0.181 A 
ENDROOT
BRANCH  11  12
ATOM     12  C   UNL     1       1.047  -6.687   4.801  0.00  0.00    +0.021 A 
ATOM     13  C   UNL     1      -0.149  -5.969   4.738  0.00  0.00    +0.012 A 
ATOM     14  C   UNL     1      -0.269  -4.775   5.418  0.00  0.00    +0.001 A 
ATOM     15  C   UNL     1       0.792  -4.288   6.160  0.00  0.00    +0.000 A 
ATOM     16  C   UNL     1       1.980  -4.995   6.227  0.00  0.00    +0.001 A 
ATOM     17  C   UNL     1       2.112  -6.193   5.557  0.00  0.00    +0.012 A 
ENDBRANCH  11  12
BRANCH   1  18
ATOM     18  O   UNL     1       0.263  -6.928   2.163  0.00  0.00    -0.473 OA
BRANCH  18  19
ATOM     19  C   UNL     1       1.024  -6.363   1.094  0.00  0.00    +0.256 C 
ATOM     20  C   UNL     1       1.905  -5.235   1.635  0.00  0.00    +0.062 C 
BRANCH  19  22
ATOM     21  N   UNL     1       0.578  -5.370  -1.127  0.00  0.00    -0.276 N 
ATOM     22  C   UNL     1       0.089  -5.813   0.048  0.00  0.00    +0.258 C 
ATOM     23  O   UNL     1      -1.103  -5.768   0.264  0.00  0.00    -0.271 OA
ATOM     24  H   UNL     1       1.537  -5.344  -1.275  0.00  0.00    +0.155 HD
BRANCH  21  29
ATOM     25  C   UNL     1      -0.870  -3.567  -5.632  0.00  0.00    +0.046 C 
ATOM     26  C   UNL     1      -1.076  -4.103  -4.239  0.00  0.00    -0.021 A 
ATOM     27  C   UNL     1      -2.304  -4.269  -3.711  0.00  0.00    -0.007 A 
ATOM     28  S   UNL     1      -1.966  -4.913  -2.087  0.00  0.00    -0.077 S 
ATOM     29  C   UNL     1      -0.289  -4.953  -2.127  0.00  0.00    +0.090 A 
ATOM     30  C   UNL     1       0.030  -4.477  -3.389  0.00  0.00    +0.083 A 
ATOM     31  C   UNL     1      -3.641  -3.978  -4.342  0.00  0.00    +0.052 C 
BRANCH  30  32
ATOM     32  C   UNL     1       1.389  -4.357  -3.826  0.00  0.00    +0.102 C 
ATOM     33  N   UNL     1       2.466  -4.262  -4.173  0.00  0.00    -0.191 NA
ENDBRANCH  30  32
ENDBRANCH  21  29
ENDBRANCH  19  22
ENDBRANCH  18  19
ENDBRANCH   1  18
TORSDOF 6
