REMARK  Name = ZINC09235404
REMARK  12 active torsions:
REMARK  status: ('A' for Active; 'I' for Inactive)
REMARK    1  A    between atoms: C_1  and  C_2
REMARK    2  A    between atoms: C_2  and  C_3
REMARK    3  A    between atoms: C_2  and  C_4
REMARK    4  A    between atoms: C_2  and  C_5
REMARK    5  A    between atoms: C_12  and  N_16
REMARK    6  A    between atoms: C_13  and  C_14
REMARK    7  A    between atoms: C_17  and  C_19
REMARK    8  A    between atoms: C_19  and  S_20
REMARK    9  A    between atoms: S_20  and  C_21
REMARK   10  A    between atoms: C_23  and  C_26
REMARK   11  A    between atoms: C_29  and  O_32
REMARK   12  A    between atoms: O_32  and  C_33
REMARK                            x       y       z     vdW  Elec       q    Type
REMARK                         _______ _______ _______ _____ _____    ______ ____
ROOT
ATOM      1  N   UNL     1      -1.427   3.424   7.468  0.00  0.00    -0.278 N 
ATOM      2  C   UNL     1      -0.917   2.607   8.411  0.00  0.00    +0.228 C 
ATOM      3  O   UNL     1      -0.262   1.639   8.085  0.00  0.00    -0.275 OA
ATOM      4  H   UNL     1      -2.021   4.301   7.763  0.00  0.00    +0.155 HD
ENDROOT
BRANCH   1  11
ATOM      5  C   UNL     1      -0.735   2.019   1.269  0.00  0.00    -0.000 C 
ATOM      6  C   UNL     1      -0.751   3.550   1.284  0.00  0.00    +0.009 C 
ATOM      7  C   UNL     1      -1.669   4.051   2.400  0.00  0.00    +0.037 C 
ATOM      8  C   UNL     1      -1.267   3.378   3.707  0.00  0.00    -0.018 A 
ATOM      9  C   UNL     1      -0.519   2.252   3.708  0.00  0.00    -0.004 A 
ATOM     10  S   UNL     1      -0.311   1.851   5.420  0.00  0.00    -0.077 S 
ATOM     11  C   UNL     1      -1.204   3.157   6.124  0.00  0.00    +0.090 A 
ATOM     12  C   UNL     1      -1.642   3.873   5.020  0.00  0.00    +0.084 A 
ATOM     13  C   UNL     1       0.010   1.518   2.515  0.00  0.00    +0.047 C 
BRANCH   5  15
ATOM     14  C   UNL     1       0.002  -0.004   0.002  0.00  0.00    +0.011 C 
ATOM     15  C   UNL     1      -0.019   1.526   0.010  0.00  0.00    -0.035 C 
ATOM     16  C   UNL     1       1.417   2.055  -0.000  0.00  0.00    +0.011 C 
ATOM     17  C   UNL     1      -0.759   2.033  -1.229  0.00  0.00    +0.011 C 
ENDBRANCH   5  15
BRANCH  12  18
ATOM     18  C   UNL     1      -2.435   5.056   5.168  0.00  0.00    +0.102 C 
ATOM     19  N   UNL     1      -3.064   5.994   5.286  0.00  0.00    -0.191 NA
ENDBRANCH  12  18
ENDBRANCH   1  11
BRANCH   2  20
ATOM     20  C   UNL     1      -1.159   2.897   9.870  0.00  0.00    +0.173 C 
BRANCH  20  21
ATOM     21  S   UNL     1      -0.349   1.627  10.881  0.00  0.00    -0.077 S 
BRANCH  21  22
ATOM     22  C   UNL     1      -0.720   2.099  12.537  0.00  0.00    +0.185 A 
ATOM     23  N   UNL     1      -0.331   1.448  13.634  0.00  0.00    -0.201 NA
ATOM     24  C   UNL     1      -0.777   2.074  14.705  0.00  0.00    +0.182 A 
ATOM     25  N   UNL     1      -1.473   3.158  14.293  0.00  0.00    -0.152 NA
ATOM     26  N   UNL     1      -1.425   3.150  12.890  0.00  0.00    -0.253 N 
ATOM     27  H   UNL     1      -1.930   3.942  12.318  0.00  0.00    +0.191 HD
BRANCH  24  28
ATOM     28  C   UNL     1      -0.556   1.664  16.109  0.00  0.00    +0.021 A 
ATOM     29  C   UNL     1      -1.092   2.421  17.152  0.00  0.00    +0.015 A 
ATOM     30  C   UNL     1      -0.888   2.033  18.458  0.00  0.00    +0.046 A 
ATOM     31  C   UNL     1      -0.141   0.896  18.738  0.00  0.00    +0.120 A 
ATOM     32  C   UNL     1       0.399   0.143  17.703  0.00  0.00    +0.046 A 
ATOM     33  C   UNL     1       0.195   0.522  16.394  0.00  0.00    +0.015 A 
BRANCH  31  34
ATOM     34  O   UNL     1       0.062   0.520  20.027  0.00  0.00    -0.495 OA
ATOM     35  C   UNL     1      -0.521   1.339  21.042  0.00  0.00    +0.277 C 
ENDBRANCH  31  34
ENDBRANCH  24  28
ENDBRANCH  21  22
ENDBRANCH  20  21
ENDBRANCH   2  20
TORSDOF 8
