REMARK  Name = ZINC36205812
REMARK  17 active torsions:
REMARK  status: ('A' for Active; 'I' for Inactive)
REMARK    1  A    between atoms: C_1  and  C_2
REMARK    2  A    between atoms: C_7  and  C_8
REMARK    3  A    between atoms: C_17  and  C_19
REMARK    4  A    between atoms: C_19  and  N_20
REMARK    5  A    between atoms: N_20  and  C_21
REMARK    6  A    between atoms: N_20  and  C_26
REMARK    7  A    between atoms: C_21  and  C_22
REMARK    8  A    between atoms: C_22  and  C_23
REMARK    9  A    between atoms: C_23  and  O_24
REMARK   10  A    between atoms: O_24  and  C_25
REMARK   11  A    between atoms: C_26  and  C_27
REMARK   12  A    between atoms: C_27  and  C_29
REMARK   13  A    between atoms: C_27  and  O_34
REMARK   14  A    between atoms: C_29  and  O_30
REMARK   15  A    between atoms: O_30  and  C_31
REMARK   16  A    between atoms: C_31  and  C_32
REMARK   17  A    between atoms: C_31  and  C_33
REMARK                            x       y       z     vdW  Elec       q    Type
REMARK                         _______ _______ _______ _____ _____    ______ ____
ROOT
ATOM      1  C   UNL     1      -4.212   7.884   1.083  0.00  0.00    +0.004 A 
ATOM      2  C   UNL     1      -3.729   9.005   1.673  0.00  0.00    +0.056 A 
ATOM      3  S   UNL     1      -3.252   8.444   3.296  0.00  0.00    -0.076 S 
ATOM      4  C   UNL     1      -3.708   6.736   3.147  0.00  0.00    +0.116 A 
ATOM      5  C   UNL     1      -4.224   6.641   1.844  0.00  0.00    +0.080 A 
ATOM      6  C   UNL     1      -4.681   5.343   1.451  0.00  0.00    +0.260 A 
ATOM      7  O   UNL     1      -5.141   5.160   0.337  0.00  0.00    -0.267 OA
ATOM      8  N   UNL     1      -4.594   4.327   2.330  0.00  0.00    -0.312 N 
ATOM      9  H   UNL     1      -4.902   3.445   2.069  0.00  0.00    +0.170 HD
ATOM     10  C   UNL     1      -4.083   4.512   3.574  0.00  0.00    +0.094 A 
ATOM     11  N   UNL     1      -3.651   5.683   3.959  0.00  0.00    -0.229 NA
ENDROOT
BRANCH   1  18
ATOM     12  C   UNL     1      -7.015   7.384   0.573  0.00  0.00    +0.044 C 
ATOM     13  C   UNL     1      -6.073   7.684  -0.564  0.00  0.00    -0.043 A 
ATOM     14  C   UNL     1      -6.545   7.727  -1.860  0.00  0.00    +0.004 A 
ATOM     15  C   UNL     1      -5.681   8.002  -2.904  0.00  0.00    +0.000 A 
ATOM     16  C   UNL     1      -4.339   8.235  -2.657  0.00  0.00    +0.001 A 
ATOM     17  C   UNL     1      -3.856   8.194  -1.365  0.00  0.00    +0.009 A 
ATOM     18  C   UNL     1      -4.723   7.924  -0.308  0.00  0.00    -0.014 A 
ENDBRANCH   1  18
BRANCH  10  19
ATOM     19  C   UNL     1      -4.006   3.345   4.524  0.00  0.00    -0.003 C 
BRANCH  19  20
ATOM     20  N   UNL     1      -3.557   3.815   5.842  0.00  0.00    +0.386 N 
ATOM     21  H   UNL     1      -2.702   4.340   5.738  0.00  0.00    -0.081 HD
BRANCH  20  22
ATOM     22  C   UNL     1      -3.320   2.661   6.719  0.00  0.00    -0.076 C 
BRANCH  22  23
ATOM     23  C   UNL     1      -2.154   1.835   6.171  0.00  0.00    +0.009 C 
BRANCH  23  24
ATOM     24  C   UNL     1      -1.812   0.718   7.158  0.00  0.00    +0.157 C 
BRANCH  24  25
ATOM     25  O   UNL     1      -0.723  -0.053   6.646  0.00  0.00    -0.383 OA
ATOM     26  C   UNL     1      -0.322  -1.129   7.497  0.00  0.00    +0.193 C 
ENDBRANCH  24  25
ENDBRANCH  23  24
ENDBRANCH  22  23
ENDBRANCH  20  22
BRANCH  20  27
ATOM     27  C   UNL     1      -4.591   4.675   6.433  0.00  0.00    -0.044 C 
BRANCH  27  28
ATOM     28  C   UNL     1      -4.074   5.264   7.747  0.00  0.00    +0.124 C 
BRANCH  28  29
ATOM     29  O   UNL     1      -2.970   6.131   7.478  0.00  0.00    -0.391 OA
ATOM     30  H   UNL     1      -3.185   6.874   6.897  0.00  0.00    +0.210 HD
ENDBRANCH  28  29
BRANCH  28  31
ATOM     31  C   UNL     1      -5.192   6.059   8.425  0.00  0.00    +0.189 C 
BRANCH  31  32
ATOM     32  O   UNL     1      -4.746   6.511   9.705  0.00  0.00    -0.375 OA
BRANCH  32  33
ATOM     33  C   UNL     1      -5.721   7.268  10.426  0.00  0.00    +0.112 C 
ATOM     34  C   UNL     1      -6.565   6.325  11.285  0.00  0.00    +0.037 C 
ATOM     35  C   UNL     1      -5.014   8.283  11.327  0.00  0.00    +0.037 C 
ENDBRANCH  32  33
ENDBRANCH  31  32
ENDBRANCH  28  31
ENDBRANCH  27  28
ENDBRANCH  20  27
ENDBRANCH  19  20
ENDBRANCH  10  19
TORSDOF 13
