REMARK  Name = ZINC08822545
REMARK  6 active torsions:
REMARK  status: ('A' for Active; 'I' for Inactive)
REMARK    1  A    between atoms: C_6  and  N_7
REMARK    2  A    between atoms: C_8  and  C_10
REMARK    3  A    between atoms: C_10  and  S_11
REMARK    4  A    between atoms: S_11  and  C_12
REMARK    5  A    between atoms: C_18  and  C_20
REMARK    6  A    between atoms: C_21  and  C_22
REMARK                            x       y       z     vdW  Elec       q    Type
REMARK                         _______ _______ _______ _____ _____    ______ ____
ROOT
ATOM      1  C   UNL     1       0.038   1.032  -2.809  0.00  0.00    +0.160 A 
ATOM      2  N   UNL     1       1.125   0.274  -2.807  0.00  0.00    -0.133 NA
ATOM      3  N   UNL     1       1.671  -0.112  -3.876  0.00  0.00    -0.125 NA
ATOM      4  C   UNL     1       1.194   0.216  -5.066  0.00  0.00    +0.189 A 
ATOM      5  S   UNL     1      -0.221   1.197  -4.573  0.00  0.00    -0.024 S 
ATOM      6  N   UNL     1       1.656  -0.112  -6.336  0.00  0.00    -0.260 N 
ATOM      7  C   UNL     1       2.755  -0.879  -6.476  0.00  0.00    +0.243 C 
ATOM      8  O   UNL     1       3.344  -1.285  -5.491  0.00  0.00    -0.270 OA
ATOM      9  H   UNL     1       1.187   0.212  -7.121  0.00  0.00    +0.157 HD
ENDROOT
BRANCH   7  10
ATOM     10  C   UNL     1       3.241  -1.223  -7.811  0.00  0.00    +0.068 C 
ATOM     11  C   UNL     1       4.342  -1.992  -7.952  0.00  0.00    +0.013 C 
BRANCH  11  12
ATOM     12  C   UNL     1       4.830  -2.338  -9.294  0.00  0.00    -0.021 A 
ATOM     13  C   UNL     1       4.156  -1.872 -10.428  0.00  0.00    +0.012 A 
ATOM     14  C   UNL     1       4.616  -2.198 -11.685  0.00  0.00    +0.050 A 
ATOM     15  C   UNL     1       5.748  -2.989 -11.832  0.00  0.00    +0.166 A 
ATOM     16  C   UNL     1       6.426  -3.457 -10.706  0.00  0.00    +0.167 A 
ATOM     17  C   UNL     1       5.975  -3.130  -9.442  0.00  0.00    +0.057 A 
ATOM     18  O   UNL     1       7.493  -4.202 -11.118  0.00  0.00    -0.453 OA
ATOM     19  C   UNL     1       7.699  -3.847 -12.498  0.00  0.00    +0.466 C 
ATOM     20  O   UNL     1       6.392  -3.442 -12.946  0.00  0.00    -0.453 OA
ENDBRANCH  11  12
ENDBRANCH   7  10
BRANCH   1  21
ATOM     21  S   UNL     1      -0.891   1.685  -1.462  0.00  0.00    -0.088 S 
BRANCH  21  22
ATOM     22  C   UNL     1      -0.016   1.080   0.008  0.00  0.00    +0.172 C 
BRANCH  22  24
ATOM     23  N   UNL     1      -0.242   1.246   2.466  0.00  0.00    -0.285 N 
ATOM     24  C   UNL     1      -0.717   1.573   1.248  0.00  0.00    +0.227 C 
ATOM     25  O   UNL     1      -1.709   2.265   1.150  0.00  0.00    -0.275 OA
ATOM     26  H   UNL     1       0.511   0.639   2.546  0.00  0.00    +0.155 HD
BRANCH  23  32
ATOM     27  C   UNL     1      -0.052   2.086   4.723  0.00  0.00    +0.025 A 
ATOM     28  C   UNL     1      -0.638   2.620   5.854  0.00  0.00    +0.022 A 
ATOM     29  C   UNL     1      -2.004   2.842   5.888  0.00  0.00    +0.041 A 
ATOM     30  C   UNL     1      -2.785   2.534   4.788  0.00  0.00    +0.022 A 
ATOM     31  C   UNL     1      -2.204   2.006   3.652  0.00  0.00    +0.025 A 
ATOM     32  C   UNL     1      -0.834   1.782   3.615  0.00  0.00    +0.033 A 
ATOM     33 CL   UNL     1      -2.738   3.506   7.314  0.00  0.00    -0.084 Cl
ENDBRANCH  23  32
ENDBRANCH  22  24
ENDBRANCH  21  22
ENDBRANCH   1  21
TORSDOF 6
