REMARK  Name = ZINC64958453
REMARK  7 active torsions:
REMARK  status: ('A' for Active; 'I' for Inactive)
REMARK    1  A    between atoms: C_1  and  C_2
REMARK    2  A    between atoms: C_5  and  C_23
REMARK    3  A    between atoms: C_6  and  N_8
REMARK    4  A    between atoms: N_8  and  S_9
REMARK    5  A    between atoms: S_9  and  C_12
REMARK    6  A    between atoms: C_15  and  C_17
REMARK    7  A    between atoms: C_19  and  C_22
REMARK                            x       y       z     vdW  Elec       q    Type
REMARK                         _______ _______ _______ _____ _____    ______ ____
ROOT
ATOM      1  S   UNL     1      -0.668  -2.154   3.737  0.00  0.00    +0.106 S 
ATOM      2  O   UNL     1      -0.407  -3.055   4.805  0.00  0.00    -0.147 OA
ATOM      3  O   UNL     1      -0.290  -0.785   3.785  0.00  0.00    -0.147 OA
ENDROOT
BRANCH   1   4
ATOM      4  C   UNL     1      -2.408  -2.187   3.464  0.00  0.00    +0.262 A 
ATOM      5  C   UNL     1      -3.237  -3.198   3.795  0.00  0.00    +0.072 A 
ATOM      6  C   UNL     1      -4.533  -2.816   3.404  0.00  0.00    +0.055 A 
ATOM      7  C   UNL     1      -4.425  -1.576   2.848  0.00  0.00    +0.175 A 
ATOM      8  O   UNL     1      -3.129  -1.207   2.896  0.00  0.00    -0.433 OA
BRANCH   7   9
ATOM      9  C   UNL     1      -5.529  -0.778   2.296  0.00  0.00    +0.202 A 
ATOM     10  C   UNL     1      -5.425   0.462   1.732  0.00  0.00    +0.079 A 
ATOM     11  C   UNL     1      -6.706   0.865   1.336  0.00  0.00    +0.081 A 
ATOM     12  N   UNL     1      -7.549  -0.083   1.643  0.00  0.00    -0.083 NA
ATOM     13  O   UNL     1      -6.826  -1.139   2.249  0.00  0.00    -0.351 OA
ATOM     14  C   UNL     1      -7.053   2.171   0.668  0.00  0.00    +0.069 C 
ENDBRANCH   7   9
ENDBRANCH   1   4
BRANCH   1  15
ATOM     15  N   UNL     1       0.051  -2.796   2.390  0.00  0.00    -0.213 N 
ATOM     16  H   UNL     1       0.602  -3.591   2.467  0.00  0.00    +0.174 HD
BRANCH  15  22
ATOM     17  C   UNL     1      -0.534   1.281  -0.290  0.00  0.00    +0.044 C 
ATOM     18  C   UNL     1      -0.422  -0.218  -0.185  0.00  0.00    -0.049 A 
ATOM     19  C   UNL     1      -0.504  -0.999  -1.324  0.00  0.00    +0.004 A 
ATOM     20  C   UNL     1      -0.403  -2.375  -1.232  0.00  0.00    +0.005 A 
ATOM     21  C   UNL     1      -0.218  -2.974  -0.001  0.00  0.00    -0.028 A 
ATOM     22  C   UNL     1      -0.135  -2.193   1.144  0.00  0.00    +0.051 A 
ATOM     23  C   UNL     1      -0.232  -0.811   1.048  0.00  0.00    +0.028 A 
ATOM     24  C   UNL     1      -0.108  -4.474   0.098  0.00  0.00    +0.046 C 
ENDBRANCH  15  22
ENDBRANCH   1  15
TORSDOF 4
