REMARK  Name = ZINC00986181
REMARK  8 active torsions:
REMARK  status: ('A' for Active; 'I' for Inactive)
REMARK    1  A    between atoms: C_1  and  C_2
REMARK    2  A    between atoms: C_5  and  N_8
REMARK    3  A    between atoms: C_9  and  C_11
REMARK    4  A    between atoms: C_11  and  S_12
REMARK    5  A    between atoms: S_12  and  C_13
REMARK    6  A    between atoms: C_24  and  C_27
REMARK    7  A    between atoms: C_27  and  C_28
REMARK    8  A    between atoms: C_27  and  C_29
REMARK                            x       y       z     vdW  Elec       q    Type
REMARK                         _______ _______ _______ _____ _____    ______ ____
ROOT
ATOM      1  C   UNL     1       3.871  -6.562  -0.414  0.00  0.00    +0.191 A 
ATOM      2  N   UNL     1       2.629  -7.031  -0.388  0.00  0.00    -0.207 NA
ATOM      3  C   UNL     1       2.356  -8.310  -0.581  0.00  0.00    +0.129 A 
ATOM      4  C   UNL     1       3.423  -9.220  -0.827  0.00  0.00    +0.051 A 
ATOM      5  C   UNL     1       3.361 -10.661  -1.067  0.00  0.00    -0.020 A 
ATOM      6  C   UNL     1       4.532 -11.300  -1.274  0.00  0.00    +0.021 A 
ATOM      7  S   UNL     1       5.771 -10.041  -1.165  0.00  0.00    -0.071 S 
ATOM      8  C   UNL     1       4.713  -8.653  -0.840  0.00  0.00    +0.115 A 
ATOM      9  N   UNL     1       4.904  -7.363  -0.643  0.00  0.00    -0.214 NA
ATOM     10  C   UNL     1       4.708 -12.764  -1.536  0.00  0.00    +0.203 C 
ATOM     11  O   UNL     1       3.471 -13.422  -1.219  0.00  0.00    -0.371 OA
ATOM     12  C   UNL     1       2.324 -12.788  -1.793  0.00  0.00    +0.126 C 
ATOM     13  C   UNL     1       2.056 -11.452  -1.093  0.00  0.00    +0.068 C 
ATOM     14  N   UNL     1       1.048  -8.759  -0.546  0.00  0.00    -0.343 N 
ATOM     15  H   UNL     1       0.317  -8.122  -0.529  0.00  0.00    +0.144 HD
ATOM     16  H   UNL     1       0.862  -9.711  -0.539  0.00  0.00    +0.144 HD
ENDROOT
BRANCH  12  17
ATOM     17  C   UNL     1       1.107 -13.700  -1.629  0.00  0.00    +0.012 C 
ATOM     18  C   UNL     1       1.373 -15.036  -2.327  0.00  0.00    +0.010 C 
ATOM     19  C   UNL     1       0.851 -13.946  -0.141  0.00  0.00    +0.010 C 
ENDBRANCH  12  17
BRANCH   1  20
ATOM     20  S   UNL     1       4.153  -4.844  -0.147  0.00  0.00    -0.077 S 
BRANCH  20  21
ATOM     21  C   UNL     1       2.450  -4.280   0.093  0.00  0.00    +0.173 C 
BRANCH  21  23
ATOM     22  N   UNL     1       1.277  -2.151   0.554  0.00  0.00    -0.285 N 
ATOM     23  C   UNL     1       2.443  -2.794   0.346  0.00  0.00    +0.227 C 
ATOM     24  O   UNL     1       3.487  -2.177   0.361  0.00  0.00    -0.275 OA
ATOM     25  H   UNL     1       0.450  -2.654   0.616  0.00  0.00    +0.155 HD
BRANCH  22  30
ATOM     26  C   UNL     1       1.205   3.499   1.063  0.00  0.00    +0.044 C 
ATOM     27  C   UNL     1       1.224   1.998   0.928  0.00  0.00    -0.050 A 
ATOM     28  C   UNL     1       2.146   1.392   0.093  0.00  0.00    +0.005 A 
ATOM     29  C   UNL     1       2.166   0.017  -0.033  0.00  0.00    +0.023 A 
ATOM     30  C   UNL     1       1.260  -0.758   0.680  0.00  0.00    +0.033 A 
ATOM     31  C   UNL     1       0.336  -0.146   1.517  0.00  0.00    +0.023 A 
ATOM     32  C   UNL     1       0.321   1.230   1.639  0.00  0.00    +0.005 A 
ENDBRANCH  22  30
ENDBRANCH  21  23
ENDBRANCH  20  21
ENDBRANCH   1  20
TORSDOF 5
