REMARK  Name = ZINC06409008
REMARK  11 active torsions:
REMARK  status: ('A' for Active; 'I' for Inactive)
REMARK    1  A    between atoms: C_1  and  C_2
REMARK    2  A    between atoms: C_9  and  C_14
REMARK    3  A    between atoms: C_14  and  C_16
REMARK    4  A    between atoms: C_14  and  N_75
REMARK    5  A    between atoms: N_20  and  C_21
REMARK    6  A    between atoms: C_26  and  C_27
REMARK    7  A    between atoms: C_26  and  N_75
REMARK    8  A    between atoms: C_30  and  O_33
REMARK    9  A    between atoms: O_33  and  C_34
REMARK   10  A    between atoms: C_35  and  C_36
REMARK   11  A    between atoms: C_35  and  N_75
REMARK                            x       y       z     vdW  Elec       q    Type
REMARK                         _______ _______ _______ _____ _____    ______ ____
ROOT
ATOM      1  C   UNL     1      -0.631   1.016   1.620  0.00  0.00    +0.039 C 
ENDROOT
BRANCH   1  10
ATOM      2  C   UNL     1      -8.040   0.182   1.473  0.00  0.00    +0.044 C 
ATOM      3  C   UNL     1      -6.792   0.734   2.113  0.00  0.00    -0.050 A 
ATOM      4  C   UNL     1      -6.891   1.498   3.268  0.00  0.00    +0.005 A 
ATOM      5  C   UNL     1      -5.763   2.014   3.869  0.00  0.00    +0.026 A 
ATOM      6  C   UNL     1      -4.511   1.767   3.314  0.00  0.00    +0.049 A 
ATOM      7  C   UNL     1      -4.415   0.992   2.143  0.00  0.00    -0.001 A 
ATOM      8  C   UNL     1      -5.574   0.479   1.550  0.00  0.00    +0.013 A 
ATOM      9  C   UNL     1      -3.094   0.741   1.565  0.00  0.00    +0.017 A 
ATOM     10  C   UNL     1      -2.006   1.259   2.187  0.00  0.00    +0.011 A 
ATOM     11  C   UNL     1      -2.157   2.030   3.359  0.00  0.00    +0.251 A 
ATOM     12  O   UNL     1      -1.166   2.491   3.899  0.00  0.00    -0.268 OA
ATOM     13  N   UNL     1      -3.367   2.269   3.895  0.00  0.00    -0.322 N 
ATOM     14  H   UNL     1      -3.435   2.803   4.702  0.00  0.00    +0.169 HD
ENDBRANCH   1  10
BRANCH   1  15
ATOM     15  C   UNL     1       0.130   2.316   1.571  0.00  0.00    +0.143 A 
ATOM     16  N   UNL     1      -0.279   3.442   1.041  0.00  0.00    -0.115 NA
ATOM     17  N   UNL     1       0.652   4.319   1.200  0.00  0.00    -0.023 NA
ATOM     18  N   UNL     1       1.644   3.780   1.819  0.00  0.00    -0.044 NA
ATOM     19  N   UNL     1       1.359   2.548   2.070  0.00  0.00    -0.227 N 
BRANCH  19  20
ATOM     20  C   UNL     1       2.212   1.581   2.764  0.00  0.00    +0.111 C 
ATOM     21  C   UNL     1       2.581   2.111   4.165  0.00  0.00    +0.027 C 
ATOM     22  C   UNL     1       4.045   1.651   4.372  0.00  0.00    +0.002 C 
ATOM     23  C   UNL     1       4.662   1.830   2.963  0.00  0.00    +0.002 C 
ATOM     24  C   UNL     1       3.536   1.402   2.000  0.00  0.00    +0.027 C 
ENDBRANCH  19  20
ENDBRANCH   1  15
BRANCH   1  25
ATOM     25  N   UNL     1      -0.774   0.451   0.262  0.00  0.00    +0.394 N 
ATOM     26  H   UNL     1      -1.621  -0.127   0.229  0.00  0.00    -0.080 HD
BRANCH  25  27
ATOM     27  C   UNL     1       0.396  -0.392  -0.060  0.00  0.00    -0.041 C 
BRANCH  27  28
ATOM     28  C   UNL     1       0.092  -1.190  -1.302  0.00  0.00    -0.064 A 
ATOM     29  C   UNL     1      -0.581  -2.393  -1.202  0.00  0.00    +0.005 A 
ATOM     30  C   UNL     1      -0.866  -3.123  -2.340  0.00  0.00    +0.046 A 
ATOM     31  C   UNL     1      -0.467  -2.653  -3.583  0.00  0.00    +0.120 A 
ATOM     32  C   UNL     1       0.213  -1.448  -3.680  0.00  0.00    +0.046 A 
ATOM     33  C   UNL     1       0.491  -0.719  -2.540  0.00  0.00    +0.005 A 
BRANCH  31  34
ATOM     34  O   UNL     1      -0.742  -3.372  -4.703  0.00  0.00    -0.495 OA
ATOM     35  C   UNL     1      -1.445  -4.604  -4.527  0.00  0.00    +0.277 C 
ENDBRANCH  31  34
ENDBRANCH  27  28
ENDBRANCH  25  27
BRANCH  25  36
ATOM     36  C   UNL     1      -0.898   1.542  -0.728  0.00  0.00    -0.045 C 
BRANCH  36  37
ATOM     37  C   UNL     1      -2.332   2.075  -0.692  0.00  0.00    +0.102 C 
ATOM     38  C   UNL     1      -2.570   3.057  -1.860  0.00  0.00    +0.032 C 
ATOM     39  C   UNL     1      -3.484   4.146  -1.254  0.00  0.00    +0.030 C 
ATOM     40  C   UNL     1      -3.689   3.693   0.208  0.00  0.00    +0.160 C 
ATOM     41  O   UNL     1      -2.546   2.861   0.501  0.00  0.00    -0.378 OA
ENDBRANCH  36  37
ENDBRANCH  25  36
ENDBRANCH   1  25
TORSDOF 9
