REMARK  Name = ZINC64429159
REMARK  7 active torsions:
REMARK  status: ('A' for Active; 'I' for Inactive)
REMARK    1  A    between atoms: C_4  and  C_7
REMARK    2  A    between atoms: C_8  and  C_24
REMARK    3  A    between atoms: C_10  and  C_12
REMARK    4  A    between atoms: C_12  and  C_13
REMARK    5  A    between atoms: C_13  and  C_14
REMARK    6  A    between atoms: N_16  and  N_17
REMARK    7  A    between atoms: N_20  and  C_21
REMARK                            x       y       z     vdW  Elec       q    Type
REMARK                         _______ _______ _______ _____ _____    ______ ____
ROOT
ATOM      1  C   UNL     1       3.682  -0.715  -0.075  0.00  0.00    +0.117 A 
ATOM      2  C   UNL     1       4.007  -1.835   0.662  0.00  0.00    +0.163 A 
ATOM      3  O   UNL     1       5.301  -2.113   0.390  0.00  0.00    -0.439 OA
ATOM      4  C   UNL     1       5.746  -1.196  -0.480  0.00  0.00    +0.197 A 
ATOM      5  N   UNL     1       4.787  -0.364  -0.766  0.00  0.00    -0.213 NA
ENDROOT
BRANCH   1   9
ATOM      6  C   UNL     1      -0.086   1.248  -0.167  0.00  0.00    +0.000 A 
ATOM      7  C   UNL     1       0.431   0.806   1.038  0.00  0.00    +0.001 A 
ATOM      8  C   UNL     1       1.654   0.168   1.074  0.00  0.00    +0.010 A 
ATOM      9  C   UNL     1       2.369  -0.031  -0.107  0.00  0.00    +0.004 A 
ATOM     10  C   UNL     1       1.842   0.416  -1.318  0.00  0.00    +0.010 A 
ATOM     11  C   UNL     1       0.618   1.053  -1.342  0.00  0.00    +0.001 A 
ENDBRANCH   1   9
BRANCH   2  12
ATOM     12  C   UNL     1       3.116  -2.583   1.571  0.00  0.00    +0.019 A 
ATOM     13  C   UNL     1       1.832  -2.944   1.154  0.00  0.00    +0.011 A 
ATOM     14  C   UNL     1       1.004  -3.643   2.008  0.00  0.00    +0.001 A 
ATOM     15  C   UNL     1       1.443  -3.986   3.275  0.00  0.00    +0.000 A 
ATOM     16  C   UNL     1       2.713  -3.631   3.694  0.00  0.00    +0.001 A 
ATOM     17  C   UNL     1       3.554  -2.938   2.848  0.00  0.00    +0.011 A 
ENDBRANCH   2  12
BRANCH   4  18
ATOM     18  C   UNL     1       7.142  -1.141  -1.046  0.00  0.00    +0.105 C 
BRANCH  18  19
ATOM     19  C   UNL     1       8.025  -0.281  -0.140  0.00  0.00    +0.106 C 
BRANCH  19  20
ATOM     20  C   UNL     1       9.421  -0.226  -0.705  0.00  0.00    +0.230 C 
ATOM     21  O   UNL     1       9.683  -0.817  -1.732  0.00  0.00    -0.274 OA
ATOM     22  N   UNL     1      10.378   0.479  -0.070  0.00  0.00    -0.233 N 
ATOM     23  H   UNL     1      10.169   0.952   0.750  0.00  0.00    +0.173 HD
BRANCH  22  24
ATOM     24  N   UNL     1      11.676   0.530  -0.596  0.00  0.00    -0.218 N 
ATOM     25  C   UNL     1      12.633   1.236   0.039  0.00  0.00    +0.316 C 
ATOM     26  O   UNL     1      13.759   1.280  -0.417  0.00  0.00    -0.251 OA
ATOM     27  N   UNL     1      12.342   1.892   1.179  0.00  0.00    -0.295 N 
ATOM     28  H   UNL     1      11.886   0.058  -1.417  0.00  0.00    +0.174 HD
ATOM     29  H   UNL     1      11.443   1.857   1.543  0.00  0.00    +0.151 HD
BRANCH  27  30
ATOM     30  C   UNL     1      13.382   2.659   1.869  0.00  0.00    +0.075 C 
ATOM     31  C   UNL     1      13.466   2.524   3.391  0.00  0.00    +0.024 C 
ATOM     32  C   UNL     1      12.931   3.814   2.766  0.00  0.00    +0.024 C 
ENDBRANCH  27  30
ENDBRANCH  22  24
ENDBRANCH  19  20
ENDBRANCH  18  19
ENDBRANCH   4  18
TORSDOF 7
