REMARK  Name = ZINC18194885
REMARK  2 active torsions:
REMARK  status: ('A' for Active; 'I' for Inactive)
REMARK    1  A    between atoms: C_5  and  N_8
REMARK    2  A    between atoms: N_8  and  N_9
REMARK                            x       y       z     vdW  Elec       q    Type
REMARK                         _______ _______ _______ _____ _____    ______ ____
ROOT
ATOM      1  N   UNL     1       1.238  -2.080  -0.021  0.00  0.00    -0.252 N 
ATOM      2  H   UNL     1       2.055  -2.550  -0.249  0.00  0.00    +0.171 HD
ENDROOT
BRANCH   1   3
ATOM      3  N   UNL     1       0.080  -2.801   0.300  0.00  0.00    -0.157 N 
ATOM      4  C   UNL     1      -0.391  -2.929   1.570  0.00  0.00    +0.242 C 
ATOM      5  O   UNL     1      -0.042  -2.299   2.545  0.00  0.00    -0.273 OA
ATOM      6  C   UNL     1      -1.428  -4.006   1.518  0.00  0.00    +0.089 C 
ATOM      7  C   UNL     1      -2.628  -3.927   2.436  0.00  0.00    +0.013 C 
ATOM      8  C   UNL     1      -3.506  -5.150   2.102  0.00  0.00    +0.001 C 
ATOM      9  C   UNL     1      -3.910  -5.175   0.632  0.00  0.00    +0.001 C 
ATOM     10  C   UNL     1      -2.695  -5.060  -0.306  0.00  0.00    +0.013 C 
ATOM     11  C   UNL     1      -1.956  -3.804   0.067  0.00  0.00    +0.089 C 
ATOM     12  C   UNL     1      -0.685  -3.436  -0.628  0.00  0.00    +0.242 C 
ATOM     13  O   UNL     1      -0.395  -3.660  -1.784  0.00  0.00    -0.273 OA
ENDBRANCH   1   3
BRANCH   1  18
ATOM     14  C   UNL     1      -0.017   1.378   0.010  0.00  0.00    +0.042 A 
ATOM     15  C   UNL     1       1.171   2.088   0.002  0.00  0.00    +0.044 A 
ATOM     16  C   UNL     1       2.381   1.416  -0.013  0.00  0.00    +0.042 A 
ATOM     17  C   UNL     1       2.407   0.034  -0.021  0.00  0.00    +0.066 A 
ATOM     18  C   UNL     1       1.215  -0.681  -0.013  0.00  0.00    +0.082 A 
ATOM     19  C   UNL     1       0.002  -0.004   0.002  0.00  0.00    +0.066 A 
ATOM     20 CL   UNL     1      -1.489  -0.893   0.011  0.00  0.00    -0.081 Cl
ATOM     21 CL   UNL     1       3.925  -0.807  -0.040  0.00  0.00    -0.081 Cl
ATOM     22 CL   UNL     1       1.144   3.823   0.011  0.00  0.00    -0.083 Cl
ENDBRANCH   1  18
TORSDOF 2
