REMARK  Name = ZINC02231536
REMARK  8 active torsions:
REMARK  status: ('A' for Active; 'I' for Inactive)
REMARK    1  A    between atoms: C_1  and  C_2
REMARK    2  A    between atoms: C_2  and  C_3
REMARK    3  A    between atoms: C_3  and  C_4
REMARK    4  A    between atoms: C_4  and  C_5
REMARK    5  A    between atoms: C_11  and  N_17
REMARK    6  A    between atoms: C_13  and  S_15
REMARK    7  A    between atoms: S_15  and  C_16
REMARK    8  A    between atoms: N_17  and  N_18
REMARK                            x       y       z     vdW  Elec       q    Type
REMARK                         _______ _______ _______ _____ _____    ______ ____
ROOT
ATOM      1  C   UNL     1      -1.298   3.772  -2.293  0.00  0.00    +0.046 A 
ATOM      2  C   UNL     1      -0.985   3.083  -1.125  0.00  0.00    -0.022 A 
ATOM      3  C   UNL     1      -0.892   3.762   0.062  0.00  0.00    -0.031 A 
ATOM      4  C   UNL     1      -1.125   5.159   0.078  0.00  0.00    +0.037 A 
ATOM      5  C   UNL     1      -1.079   6.063   1.243  0.00  0.00    +0.094 A 
ATOM      6  C   UNL     1      -1.350   7.411   0.983  0.00  0.00    +0.081 A 
ATOM      7  C   UNL     1      -1.335   8.354   2.001  0.00  0.00    +0.151 A 
ATOM      8  N   UNL     1      -1.055   7.947   3.238  0.00  0.00    -0.205 NA
ATOM      9  C   UNL     1      -0.800   6.666   3.473  0.00  0.00    +0.190 A 
ATOM     10  N   UNL     1      -0.807   5.748   2.530  0.00  0.00    -0.221 NA
ATOM     11  S   UNL     1      -1.658   7.477  -0.761  0.00  0.00    -0.064 S 
ATOM     12  C   UNL     1      -1.436   5.760  -1.154  0.00  0.00    +0.111 A 
ATOM     13  N   UNL     1      -1.511   5.072  -2.273  0.00  0.00    -0.244 NA
ATOM     14  C   UNL     1      -0.545   3.096   1.365  0.00  0.00    +0.036 C 
ATOM     15  C   UNL     1      -0.738   1.584   1.263  0.00  0.00    +0.005 C 
ATOM     16  C   UNL     1      -0.013   1.086   0.008  0.00  0.00    +0.005 C 
ATOM     17  C   UNL     1      -0.759   1.596  -1.223  0.00  0.00    +0.037 C 
ENDROOT
BRANCH   9  18
ATOM     18  S   UNL     1      -0.436   6.171   5.124  0.00  0.00    -0.089 S 
ATOM     19  C   UNL     1      -0.561   7.769   5.966  0.00  0.00    +0.093 C 
ENDBRANCH   9  18
BRANCH   7  20
ATOM     20  N   UNL     1      -1.603   9.688   1.737  0.00  0.00    -0.267 N 
ATOM     21  H   UNL     1      -1.805   9.972   0.831  0.00  0.00    +0.167 HD
BRANCH  20  22
ATOM     22  N   UNL     1      -1.584  10.603   2.751  0.00  0.00    -0.255 NA
ATOM     23  H   UNL     1      -0.697  10.591   3.232  0.00  0.00    +0.140 HD
ATOM     24  H   UNL     1      -1.797  11.527   2.408  0.00  0.00    +0.140 HD
ENDBRANCH  20  22
ENDBRANCH   7  20
BRANCH   1  25
ATOM     25  C   UNL     1      -1.394   3.023  -3.597  0.00  0.00    +0.056 C 
BRANCH  25  26
ATOM     26  C   UNL     1      -2.830   2.536  -3.800  0.00  0.00    +0.006 C 
BRANCH  26  28
ATOM     27  C   UNL     1      -4.364   1.287  -5.327  0.00  0.00    +0.004 C 
ATOM     28  C   UNL     1      -2.928   1.775  -5.124  0.00  0.00    -0.003 C 
ENDBRANCH  26  28
ENDBRANCH  25  26
ENDBRANCH   1  25
TORSDOF 6
