REMARK  Name = ZINC19226804
REMARK  8 active torsions:
REMARK  status: ('A' for Active; 'I' for Inactive)
REMARK    1  A    between atoms: C_1  and  C_2
REMARK    2  A    between atoms: C_5  and  C_7
REMARK    3  A    between atoms: C_7  and  C_29
REMARK    4  A    between atoms: N_8  and  N_9
REMARK    5  A    between atoms: C_10  and  C_12
REMARK    6  A    between atoms: C_16  and  S_18
REMARK    7  A    between atoms: S_18  and  N_21
REMARK    8  A    between atoms: N_21  and  C_22
REMARK                            x       y       z     vdW  Elec       q    Type
REMARK                         _______ _______ _______ _____ _____    ______ ____
ROOT
ATOM      1  C   UNL     1       3.664   1.310   4.560  0.00  0.00    +0.040 A 
ATOM      2  C   UNL     1       3.038   2.394   5.180  0.00  0.00    +0.013 A 
ATOM      3  C   UNL     1       2.632   3.475   4.426  0.00  0.00    +0.003 A 
ATOM      4  C   UNL     1       2.848   3.490   3.059  0.00  0.00    +0.029 A 
ATOM      5  C   UNL     1       3.463   2.417   2.438  0.00  0.00    +0.111 A 
ATOM      6  C   UNL     1       3.875   1.329   3.180  0.00  0.00    +0.042 A 
ENDROOT
BRANCH   1   8
ATOM      7  N   UNL     1       3.899   0.134   6.694  0.00  0.00    -0.203 N 
ATOM      8  C   UNL     1       4.103   0.149   5.362  0.00  0.00    +0.263 C 
ATOM      9  O   UNL     1       4.649  -0.793   4.820  0.00  0.00    -0.268 OA
ATOM     10  H   UNL     1       3.405   0.986   7.185  0.00  0.00    +0.178 HD
BRANCH   7  12
ATOM     11  C   UNL     1       4.117  -0.982   8.740  0.00  0.00    +0.098 C 
ATOM     12  N   UNL     1       4.315  -0.967   7.454  0.00  0.00    -0.181 NA
ATOM     13  C   UNL     1       3.441   0.186   9.412  0.00  0.00    +0.071 C 
BRANCH  11  18
ATOM     14  C   UNL     1       4.958  -3.984  12.660  0.00  0.00    +0.086 C 
ATOM     15  C   UNL     1       4.924  -3.455  11.249  0.00  0.00    +0.103 A 
ATOM     16  C   UNL     1       5.407  -4.090  10.161  0.00  0.00    +0.045 A 
ATOM     17  C   UNL     1       5.173  -3.251   9.056  0.00  0.00    +0.051 A 
ATOM     18  C   UNL     1       4.552  -2.134   9.535  0.00  0.00    +0.150 A 
ATOM     19  O   UNL     1       4.415  -2.273  10.869  0.00  0.00    -0.459 OA
ENDBRANCH  11  18
ENDBRANCH   7  12
ENDBRANCH   1   8
BRANCH   5  20
ATOM     20  S   UNL     1       3.728   2.443   0.696  0.00  0.00    +0.092 S 
ATOM     21  O   UNL     1       4.815   1.566   0.437  0.00  0.00    -0.148 OA
ATOM     22  O   UNL     1       3.742   3.810   0.308  0.00  0.00    -0.148 OA
BRANCH  20  23
ATOM     23  N   UNL     1       2.393   1.764  -0.012  0.00  0.00    -0.096 NA
BRANCH  23  24
ATOM     24  C   UNL     1       1.134   2.342   0.173  0.00  0.00    +0.093 A 
ATOM     25  C   UNL     1       1.007   3.723   0.257  0.00  0.00    +0.028 A 
ATOM     26  C   UNL     1      -0.238   4.291   0.439  0.00  0.00    +0.002 A 
ATOM     27  C   UNL     1      -1.359   3.487   0.538  0.00  0.00    +0.002 A 
ATOM     28  C   UNL     1      -1.238   2.112   0.450  0.00  0.00    +0.022 A 
ATOM     29  C   UNL     1       0.006   1.537   0.273  0.00  0.00    +0.065 A 
ATOM     30 CL   UNL     1       0.159  -0.190   0.170  0.00  0.00    -0.082 Cl
ENDBRANCH  23  24
ENDBRANCH  20  23
ENDBRANCH   5  20
TORSDOF 6
