REMARK  Name = ZINC35557901
REMARK  5 active torsions:
REMARK  status: ('A' for Active; 'I' for Inactive)
REMARK    1  A    between atoms: C_1  and  C_2
REMARK    2  A    between atoms: C_2  and  N_3
REMARK    3  A    between atoms: N_3  and  C_4
REMARK    4  A    between atoms: C_4  and  C_6
REMARK    5  A    between atoms: C_4  and  C_14
REMARK                            x       y       z     vdW  Elec       q    Type
REMARK                         _______ _______ _______ _____ _____    ______ ____
ROOT
ATOM      1  C   UNL     1      -1.356  -1.981   0.004  0.00  0.00    -0.003 C 
ENDROOT
BRANCH   1   2
ATOM      2  C   UNL     1      -2.766  -2.502  -0.109  0.00  0.00    -0.055 A 
ATOM      3  C   UNL     1      -3.789  -1.882   0.583  0.00  0.00    +0.004 A 
ATOM      4  C   UNL     1      -5.082  -2.359   0.481  0.00  0.00    +0.021 A 
ATOM      5  C   UNL     1      -5.353  -3.457  -0.315  0.00  0.00    +0.059 A 
ATOM      6  C   UNL     1      -4.329  -4.078  -1.009  0.00  0.00    +0.059 A 
ATOM      7  C   UNL     1      -3.035  -3.596  -0.909  0.00  0.00    +0.023 A 
ATOM      8 CL   UNL     1      -4.667  -5.457  -2.007  0.00  0.00    -0.082 Cl
ATOM      9 CL   UNL     1      -6.977  -4.057  -0.444  0.00  0.00    -0.082 Cl
ENDBRANCH   1   2
BRANCH   1  10
ATOM     10  C   UNL     1      -0.737  -2.482   1.284  0.00  0.00    -0.019 A 
ATOM     11  C   UNL     1       0.119  -3.508   1.469  0.00  0.00    +0.013 A 
ATOM     12  C   UNL     1       0.584  -3.815   2.759  0.00  0.00    -0.037 A 
ATOM     13  C   UNL     1       0.124  -3.035   3.767  0.00  0.00    -0.007 A 
ATOM     14  S   UNL     1      -0.938  -1.868   2.947  0.00  0.00    -0.099 S 
ATOM     15  C   UNL     1       0.674  -3.450   5.101  0.00  0.00    +0.043 C 
ATOM     16  C   UNL     1       1.220  -4.877   4.870  0.00  0.00    +0.010 C 
ATOM     17  C   UNL     1       1.531  -4.856   3.360  0.00  0.00    +0.036 C 
ENDBRANCH   1  10
BRANCH   1  18
ATOM     18  N   UNL     1      -1.376  -0.512   0.012  0.00  0.00    +0.386 N 
ATOM     19  H   UNL     1      -1.848  -0.187   0.843  0.00  0.00    -0.085 HD
ATOM     20  H   UNL     1      -1.864  -0.178  -0.805  0.00  0.00    -0.085 HD
BRANCH  18  22
ATOM     21  C   UNL     1      -0.019   1.526   0.010  0.00  0.00    -0.017 C 
ATOM     22  C   UNL     1       0.002  -0.004   0.002  0.00  0.00    -0.085 C 
ENDBRANCH  18  22
ENDBRANCH   1  18
TORSDOF 4
