REMARK  Name = ZINC28054542
REMARK  9 active torsions:
REMARK  status: ('A' for Active; 'I' for Inactive)
REMARK    1  A    between atoms: C_1  and  C_2
REMARK    2  A    between atoms: C_5  and  C_8
REMARK    3  A    between atoms: C_19  and  C_21
REMARK    4  A    between atoms: C_24  and  O_31
REMARK    5  A    between atoms: C_25  and  O_29
REMARK    6  A    between atoms: C_26  and  O_27
REMARK    7  A    between atoms: O_27  and  C_28
REMARK    8  A    between atoms: O_29  and  C_30
REMARK    9  A    between atoms: O_31  and  C_32
REMARK                            x       y       z     vdW  Elec       q    Type
REMARK                         _______ _______ _______ _____ _____    ______ ____
ROOT
ATOM      1  C   UNL     1       1.473   2.252  -0.060  0.00  0.00    +0.174 C 
ATOM      2  C   UNL     1       0.536   1.071   0.013  0.00  0.00    +0.026 C 
ATOM      3  C   UNL     1       0.975  -0.189   0.032  0.00  0.00    +0.050 C 
ATOM      4  C   UNL     1      -0.022  -1.282   0.131  0.00  0.00    +0.039 A 
ATOM      5  C   UNL     1       0.309  -2.596  -0.174  0.00  0.00    +0.033 A 
ATOM      6  C   UNL     1      -0.652  -3.584  -0.065  0.00  0.00    +0.042 A 
ATOM      7  C   UNL     1      -1.936  -3.266   0.347  0.00  0.00    +0.023 A 
ATOM      8  C   UNL     1      -2.273  -1.959   0.650  0.00  0.00    +0.048 A 
ATOM      9  C   UNL     1      -1.322  -0.962   0.543  0.00  0.00    +0.131 A 
ATOM     10  O   UNL     1      -1.615   0.333   0.828  0.00  0.00    -0.479 OA
ATOM     11  C   UNL     1      -0.952   1.334   0.056  0.00  0.00    +0.238 C 
ATOM     12 CL   UNL     1      -0.249  -5.229  -0.443  0.00  0.00    -0.084 Cl
ATOM     13  N   UNL     1       2.337  -0.507  -0.024  0.00  0.00    -0.282 N 
ATOM     14  C   UNL     1       3.238   0.522   0.195  0.00  0.00    +0.240 A 
ATOM     15  N   UNL     1       2.842   1.822   0.188  0.00  0.00    -0.201 N 
ATOM     16  N   UNL     1       3.993   2.562   0.451  0.00  0.00    -0.042 NA
ATOM     17  N   UNL     1       4.957   1.710   0.585  0.00  0.00    -0.021 NA
ATOM     18  N   UNL     1       4.518   0.507   0.433  0.00  0.00    -0.092 NA
ATOM     19  H   UNL     1       2.652  -1.540  -0.235  0.00  0.00    +0.155 HD
ENDROOT
BRANCH   1  24
ATOM     20  C   UNL     1       1.138   4.639  -5.312  0.00  0.00    +0.044 C 
ATOM     21  C   UNL     1       1.226   4.016  -3.943  0.00  0.00    -0.050 A 
ATOM     22  C   UNL     1       1.057   4.799  -2.816  0.00  0.00    +0.004 A 
ATOM     23  C   UNL     1       1.137   4.228  -1.560  0.00  0.00    +0.006 A 
ATOM     24  C   UNL     1       1.386   2.874  -1.430  0.00  0.00    -0.019 A 
ATOM     25  C   UNL     1       1.560   2.093  -2.557  0.00  0.00    +0.006 A 
ATOM     26  C   UNL     1       1.475   2.663  -3.813  0.00  0.00    +0.004 A 
ENDBRANCH   1  24
BRANCH  11  27
ATOM     27  C   UNL     1      -1.500   1.322  -1.348  0.00  0.00    +0.042 A 
ATOM     28  C   UNL     1      -1.570   0.134  -2.052  0.00  0.00    +0.015 A 
ATOM     29  C   UNL     1      -2.076   0.117  -3.338  0.00  0.00    +0.050 A 
ATOM     30  C   UNL     1      -2.506   1.295  -3.931  0.00  0.00    +0.165 A 
ATOM     31  C   UNL     1      -2.432   2.492  -3.229  0.00  0.00    +0.204 A 
ATOM     32  C   UNL     1      -1.927   2.503  -1.934  0.00  0.00    +0.172 A 
BRANCH  32  33
ATOM     33  O   UNL     1      -1.853   3.672  -1.243  0.00  0.00    -0.491 OA
ATOM     34  C   UNL     1      -3.029   4.090  -0.546  0.00  0.00    +0.277 C 
ENDBRANCH  32  33
BRANCH  31  35
ATOM     35  O   UNL     1      -2.853   3.649  -3.808  0.00  0.00    -0.488 OA
ATOM     36  C   UNL     1      -1.922   4.328  -4.654  0.00  0.00    +0.277 C 
ENDBRANCH  31  35
BRANCH  30  37
ATOM     37  O   UNL     1      -2.999   1.278  -5.199  0.00  0.00    -0.491 OA
ATOM     38  C   UNL     1      -3.045   0.012  -5.860  0.00  0.00    +0.277 C 
ENDBRANCH  30  37
ENDBRANCH  11  27
TORSDOF 5
