REMARK  Name = ZINC40905296
REMARK  7 active torsions:
REMARK  status: ('A' for Active; 'I' for Inactive)
REMARK    1  A    between atoms: C_3  and  N_35
REMARK    2  A    between atoms: C_6  and  C_7
REMARK    3  A    between atoms: C_7  and  N_8
REMARK    4  A    between atoms: C_9  and  C_11
REMARK    5  A    between atoms: N_14  and  C_17
REMARK    6  A    between atoms: C_20  and  C_24
REMARK    7  A    between atoms: C_26  and  C_29
REMARK                            x       y       z     vdW  Elec       q    Type
REMARK                         _______ _______ _______ _____ _____    ______ ____
ROOT
ATOM      1  C   UNL     1      -3.315  -1.940  -3.024  0.00  0.00    +0.078 C 
ATOM      2  C   UNL     1      -2.244  -2.748  -3.761  0.00  0.00    +0.031 C 
ATOM      3  C   UNL     1      -2.685  -2.970  -5.211  0.00  0.00    +0.106 C 
ATOM      4  N   UNL     1      -4.017  -3.590  -5.211  0.00  0.00    -0.328 N 
ATOM      5  C   UNL     1      -5.099  -2.942  -4.457  0.00  0.00    +0.106 C 
ATOM      6  C   UNL     1      -4.631  -2.721  -3.015  0.00  0.00    +0.031 C 
ENDROOT
BRANCH   4   7
ATOM      7  C   UNL     1      -4.250  -4.773  -5.914  0.00  0.00    +0.065 A 
ATOM      8  C   UNL     1      -4.074  -6.000  -5.286  0.00  0.00    +0.027 A 
ATOM      9  C   UNL     1      -4.304  -7.170  -5.979  0.00  0.00    +0.013 A 
ATOM     10  C   UNL     1      -4.713  -7.123  -7.311  0.00  0.00    +0.025 A 
ATOM     11  C   UNL     1      -4.891  -5.891  -7.940  0.00  0.00    +0.052 A 
ATOM     12  C   UNL     1      -4.665  -4.722  -7.242  0.00  0.00    +0.145 A 
ATOM     13  F   UNL     1      -4.842  -3.529  -7.849  0.00  0.00    -0.204 F 
BRANCH  10  14
ATOM     14  C   UNL     1      -4.960  -8.381  -8.057  0.00  0.00    +0.202 A 
ATOM     15  N   UNL     1      -5.351  -8.465  -9.338  0.00  0.00    -0.187 NA
ATOM     16  C   UNL     1      -5.477  -9.723  -9.686  0.00  0.00    +0.259 A 
ATOM     17  O   UNL     1      -5.167 -10.487  -8.624  0.00  0.00    -0.332 OA
ATOM     18  N   UNL     1      -4.828  -9.593  -7.574  0.00  0.00    -0.056 NA
BRANCH  16  19
ATOM     19  C   UNL     1      -5.890 -10.218 -11.018  0.00  0.00    +0.042 A 
ATOM     20  C   UNL     1      -6.185  -9.327 -12.056  0.00  0.00    +0.033 A 
ATOM     21  C   UNL     1      -6.567  -9.832 -13.283  0.00  0.00    +0.111 A 
ATOM     22  N   UNL     1      -6.655 -11.133 -13.482  0.00  0.00    -0.263 NA
ATOM     23  C   UNL     1      -6.386 -12.006 -12.532  0.00  0.00    +0.111 A 
ATOM     24  C   UNL     1      -5.991 -11.589 -11.277  0.00  0.00    +0.033 A 
ENDBRANCH  16  19
ENDBRANCH  10  14
ENDBRANCH   4   7
BRANCH   1  26
ATOM     25  N   UNL     1      -1.727  -1.016  -1.368  0.00  0.00    -0.311 N 
ATOM     26  C   UNL     1      -2.869  -1.691  -1.606  0.00  0.00    +0.216 C 
ATOM     27  O   UNL     1      -3.537  -2.098  -0.680  0.00  0.00    -0.276 OA
ATOM     28  H   UNL     1      -1.192  -0.690  -2.108  0.00  0.00    +0.149 HD
BRANCH  25  29
ATOM     29  C   UNL     1      -1.294  -0.774   0.011  0.00  0.00    +0.139 C 
BRANCH  29  35
ATOM     30  C   UNL     1      -0.017   1.379   0.010  0.00  0.00    +0.007 A 
ATOM     31  C   UNL     1       1.169   2.087   0.002  0.00  0.00    +0.023 A 
ATOM     32  C   UNL     1       2.381   1.409  -0.013  0.00  0.00    +0.030 A 
ATOM     33  C   UNL     1       2.396   0.020  -0.021  0.00  0.00    +0.023 A 
ATOM     34  C   UNL     1       1.207  -0.682  -0.013  0.00  0.00    +0.007 A 
ATOM     35  C   UNL     1       0.002  -0.004   0.002  0.00  0.00    -0.030 A 
BRANCH  32  36
ATOM     36  N   UNL     1       3.582   2.122  -0.021  0.00  0.00    -0.330 N 
ATOM     37  C   UNL     1       3.709   3.587  -0.009  0.00  0.00    +0.105 C 
ATOM     38  C   UNL     1       5.216   3.917  -0.051  0.00  0.00    +0.020 C 
ATOM     39  C   UNL     1       5.837   2.629  -0.655  0.00  0.00    +0.020 C 
ATOM     40  C   UNL     1       4.932   1.531  -0.037  0.00  0.00    +0.105 C 
ENDBRANCH  32  36
ENDBRANCH  29  35
ENDBRANCH  25  29
ENDBRANCH   1  26
TORSDOF 7
