REMARK  Name = ZINC43542861
REMARK  9 active torsions:
REMARK  status: ('A' for Active; 'I' for Inactive)
REMARK    1  A    between atoms: C_1  and  C_2
REMARK    2  A    between atoms: C_2  and  C_3
REMARK    3  A    between atoms: C_3  and  C_4
REMARK    4  A    between atoms: C_4  and  C_5
REMARK    5  A    between atoms: C_5  and  O_6
REMARK    6  A    between atoms: O_6  and  C_7
REMARK    7  A    between atoms: C_7  and  C_9
REMARK    8  A    between atoms: N_20  and  C_22
REMARK    9  A    between atoms: C_22  and  C_23
REMARK                            x       y       z     vdW  Elec       q    Type
REMARK                         _______ _______ _______ _____ _____    ______ ____
ROOT
ATOM      1  C   UNL     1       2.130  -6.049  -3.654  0.00  0.00    +0.145 C 
ATOM      2  C   UNL     1       2.990  -6.635  -2.487  0.00  0.00    +0.157 C 
ATOM      3  C   UNL     1       4.338  -5.905  -2.517  0.00  0.00    +0.004 C 
ATOM      4  C   UNL     1       5.015  -6.362  -3.578  0.00  0.00    +0.008 C 
ATOM      5  C   UNL     1       4.075  -7.328  -4.206  0.00  0.00    +0.116 C 
ATOM      6  C   UNL     1       2.922  -6.506  -4.891  0.00  0.00    +0.129 C 
ATOM      7  C   UNL     1       2.245  -7.559  -5.723  0.00  0.00    +0.223 C 
ATOM      8  O   UNL     1       1.089  -7.530  -6.087  0.00  0.00    -0.275 OA
ATOM      9  N   UNL     1       3.132  -8.548  -6.002  0.00  0.00    -0.293 N 
ATOM     10  C   UNL     1       4.444  -8.291  -5.292  0.00  0.00    +0.148 C 
ATOM     11  O   UNL     1       3.361  -7.935  -3.075  0.00  0.00    -0.359 OA
ENDROOT
BRANCH   1  12
ATOM     12  C   UNL     1       2.071  -4.545  -3.577  0.00  0.00    +0.314 C 
ATOM     13  O   UNL     1       2.560  -3.876  -4.455  0.00  0.00    -0.250 OA
BRANCH  12  14
ATOM     14  O   UNL     1       1.474  -3.950  -2.532  0.00  0.00    -0.464 OA
BRANCH  14  15
ATOM     15  C   UNL     1       1.455  -2.521  -2.524  0.00  0.00    +0.232 C 
BRANCH  15  16
ATOM     16  C   UNL     1       0.739  -2.027  -1.265  0.00  0.00    +0.041 C 
BRANCH  16  17
ATOM     17  C   UNL     1       0.718  -0.497  -1.257  0.00  0.00    +0.003 C 
BRANCH  17  19
ATOM     18  C   UNL     1      -0.019   1.526   0.010  0.00  0.00    +0.004 C 
ATOM     19  C   UNL     1       0.002  -0.004   0.002  0.00  0.00    -0.003 C 
ENDBRANCH  17  19
ENDBRANCH  16  17
ENDBRANCH  15  16
ENDBRANCH  14  15
ENDBRANCH  12  14
ENDBRANCH   1  12
BRANCH   9  20
ATOM     20  C   UNL     1       2.860  -9.682  -6.889  0.00  0.00    +0.150 C 
BRANCH  20  21
ATOM     21  C   UNL     1       3.254  -9.323  -8.299  0.00  0.00    +0.007 A 
ATOM     22  C   UNL     1       4.445  -9.494  -8.922  0.00  0.00    +0.013 A 
ATOM     23  C   UNL     1       4.579  -9.085 -10.236  0.00  0.00    +0.008 A 
ATOM     24  C   UNL     1       3.515  -8.524 -10.861  0.00  0.00    +0.045 A 
ATOM     25  S   UNL     1       2.270  -8.568  -9.583  0.00  0.00    -0.100 S 
ENDBRANCH  20  21
ENDBRANCH   9  20
TORSDOF 8
