REMARK  Name = ZINC21242592
REMARK  8 active torsions:
REMARK  status: ('A' for Active; 'I' for Inactive)
REMARK    1  A    between atoms: C_1  and  C_2
REMARK    2  A    between atoms: C_2  and  N_3
REMARK    3  A    between atoms: C_12  and  S_13
REMARK    4  A    between atoms: S_13  and  C_14
REMARK    5  A    between atoms: C_14  and  C_15
REMARK    6  A    between atoms: C_17  and  O_29
REMARK    7  A    between atoms: C_23  and  C_25
REMARK    8  A    between atoms: C_31  and  C_35
REMARK                            x       y       z     vdW  Elec       q    Type
REMARK                         _______ _______ _______ _____ _____    ______ ____
ROOT
ATOM      1  S   UNL     1       3.395  -0.511  -0.331  0.00  0.00    -0.083 S 
ENDROOT
BRANCH   1  11
ATOM      2  N   UNL     1       1.045  -0.530  -1.678  0.00  0.00    -0.288 N 
ATOM      3  C   UNL     1       0.211  -0.849  -2.685  0.00  0.00    +0.263 A 
ATOM      4  O   UNL     1      -0.942  -0.452  -2.681  0.00  0.00    -0.267 OA
ATOM      5  C   UNL     1       0.696  -1.658  -3.760  0.00  0.00    +0.076 A 
ATOM      6  C   UNL     1      -0.028  -2.122  -4.945  0.00  0.00    -0.023 A 
ATOM      7  C   UNL     1       0.657  -2.882  -5.823  0.00  0.00    -0.004 A 
ATOM      8  S   UNL     1       2.285  -3.023  -5.137  0.00  0.00    -0.073 S 
ATOM      9  C   UNL     1       2.039  -2.059  -3.667  0.00  0.00    +0.117 A 
ATOM     10  N   UNL     1       2.811  -1.711  -2.644  0.00  0.00    -0.216 NA
ATOM     11  C   UNL     1       2.340  -0.960  -1.669  0.00  0.00    +0.173 A 
ATOM     12  C   UNL     1       0.148  -3.476  -7.101  0.00  0.00    +0.046 C 
ATOM     13  C   UNL     1      -1.385  -3.406  -7.090  0.00  0.00    -0.009 C 
ATOM     14  C   UNL     1      -1.809  -1.995  -6.673  0.00  0.00    +0.008 C 
ATOM     15  C   UNL     1      -1.493  -1.773  -5.194  0.00  0.00    +0.037 C 
ATOM     16  C   UNL     1      -1.923  -3.715  -8.489  0.00  0.00    +0.008 C 
BRANCH   2  18
ATOM     17  C   UNL     1       0.783   1.774  -0.903  0.00  0.00    +0.027 C 
ATOM     18  C   UNL     1       0.554   0.298  -0.574  0.00  0.00    +0.124 C 
ENDBRANCH   2  18
ENDBRANCH   1  11
BRANCH   1  19
ATOM     19  C   UNL     1       4.981  -1.290  -0.741  0.00  0.00    +0.113 C 
BRANCH  19  20
ATOM     20  C   UNL     1       5.987  -0.981   0.337  0.00  0.00    -0.020 A 
ATOM     21  C   UNL     1       6.559   0.272   0.430  0.00  0.00    +0.092 A 
ATOM     22  C   UNL     1       7.483   0.539   1.430  0.00  0.00    +0.285 A 
ATOM     23  O   UNL     1       7.839  -0.397   2.316  0.00  0.00    -0.425 OA
ATOM     24  C   UNL     1       7.311  -1.638   2.271  0.00  0.00    +0.141 A 
ATOM     25  C   UNL     1       7.688  -2.597   3.195  0.00  0.00    +0.070 A 
ATOM     26  C   UNL     1       7.130  -3.875   3.132  0.00  0.00    +0.037 A 
ATOM     27  N   UNL     1       7.499  -4.820   4.040  0.00  0.00    -0.286 N 
ATOM     28  C   UNL     1       6.767  -5.905   4.197  0.00  0.00    +0.214 C 
ATOM     29  O   UNL     1       5.697  -6.006   3.623  0.00  0.00    -0.276 OA
ATOM     30  C   UNL     1       7.254  -7.021   5.084  0.00  0.00    +0.109 C 
ATOM     31  C   UNL     1       6.189  -4.191   2.137  0.00  0.00    +0.024 A 
ATOM     32  C   UNL     1       5.812  -3.257   1.225  0.00  0.00    +0.013 A 
ATOM     33  C   UNL     1       6.361  -1.964   1.278  0.00  0.00    +0.022 A 
ATOM     34  H   UNL     1       8.301  -4.695   4.571  0.00  0.00    +0.155 HD
BRANCH  22  35
ATOM     35  O   UNL     1       8.034   1.765   1.509  0.00  0.00    -0.480 OA
ATOM     36  H   UNL     1       8.666   1.866   2.233  0.00  0.00    +0.295 HD
ENDBRANCH  22  35
ENDBRANCH  19  20
ENDBRANCH   1  19
TORSDOF 5
