REMARK  Name = ZINC41583517
REMARK  6 active torsions:
REMARK  status: ('A' for Active; 'I' for Inactive)
REMARK    1  A    between atoms: C_1  and  C_2
REMARK    2  A    between atoms: C_3  and  C_15
REMARK    3  A    between atoms: C_18  and  C_21
REMARK    4  A    between atoms: C_21  and  C_22
REMARK    5  A    between atoms: C_21  and  C_23
REMARK    6  A    between atoms: C_21  and  C_24
REMARK                            x       y       z     vdW  Elec       q    Type
REMARK                         _______ _______ _______ _____ _____    ______ ____
ROOT
ATOM      1  C   UNL     1      -0.018   1.503   0.010  0.00  0.00    +0.052 C 
ATOM      2  C   UNL     1       0.002  -0.004   0.002  0.00  0.00    -0.003 A 
ATOM      3  C   UNL     1      -1.048  -0.859   0.002  0.00  0.00    +0.006 A 
ATOM      4  C   UNL     1      -0.784  -2.295  -0.007  0.00  0.00    +0.078 A 
ATOM      5  C   UNL     1      -1.738  -3.423  -0.009  0.00  0.00    +0.263 A 
ATOM      6  O   UNL     1      -2.938  -3.214  -0.003  0.00  0.00    -0.267 OA
ATOM      7  N   UNL     1      -1.268  -4.683  -0.018  0.00  0.00    -0.275 N 
ATOM      8  H   UNL     1      -1.897  -5.420  -0.019  0.00  0.00    +0.173 HD
ATOM      9  C   UNL     1       0.049  -4.948  -0.026  0.00  0.00    +0.328 A 
ATOM     10  O   UNL     1       0.424  -6.105  -0.035  0.00  0.00    -0.247 OA
ATOM     11  N   UNL     1       0.962  -3.957  -0.025  0.00  0.00    -0.302 N 
ATOM     12  H   UNL     1       1.907  -4.174  -0.032  0.00  0.00    +0.171 HD
ATOM     13  C   UNL     1       0.567  -2.649  -0.016  0.00  0.00    +0.095 A 
ATOM     14  S   UNL     1       1.415  -1.092  -0.018  0.00  0.00    -0.075 S 
ENDROOT
BRANCH   3  15
ATOM     15  C   UNL     1      -2.439  -0.347   0.012  0.00  0.00    -0.016 A 
ATOM     16  C   UNL     1      -3.264  -0.585   1.110  0.00  0.00    +0.009 A 
ATOM     17  C   UNL     1      -4.559  -0.105   1.113  0.00  0.00    +0.005 A 
ATOM     18  C   UNL     1      -5.037   0.610   0.030  0.00  0.00    -0.042 A 
ATOM     19  C   UNL     1      -4.223   0.849  -1.062  0.00  0.00    +0.005 A 
ATOM     20  C   UNL     1      -2.925   0.379  -1.075  0.00  0.00    +0.009 A 
BRANCH  18  21
ATOM     21  C   UNL     1      -6.452   1.130   0.040  0.00  0.00    -0.013 C 
ATOM     22  C   UNL     1      -6.637   2.081   1.224  0.00  0.00    +0.015 C 
ATOM     23  C   UNL     1      -6.728   1.879  -1.265  0.00  0.00    +0.015 C 
ATOM     24  C   UNL     1      -7.425  -0.043   0.170  0.00  0.00    +0.015 C 
ENDBRANCH  18  21
ENDBRANCH   3  15
TORSDOF 2
