REMARK  Name = ZINC00726579
REMARK  10 active torsions:
REMARK  status: ('A' for Active; 'I' for Inactive)
REMARK    1  A    between atoms: C_1  and  C_2
REMARK    2  A    between atoms: C_3  and  C_23
REMARK    3  A    between atoms: C_4  and  C_16
REMARK    4  A    between atoms: C_10  and  C_14
REMARK    5  A    between atoms: C_10  and  C_15
REMARK    6  A    between atoms: C_20  and  O_22
REMARK    7  A    between atoms: C_23  and  O_25
REMARK    8  A    between atoms: O_25  and  C_26
REMARK    9  A    between atoms: C_26  and  C_27
REMARK   10  A    between atoms: C_26  and  C_28
REMARK                            x       y       z     vdW  Elec       q    Type
REMARK                         _______ _______ _______ _____ _____    ______ ____
ROOT
ATOM      1  C   UNL     1       0.491   3.201   4.381  0.00  0.00    +0.061 C 
ATOM      2  C   UNL     1      -0.459   2.595   3.381  0.00  0.00    +0.031 C 
ATOM      3  C   UNL     1      -1.778   2.832   3.483  0.00  0.00    +0.154 C 
ATOM      4  C   UNL     1      -2.752   2.242   2.510  0.00  0.00    +0.073 C 
ATOM      5  C   UNL     1      -2.052   1.772   1.259  0.00  0.00    +0.025 C 
ATOM      6  C   UNL     1      -0.718   1.572   1.250  0.00  0.00    +0.049 C 
ATOM      7  N   UNL     1       0.027   1.808   2.374  0.00  0.00    -0.260 NA
ATOM      8  C   UNL     1      -0.012   1.086   0.008  0.00  0.00    +0.062 C 
ATOM      9  C   UNL     1      -0.750   1.599  -1.233  0.00  0.00    -0.023 C 
ATOM     10  C   UNL     1      -2.196   1.095  -1.180  0.00  0.00    +0.086 C 
ATOM     11  C   UNL     1      -2.827   1.550   0.107  0.00  0.00    +0.162 C 
ATOM     12  O   UNL     1      -4.027   1.729   0.152  0.00  0.00    -0.292 OA
ATOM     13  C   UNL     1      -0.740   3.129  -1.244  0.00  0.00    +0.011 C 
ATOM     14  C   UNL     1      -0.062   1.071  -2.494  0.00  0.00    +0.011 C 
ENDROOT
BRANCH   4  15
ATOM     15  C   UNL     1      -3.445   1.071   3.158  0.00  0.00    -0.035 A 
ATOM     16  C   UNL     1      -2.711  -0.027   3.567  0.00  0.00    +0.004 A 
ATOM     17  C   UNL     1      -3.343  -1.100   4.166  0.00  0.00    +0.004 A 
ATOM     18  C   UNL     1      -4.713  -1.083   4.348  0.00  0.00    +0.045 A 
ATOM     19  C   UNL     1      -5.452   0.015   3.934  0.00  0.00    +0.117 A 
ATOM     20  C   UNL     1      -4.814   1.093   3.337  0.00  0.00    +0.049 A 
BRANCH  19  21
ATOM     21  O   UNL     1      -6.799   0.035   4.112  0.00  0.00    -0.507 OA
ATOM     22  H   UNL     1      -7.300  -0.333   3.371  0.00  0.00    +0.292 HD
ENDBRANCH  19  21
ENDBRANCH   4  15
BRANCH   3  23
ATOM     23  C   UNL     1      -2.256   3.655   4.530  0.00  0.00    +0.317 C 
ATOM     24  O   UNL     1      -1.474   4.141   5.326  0.00  0.00    -0.250 OA
BRANCH  23  25
ATOM     25  O   UNL     1      -3.577   3.901   4.645  0.00  0.00    -0.461 OA
BRANCH  25  26
ATOM     26  C   UNL     1      -3.989   4.740   5.725  0.00  0.00    +0.170 C 
ATOM     27  C   UNL     1      -5.255   5.501   5.326  0.00  0.00    +0.052 C 
ATOM     28  C   UNL     1      -4.278   3.881   6.958  0.00  0.00    +0.052 C 
ENDBRANCH  25  26
ENDBRANCH  23  25
ENDBRANCH   3  23
TORSDOF 5
