REMARK  Name = ZINC62425941
REMARK  5 active torsions:
REMARK  status: ('A' for Active; 'I' for Inactive)
REMARK    1  A    between atoms: C_1  and  C_2
REMARK    2  A    between atoms: C_8  and  C_14
REMARK    3  A    between atoms: C_9  and  C_12
REMARK    4  A    between atoms: C_14  and  C_15
REMARK    5  A    between atoms: C_15  and  C_16
REMARK                            x       y       z     vdW  Elec       q    Type
REMARK                         _______ _______ _______ _____ _____    ______ ____
ROOT
ATOM      1  C   UNL     1      -0.018   1.503   0.010  0.00  0.00    +0.066 C 
ATOM      2  C   UNL     1       0.002  -0.004   0.002  0.00  0.00    +0.048 A 
ATOM      3  C   UNL     1       0.006  -0.707  -1.159  0.00  0.00    +0.071 A 
ATOM      4  S   UNL     1       0.032  -2.379  -0.535  0.00  0.00    -0.056 S 
ATOM      5  C   UNL     1       0.035  -2.014   1.108  0.00  0.00    +0.196 A 
ATOM      6  N   UNL     1       0.023  -0.699   1.122  0.00  0.00    -0.226 NA
ATOM      7  N   UNL     1       0.052  -2.892   2.192  0.00  0.00    -0.191 N 
ATOM      8  C   UNL     1       0.076  -4.244   2.135  0.00  0.00    +0.085 A 
ATOM      9  C   UNL     1       0.086  -4.692   3.425  0.00  0.00    +0.185 A 
ATOM     10  N   UNL     1       0.068  -3.628   4.246  0.00  0.00    -0.118 NA
ATOM     11  N   UNL     1       0.054  -2.545   3.550  0.00  0.00    -0.057 NA
ENDROOT
BRANCH   9  12
ATOM     12  C   UNL     1       0.111  -6.064   3.834  0.00  0.00    +0.123 C 
ATOM     13  N   UNL     1       0.130  -7.152   4.159  0.00  0.00    -0.189 NA
ENDBRANCH   9  12
BRANCH   8  14
ATOM     14  C   UNL     1       0.089  -5.091   0.889  0.00  0.00    +0.059 C 
BRANCH  14  15
ATOM     15  C   UNL     1       1.535  -5.352   0.464  0.00  0.00    +0.010 C 
BRANCH  15  16
ATOM     16  C   UNL     1       1.548  -6.212  -0.801  0.00  0.00    -0.011 C 
ATOM     17  C   UNL     1       0.964  -7.591  -0.486  0.00  0.00    +0.003 C 
ATOM     18  C   UNL     1       0.977  -8.451  -1.752  0.00  0.00    +0.000 C 
ATOM     19  C   UNL     1       2.416  -8.608  -2.247  0.00  0.00    +0.000 C 
ATOM     20  C   UNL     1       3.000  -7.230  -2.561  0.00  0.00    +0.000 C 
ATOM     21  C   UNL     1       2.987  -6.370  -1.296  0.00  0.00    +0.003 C 
ENDBRANCH  15  16
ENDBRANCH  14  15
ENDBRANCH   8  14
TORSDOF 4
