REMARK  Name = ZINC60372042
REMARK  7 active torsions:
REMARK  status: ('A' for Active; 'I' for Inactive)
REMARK    1  A    between atoms: C_1  and  C_2
REMARK    2  A    between atoms: C_2  and  C_3
REMARK    3  A    between atoms: C_2  and  O_4
REMARK    4  A    between atoms: O_4  and  C_5
REMARK    5  A    between atoms: C_10  and  C_11
REMARK    6  A    between atoms: N_13  and  C_14
REMARK    7  A    between atoms: C_14  and  C_15
REMARK                            x       y       z     vdW  Elec       q    Type
REMARK                         _______ _______ _______ _____ _____    ______ ____
ROOT
ATOM      1  C   UNL     1      -4.010  -1.401  -0.179  0.00  0.00    +0.248 C 
ATOM      2  O   UNL     1      -3.801  -0.379   0.447  0.00  0.00    -0.270 OA
ATOM      3  N   UNL     1      -5.267  -1.872  -0.299  0.00  0.00    -0.306 N 
ATOM      4  H   UNL     1      -5.434  -2.686  -0.798  0.00  0.00    +0.149 HD
ENDROOT
BRANCH   1  10
ATOM      5  C   UNL     1      -1.580  -1.637  -0.685  0.00  0.00    +0.134 A 
ATOM      6  C   UNL     1      -0.532  -2.328  -1.275  0.00  0.00    +0.061 A 
ATOM      7  C   UNL     1      -0.779  -3.487  -1.985  0.00  0.00    +0.021 A 
ATOM      8  C   UNL     1      -2.074  -3.968  -2.112  0.00  0.00    +0.016 A 
ATOM      9  C   UNL     1      -3.126  -3.294  -1.533  0.00  0.00    +0.018 A 
ATOM     10  C   UNL     1      -2.889  -2.124  -0.807  0.00  0.00    +0.078 A 
ATOM     11 BR   UNL     1       0.655  -4.423  -2.786  0.00  0.00    -0.050 Br
BRANCH   5  12
ATOM     12  O   UNL     1      -1.339  -0.499   0.012  0.00  0.00    -0.489 OA
BRANCH  12  14
ATOM     13  C   UNL     1      -0.011   1.505   0.263  0.00  0.00    +0.051 C 
ATOM     14  C   UNL     1       0.001  -0.002  -0.000  0.00  0.00    +0.167 C 
ATOM     15  C   UNL     1       0.815  -0.703   1.089  0.00  0.00    +0.051 C 
ENDBRANCH  12  14
ENDBRANCH   5  12
ENDBRANCH   1  10
BRANCH   3  16
ATOM     16  C   UNL     1      -6.381  -1.153   0.325  0.00  0.00    +0.159 C 
BRANCH  16  17
ATOM     17  C   UNL     1      -7.670  -1.883   0.043  0.00  0.00    +0.051 A 
ATOM     18  C   UNL     1      -8.524  -1.621  -0.966  0.00  0.00    +0.110 A 
ATOM     19  N   UNL     1      -9.551  -2.510  -0.852  0.00  0.00    -0.336 N 
ATOM     20  C   UNL     1      -9.293  -3.288   0.226  0.00  0.00    +0.087 A 
ATOM     21  N   UNL     1      -8.165  -2.911   0.751  0.00  0.00    -0.346 N 
ATOM     22  C   UNL     1     -10.197  -4.403   0.698  0.00  0.00    +0.072 C 
ATOM     23  C   UNL     1     -11.567  -4.224   0.030  0.00  0.00    +0.009 C 
ATOM     24  C   UNL     1     -11.372  -4.006  -1.473  0.00  0.00    +0.022 C 
ATOM     25  C   UNL     1     -10.730  -2.635  -1.712  0.00  0.00    +0.123 C 
ATOM     26  H   UNL     1      -7.747  -3.308   1.532  0.00  0.00    +0.167 HD
ENDBRANCH  16  17
ENDBRANCH   3  16
TORSDOF 5
