REMARK  Name = ZINC22799968
REMARK  11 active torsions:
REMARK  status: ('A' for Active; 'I' for Inactive)
REMARK    1  A    between atoms: C_1  and  C_2
REMARK    2  A    between atoms: C_2  and  C_3
REMARK    3  A    between atoms: C_2  and  C_4
REMARK    4  A    between atoms: C_2  and  N_5
REMARK    5  A    between atoms: C_6  and  C_8
REMARK    6  A    between atoms: C_8  and  N_9
REMARK    7  A    between atoms: N_12  and  C_15
REMARK    8  A    between atoms: C_15  and  N_16
REMARK    9  A    between atoms: C_19  and  C_23
REMARK   10  A    between atoms: C_19  and  C_30
REMARK   11  A    between atoms: C_23  and  C_24
REMARK                            x       y       z     vdW  Elec       q    Type
REMARK                         _______ _______ _______ _____ _____    ______ ____
ROOT
ATOM      1  N   UNL     1       4.301  -1.917  -1.619  0.00  0.00    -0.210 N 
ATOM      2  C   UNL     1       4.221  -0.580  -1.771  0.00  0.00    +0.252 C 
ATOM      3  O   UNL     1       4.417   0.055  -2.784  0.00  0.00    -0.272 OA
ATOM      4  C   UNL     1       3.835  -0.035  -0.409  0.00  0.00    +0.142 C 
ATOM      5  N   UNL     1       3.733  -1.242   0.430  0.00  0.00    -0.281 N 
ATOM      6  C   UNL     1       4.022  -2.288  -0.364  0.00  0.00    +0.311 C 
ATOM      7  O   UNL     1       4.030  -3.443   0.015  0.00  0.00    -0.252 OA
ATOM      8  H   UNL     1       3.461  -1.152   1.492  0.00  0.00    +0.152 HD
ENDROOT
BRANCH   4   9
ATOM      9  C   UNL     1       2.508   0.676  -0.479  0.00  0.00    -0.015 A 
ATOM     10  C   UNL     1       1.335  -0.027  -0.275  0.00  0.00    +0.006 A 
ATOM     11  C   UNL     1       0.118   0.625  -0.339  0.00  0.00    +0.000 A 
ATOM     12  C   UNL     1       0.074   1.980  -0.607  0.00  0.00    +0.000 A 
ATOM     13  C   UNL     1       1.246   2.683  -0.810  0.00  0.00    +0.000 A 
ATOM     14  C   UNL     1       2.463   2.031  -0.748  0.00  0.00    +0.006 A 
ENDBRANCH   4   9
BRANCH   1  15
ATOM     15  C   UNL     1       4.649  -2.847  -2.695  0.00  0.00    +0.205 C 
BRANCH  15  19
ATOM     16  N   UNL     1       8.633  -3.430  -3.973  0.00  0.00    +0.387 N 
ATOM     17  C   UNL     1       7.969  -4.532  -3.265  0.00  0.00    -0.063 C 
ATOM     18  C   UNL     1       6.453  -4.335  -3.326  0.00  0.00    +0.067 C 
ATOM     19  N   UNL     1       6.105  -3.041  -2.724  0.00  0.00    -0.290 NA
ATOM     20  C   UNL     1       6.769  -1.938  -3.432  0.00  0.00    +0.067 C 
ATOM     21  C   UNL     1       8.285  -2.135  -3.371  0.00  0.00    -0.063 C 
ATOM     22  H   UNL     1       8.273  -3.428  -5.013  0.00  0.00    -0.081 HD
BRANCH  16  23
ATOM     23  C   UNL     1      10.089  -3.623  -4.002  0.00  0.00    +0.019 C 
BRANCH  23  25
ATOM     24  N   UNL     1      11.689  -5.277  -4.909  0.00  0.00    -0.312 N 
ATOM     25  C   UNL     1      10.419  -4.830  -4.841  0.00  0.00    +0.197 C 
ATOM     26  O   UNL     1       9.543  -5.399  -5.457  0.00  0.00    -0.278 OA
ATOM     27  H   UNL     1      12.484  -4.761  -4.350  0.00  0.00    +0.149 HD
BRANCH  24  29
ATOM     28  C   UNL     1      11.638  -6.175  -7.183  0.00  0.00    +0.031 C 
ATOM     29  C   UNL     1      12.010  -6.450  -5.725  0.00  0.00    +0.026 C 
ATOM     30  C   UNL     1      13.508  -6.745  -5.628  0.00  0.00    +0.031 C 
ATOM     31  C   UNL     1      11.219  -7.657  -5.216  0.00  0.00    +0.031 C 
ENDBRANCH  24  29
ENDBRANCH  23  25
ENDBRANCH  16  23
ENDBRANCH  15  19
ENDBRANCH   1  15
BRANCH   4  32
ATOM     32  C   UNL     1       4.920   0.904   0.122  0.00  0.00    +0.075 C 
BRANCH  32  33
ATOM     33  C   UNL     1       6.234   0.170   0.182  0.00  0.00    -0.045 A 
ATOM     34  C   UNL     1       6.594  -0.511   1.330  0.00  0.00    +0.004 A 
ATOM     35  C   UNL     1       7.798  -1.188   1.383  0.00  0.00    +0.000 A 
ATOM     36  C   UNL     1       8.646  -1.177   0.292  0.00  0.00    +0.000 A 
ATOM     37  C   UNL     1       8.289  -0.492  -0.854  0.00  0.00    +0.000 A 
ATOM     38  C   UNL     1       7.083   0.182  -0.909  0.00  0.00    +0.004 A 
ENDBRANCH  32  33
ENDBRANCH   4  32
TORSDOF 8
