REMARK  Name = ZINC00433893
REMARK  7 active torsions:
REMARK  status: ('A' for Active; 'I' for Inactive)
REMARK    1  A    between atoms: C_1  and  C_2
REMARK    2  A    between atoms: C_3  and  C_7
REMARK    3  A    between atoms: N_9  and  C_10
REMARK    4  A    between atoms: C_11  and  C_21
REMARK    5  A    between atoms: C_16  and  C_20
REMARK    6  A    between atoms: C_21  and  O_23
REMARK    7  A    between atoms: O_23  and  C_24
REMARK                            x       y       z     vdW  Elec       q    Type
REMARK                         _______ _______ _______ _____ _____    ______ ____
ROOT
ATOM      1  C   UNL     1      -1.287  -2.810  -1.188  0.00  0.00    +0.087 A 
ATOM      2  C   UNL     1      -1.248  -2.096   0.003  0.00  0.00    +0.091 A 
ATOM      3  C   UNL     1      -1.260  -2.856   1.241  0.00  0.00    -0.021 A 
ATOM      4  C   UNL     1      -1.318  -4.197   1.093  0.00  0.00    -0.004 A 
ATOM      5  S   UNL     1      -1.345  -4.458  -0.658  0.00  0.00    -0.077 S 
ATOM      6  C   UNL     1      -1.346  -5.226   2.180  0.00  0.00    +0.046 C 
ATOM      7  C   UNL     1      -0.929  -4.552   3.495  0.00  0.00    -0.009 C 
ATOM      8  C   UNL     1      -1.716  -3.247   3.651  0.00  0.00    +0.008 C 
ATOM      9  C   UNL     1      -1.229  -2.221   2.626  0.00  0.00    +0.037 C 
ATOM     10  C   UNL     1      -1.237  -5.483   4.670  0.00  0.00    +0.008 C 
ENDROOT
BRANCH   1  13
ATOM     11  C   UNL     1      -1.323  -3.176  -3.526  0.00  0.00    +0.252 C 
ATOM     12  O   UNL     1      -1.367  -4.375  -3.328  0.00  0.00    -0.270 OA
ATOM     13  N   UNL     1      -1.281  -2.322  -2.485  0.00  0.00    -0.275 N 
ATOM     14  H   UNL     1      -1.246  -1.366  -2.643  0.00  0.00    +0.156 HD
BRANCH  11  17
ATOM     15  C   UNL     1      -1.414  -4.886  -6.154  0.00  0.00    +0.087 C 
ATOM     16  C   UNL     1      -1.356  -3.384  -6.060  0.00  0.00    +0.114 A 
ATOM     17  C   UNL     1      -1.317  -2.658  -4.905  0.00  0.00    +0.078 A 
ATOM     18  C   UNL     1      -1.273  -1.249  -5.325  0.00  0.00    +0.054 A 
ATOM     19  C   UNL     1      -1.280  -1.264  -6.666  0.00  0.00    +0.196 A 
ATOM     20  O   UNL     1      -1.333  -2.535  -7.092  0.00  0.00    -0.467 OA
ENDBRANCH  11  17
ENDBRANCH   1  13
BRANCH   2  21
ATOM     21  C   UNL     1      -1.191  -0.633   0.010  0.00  0.00    +0.342 C 
ATOM     22  O   UNL     1      -2.220   0.016   0.023  0.00  0.00    -0.245 OA
BRANCH  21  23
ATOM     23  O   UNL     1       0.002  -0.004   0.002  0.00  0.00    -0.464 OA
ATOM     24  C   UNL     1      -0.018   1.448   0.010  0.00  0.00    +0.280 C 
ENDBRANCH  21  23
ENDBRANCH   2  21
TORSDOF 4
