REMARK  Name = ZINC35393128
REMARK  16 active torsions:
REMARK  status: ('A' for Active; 'I' for Inactive)
REMARK    1  A    between atoms: C_1  and  C_2
REMARK    2  A    between atoms: C_2  and  C_34
REMARK    3  A    between atoms: C_7  and  C_11
REMARK    4  A    between atoms: C_11  and  S_12
REMARK    5  A    between atoms: S_12  and  N_15
REMARK    6  A    between atoms: N_15  and  C_16
REMARK    7  A    between atoms: N_15  and  C_20
REMARK    8  A    between atoms: C_16  and  C_17
REMARK    9  A    between atoms: C_17  and  O_18
REMARK   10  A    between atoms: O_18  and  C_19
REMARK   11  A    between atoms: C_20  and  C_21
REMARK   12  A    between atoms: C_24  and  O_32
REMARK   13  A    between atoms: C_25  and  O_27
REMARK   14  A    between atoms: O_27  and  S_28
REMARK   15  A    between atoms: S_28  and  C_31
REMARK   16  A    between atoms: O_32  and  C_33
REMARK                            x       y       z     vdW  Elec       q    Type
REMARK                         _______ _______ _______ _____ _____    ______ ____
ROOT
ATOM      1  N   UNL     1       4.516  -0.593   2.873  0.00  0.00    -0.175 NA
ENDROOT
BRANCH   1   2
ATOM      2  S   UNL     1       2.917  -1.021   2.863  0.00  0.00    +0.033 S 
ATOM      3  O   UNL     1       2.368  -0.402   4.019  0.00  0.00    -0.158 OA
ATOM      4  O   UNL     1       2.921  -2.436   2.733  0.00  0.00    -0.158 OA
BRANCH   2   5
ATOM      5  C   UNL     1       2.238  -0.258   1.364  0.00  0.00    +0.200 C 
BRANCH   5  11
ATOM      6  C   UNL     1      -0.019   1.526   0.010  0.00  0.00    +0.012 C 
ATOM      7  C   UNL     1       0.002  -0.004   0.002  0.00  0.00    -0.018 C 
ATOM      8  C   UNL     1      -1.400  -0.616   0.356  0.00  0.00    +0.003 C 
ATOM      9  C   UNL     1      -1.029  -2.124   0.492  0.00  0.00    +0.005 C 
ATOM     10  C   UNL     1       0.399  -2.119   1.085  0.00  0.00    +0.017 C 
ATOM     11  C   UNL     1       0.749  -0.591   1.251  0.00  0.00    +0.055 C 
ATOM     12  C   UNL     1      -0.152  -0.089   2.388  0.00  0.00    +0.142 C 
ATOM     13  O   UNL     1       0.188   0.246   3.498  0.00  0.00    -0.297 OA
ATOM     14  C   UNL     1      -1.563  -0.104   1.820  0.00  0.00    +0.079 C 
ATOM     15  C   UNL     1       0.557  -0.556  -1.312  0.00  0.00    +0.012 C 
ENDBRANCH   5  11
ENDBRANCH   2   5
ENDBRANCH   1   2
BRANCH   1  16
ATOM     16  C   UNL     1       4.940   0.642   3.538  0.00  0.00    +0.137 C 
BRANCH  16  17
ATOM     17  C   UNL     1       5.393   0.323   4.964  0.00  0.00    +0.176 C 
BRANCH  17  18
ATOM     18  O   UNL     1       6.559  -0.501   4.919  0.00  0.00    -0.382 OA
ATOM     19  C   UNL     1       7.068  -0.859   6.206  0.00  0.00    +0.194 C 
ENDBRANCH  17  18
ENDBRANCH  16  17
ENDBRANCH   1  16
BRANCH   1  20
ATOM     20  C   UNL     1       5.508  -1.448   2.216  0.00  0.00    +0.144 C 
BRANCH  20  21
ATOM     21  C   UNL     1       5.753  -0.949   0.815  0.00  0.00    -0.028 A 
ATOM     22  C   UNL     1       4.983  -1.423  -0.231  0.00  0.00    +0.009 A 
ATOM     23  C   UNL     1       5.204  -0.968  -1.517  0.00  0.00    +0.050 A 
ATOM     24  C   UNL     1       6.199  -0.034  -1.760  0.00  0.00    +0.164 A 
ATOM     25  C   UNL     1       6.974   0.443  -0.708  0.00  0.00    +0.198 A 
ATOM     26  C   UNL     1       6.744  -0.014   0.580  0.00  0.00    +0.057 A 
BRANCH  24  27
ATOM     27  O   UNL     1       6.419   0.414  -3.026  0.00  0.00    -0.491 OA
ATOM     28  C   UNL     1       5.586  -0.120  -4.057  0.00  0.00    +0.277 C 
ENDBRANCH  24  27
BRANCH  25  29
ATOM     29  O   UNL     1       7.952   1.359  -0.941  0.00  0.00    -0.343 OA
BRANCH  29  30
ATOM     30  S   UNL     1       7.483   2.803  -0.841  0.00  0.00    +0.118 S 
ATOM     31  O   UNL     1       8.558   3.570  -1.367  0.00  0.00    -0.137 OA
ATOM     32  O   UNL     1       6.209   2.816  -1.471  0.00  0.00    -0.137 OA
ATOM     33  C   UNL     1       7.305   3.114   0.937  0.00  0.00    +0.242 C 
ENDBRANCH  29  30
ENDBRANCH  25  29
ENDBRANCH  20  21
ENDBRANCH   1  20
TORSDOF 11
