REMARK  Name = ZINC03768208
REMARK  5 active torsions:
REMARK  status: ('A' for Active; 'I' for Inactive)
REMARK    1  A    between atoms: C_1  and  C_2
REMARK    2  A    between atoms: C_2  and  C_3
REMARK    3  A    between atoms: N_5  and  N_6
REMARK    4  A    between atoms: N_8  and  C_19
REMARK    5  A    between atoms: C_9  and  C_12
REMARK                            x       y       z     vdW  Elec       q    Type
REMARK                         _______ _______ _______ _____ _____    ______ ____
ROOT
ATOM      1  N   UNL     1      -1.187   1.210   3.619  0.00  0.00    -0.154 NA
ATOM      2  C   UNL     1      -0.642   1.053   4.797  0.00  0.00    +0.195 A 
ATOM      3  N   UNL     1       0.535   0.404   5.139  0.00  0.00    -0.287 N 
ATOM      4  C   UNL     1       0.901   0.379   6.462  0.00  0.00    +0.063 A 
ATOM      5  C   UNL     1       0.115   0.966   7.384  0.00  0.00    +0.075 A 
ATOM      6  S   UNL     1      -1.221   1.612   6.391  0.00  0.00    -0.056 S 
ENDROOT
BRANCH   4   7
ATOM      7  C   UNL     1       2.151  -0.297   6.873  0.00  0.00    -0.001 A 
ATOM      8  C   UNL     1       2.176  -1.079   8.029  0.00  0.00    +0.011 A 
ATOM      9  C   UNL     1       3.344  -1.711   8.405  0.00  0.00    +0.020 A 
ATOM     10  C   UNL     1       4.491  -1.562   7.644  0.00  0.00    +0.041 A 
ATOM     11  C   UNL     1       4.473  -0.783   6.500  0.00  0.00    +0.020 A 
ATOM     12  C   UNL     1       3.311  -0.150   6.111  0.00  0.00    +0.011 A 
ATOM     13 CL   UNL     1       5.958  -2.355   8.127  0.00  0.00    -0.084 Cl
ENDBRANCH   4   7
BRANCH   3  14
ATOM     14  C   UNL     1       1.330  -0.204   4.162  0.00  0.00    +0.049 A 
ATOM     15  C   UNL     1       1.907   0.563   3.158  0.00  0.00    +0.026 A 
ATOM     16  C   UNL     1       2.696  -0.040   2.198  0.00  0.00    +0.002 A 
ATOM     17  C   UNL     1       2.902  -1.407   2.229  0.00  0.00    +0.000 A 
ATOM     18  C   UNL     1       2.324  -2.174   3.224  0.00  0.00    +0.002 A 
ATOM     19  C   UNL     1       1.539  -1.577   4.190  0.00  0.00    +0.026 A 
ENDBRANCH   3  14
BRANCH   1  22
ATOM     20  C   UNL     1      -1.135   0.801   1.277  0.00  0.00    +0.232 C 
ATOM     21  O   UNL     1      -2.030   1.607   1.131  0.00  0.00    -0.274 OA
ATOM     22  N   UNL     1      -0.654   0.545   2.507  0.00  0.00    -0.205 N 
ATOM     23  H   UNL     1       0.061  -0.099   2.624  0.00  0.00    +0.177 HD
BRANCH  20  25
ATOM     24  C   UNL     1      -1.279   0.555  -1.186  0.00  0.00    +0.013 C 
ATOM     25  C   UNL     1      -0.561   0.086   0.081  0.00  0.00    +0.094 C 
ENDBRANCH  20  25
ENDBRANCH   1  22
TORSDOF 4
