REMARK  Name = ZINC10039688
REMARK  14 active torsions:
REMARK  status: ('A' for Active; 'I' for Inactive)
REMARK    1  A    between atoms: C_1  and  C_2
REMARK    2  A    between atoms: C_2  and  C_3
REMARK    3  A    between atoms: C_2  and  C_4
REMARK    4  A    between atoms: C_4  and  C_6
REMARK    5  A    between atoms: C_4  and  N_28
REMARK    6  A    between atoms: N_8  and  N_9
REMARK    7  A    between atoms: C_10  and  C_11
REMARK    8  A    between atoms: C_14  and  C_16
REMARK    9  A    between atoms: C_19  and  C_22
REMARK   10  A    between atoms: C_22  and  O_24
REMARK   11  A    between atoms: O_24  and  C_25
REMARK   12  A    between atoms: C_25  and  C_26
REMARK   13  A    between atoms: C_25  and  C_27
REMARK   14  A    between atoms: C_29  and  C_31
REMARK                            x       y       z     vdW  Elec       q    Type
REMARK                         _______ _______ _______ _____ _____    ______ ____
ROOT
ATOM      1  C   UNL     1       3.679  -4.712   0.595  0.00  0.00    +0.253 C 
ATOM      2  O   UNL     1       2.567  -4.336   0.287  0.00  0.00    -0.272 OA
ATOM      3  N   UNL     1       4.066  -5.972   0.314  0.00  0.00    -0.205 N 
ATOM      4  H   UNL     1       3.485  -6.554  -0.201  0.00  0.00    +0.177 HD
ENDROOT
BRANCH   3   5
ATOM      5  N   UNL     1       5.306  -6.441   0.765  0.00  0.00    -0.185 NA
ATOM      6  C   UNL     1       5.646  -7.681   0.563  0.00  0.00    +0.176 C 
BRANCH   6   7
ATOM      7  C   UNL     1       4.814  -8.540  -0.282  0.00  0.00    +0.148 A 
ATOM      8  C   UNL     1       4.982  -9.895  -0.473  0.00  0.00    +0.051 A 
ATOM      9  C   UNL     1       3.972 -10.308  -1.350  0.00  0.00    +0.050 A 
ATOM     10  C   UNL     1       3.234  -9.203  -1.660  0.00  0.00    +0.136 A 
ATOM     11  O   UNL     1       3.748  -8.144  -1.006  0.00  0.00    -0.454 OA
BRANCH  10  12
ATOM     12  C   UNL     1       2.064  -9.174  -2.556  0.00  0.00    +0.017 A 
ATOM     13  C   UNL     1       1.564 -10.366  -3.092  0.00  0.00    +0.012 A 
ATOM     14  C   UNL     1       0.478 -10.340  -3.918  0.00  0.00    +0.015 A 
ATOM     15  C   UNL     1      -0.130  -9.121  -4.237  0.00  0.00    +0.059 A 
ATOM     16  C   UNL     1       0.373  -7.928  -3.706  0.00  0.00    +0.015 A 
ATOM     17  C   UNL     1       1.457  -7.955  -2.876  0.00  0.00    +0.012 A 
BRANCH  15  18
ATOM     18  C   UNL     1      -1.300  -9.092  -5.134  0.00  0.00    +0.339 C 
ATOM     19  O   UNL     1      -1.827  -8.033  -5.411  0.00  0.00    -0.245 OA
BRANCH  18  20
ATOM     20  O   UNL     1      -1.784 -10.241  -5.646  0.00  0.00    -0.458 OA
BRANCH  20  21
ATOM     21  C   UNL     1      -2.938 -10.137  -6.521  0.00  0.00    +0.171 C 
ATOM     22  C   UNL     1      -2.468  -9.963  -7.966  0.00  0.00    +0.052 C 
ATOM     23  C   UNL     1      -3.780 -11.410  -6.408  0.00  0.00    +0.052 C 
ENDBRANCH  20  21
ENDBRANCH  18  20
ENDBRANCH  15  18
ENDBRANCH  10  12
ENDBRANCH   6   7
ENDBRANCH   3   5
BRANCH   1  24
ATOM     24  C   UNL     1       4.626  -3.771   1.293  0.00  0.00    +0.163 C 
BRANCH  24  25
ATOM     25  N   UNL     1       4.245  -2.387   0.999  0.00  0.00    -0.300 N 
ATOM     26  C   UNL     1       5.168  -1.407   1.062  0.00  0.00    +0.245 C 
ATOM     27  O   UNL     1       6.315  -1.670   1.365  0.00  0.00    -0.270 OA
ATOM     28  H   UNL     1       3.330  -2.177   0.757  0.00  0.00    +0.150 HD
BRANCH  26  29
ATOM     29  C   UNL     1       4.784  -0.011   0.765  0.00  0.00    +0.037 A 
ATOM     30  C   UNL     1       5.737   1.007   0.830  0.00  0.00    +0.014 A 
ATOM     31  C   UNL     1       5.372   2.308   0.552  0.00  0.00    +0.021 A 
ATOM     32  C   UNL     1       4.064   2.605   0.208  0.00  0.00    +0.041 A 
ATOM     33  C   UNL     1       3.114   1.599   0.142  0.00  0.00    +0.021 A 
ATOM     34  C   UNL     1       3.466   0.295   0.418  0.00  0.00    +0.014 A 
ATOM     35 CL   UNL     1       3.612   4.245  -0.140  0.00  0.00    -0.084 Cl
ENDBRANCH  26  29
ENDBRANCH  24  25
BRANCH  24  37
ATOM     36  C   UNL     1       5.016  -5.434   3.117  0.00  0.00    +0.009 C 
ATOM     37  C   UNL     1       4.559  -4.008   2.804  0.00  0.00    +0.012 C 
ATOM     38  C   UNL     1       5.475  -3.010   3.517  0.00  0.00    +0.009 C 
ENDBRANCH  24  37
ENDBRANCH   1  24
TORSDOF 10
