REMARK  Name = ZINC44441139
REMARK  7 active torsions:
REMARK  status: ('A' for Active; 'I' for Inactive)
REMARK    1  A    between atoms: C_1  and  C_2
REMARK    2  A    between atoms: C_3  and  C_16
REMARK    3  A    between atoms: C_4  and  C_15
REMARK    4  A    between atoms: N_5  and  C_7
REMARK    5  A    between atoms: C_16  and  C_17
REMARK    6  A    between atoms: N_19  and  C_20
REMARK    7  A    between atoms: C_23  and  C_26
REMARK                            x       y       z     vdW  Elec       q    Type
REMARK                         _______ _______ _______ _____ _____    ______ ____
ROOT
ATOM      1  C   UNL     1       1.410  -0.163  -3.049  0.00  0.00    +0.222 C 
ATOM      2  O   UNL     1       2.338  -0.390  -2.303  0.00  0.00    -0.275 OA
ATOM      3  N   UNL     1       1.644   0.256  -4.309  0.00  0.00    -0.285 N 
ATOM      4  H   UNL     1       0.905   0.373  -4.926  0.00  0.00    +0.155 HD
ENDROOT
BRANCH   3   5
ATOM      5  C   UNL     1       2.950   0.522  -4.725  0.00  0.00    +0.033 A 
ATOM      6  C   UNL     1       4.001  -0.254  -4.248  0.00  0.00    +0.024 A 
ATOM      7  C   UNL     1       5.291   0.005  -4.656  0.00  0.00    +0.015 A 
ATOM      8  C   UNL     1       5.542   1.048  -5.551  0.00  0.00    +0.037 A 
ATOM      9  C   UNL     1       4.484   1.825  -6.028  0.00  0.00    +0.015 A 
ATOM     10  C   UNL     1       3.196   1.557  -5.619  0.00  0.00    +0.024 A 
BRANCH   8  11
ATOM     11  C   UNL     1       6.924   1.329  -5.991  0.00  0.00    +0.228 A 
ATOM     12  N   UNL     1       7.984   0.660  -5.610  0.00  0.00    -0.209 NA
ATOM     13  C   UNL     1       9.077   1.195  -6.212  0.00  0.00    +0.110 A 
ATOM     14  C   UNL     1      10.441   0.895  -6.177  0.00  0.00    +0.031 A 
ATOM     15  C   UNL     1      11.324   1.644  -6.922  0.00  0.00    +0.002 A 
ATOM     16  C   UNL     1      10.867   2.694  -7.705  0.00  0.00    +0.004 A 
ATOM     17  C   UNL     1       9.524   3.003  -7.749  0.00  0.00    +0.048 A 
ATOM     18  C   UNL     1       8.619   2.259  -7.007  0.00  0.00    +0.156 A 
ATOM     19  O   UNL     1       7.278   2.306  -6.847  0.00  0.00    -0.435 OA
ENDBRANCH   8  11
ENDBRANCH   3   5
BRANCH   1  20
ATOM     20  C   UNL     1      -0.006  -0.349  -2.568  0.00  0.00    +0.134 C 
BRANCH  20  23
ATOM     21  C   UNL     1      -0.038   1.504   0.003  0.00  0.00    +0.068 C 
ATOM     22  C   UNL     1      -0.007  -0.003  -0.001  0.00  0.00    +0.064 A 
ATOM     23  C   UNL     1       0.008  -0.820  -1.136  0.00  0.00    +0.005 A 
ATOM     24  C   UNL     1       0.035  -2.108  -0.722  0.00  0.00    +0.040 A 
ATOM     25  N   UNL     1       0.038  -2.106   0.627  0.00  0.00    -0.263 N 
ATOM     26  N   UNL     1       0.017  -0.772   1.057  0.00  0.00    -0.176 NA
ATOM     27  C   UNL     1       0.058  -3.326  -1.609  0.00  0.00    +0.065 C 
BRANCH  25  28
ATOM     28  C   UNL     1       0.065  -3.289   1.491  0.00  0.00    +0.130 C 
ATOM     29  C   UNL     1      -1.169  -3.290   2.409  0.00  0.00    +0.051 C 
ATOM     30  C   UNL     1      -0.992  -4.342   3.530  0.00  0.00    +0.168 C 
ATOM     31  S   UNL     1       0.835  -4.422   3.724  0.00  0.00    -0.029 S 
ATOM     32  O   UNL     1       1.279  -5.729   3.387  0.00  0.00    -0.174 OA
ATOM     33  O   UNL     1       1.191  -3.865   4.982  0.00  0.00    -0.174 OA
ATOM     34  C   UNL     1       1.335  -3.256   2.389  0.00  0.00    +0.192 C 
ENDBRANCH  25  28
ENDBRANCH  20  23
ENDBRANCH   1  20
TORSDOF 5
