REMARK  Name = ZINC48406534
REMARK  7 active torsions:
REMARK  status: ('A' for Active; 'I' for Inactive)
REMARK    1  A    between atoms: C_1  and  C_2
REMARK    2  A    between atoms: C_5  and  N_9
REMARK    3  A    between atoms: N_9  and  C_10
REMARK    4  A    between atoms: C_10  and  C_12
REMARK    5  A    between atoms: C_10  and  C_13
REMARK    6  A    between atoms: N_15  and  C_16
REMARK    7  A    between atoms: C_18  and  C_21
REMARK                            x       y       z     vdW  Elec       q    Type
REMARK                         _______ _______ _______ _____ _____    ______ ____
ROOT
ATOM      1  C   UNL     1       0.076  -4.910   1.241  0.00  0.00    +0.154 C 
ATOM      2  C   UNL     1       1.517  -5.040   1.737  0.00  0.00    +0.038 C 
ENDROOT
BRANCH   1   3
ATOM      3  C   UNL     1      -0.507  -6.283   1.026  0.00  0.00    +0.239 C 
ATOM      4  O   UNL     1      -0.898  -6.610  -0.075  0.00  0.00    -0.273 OA
ATOM      5  N   UNL     1      -0.594  -7.147   2.056  0.00  0.00    -0.253 N 
ATOM      6  H   UNL     1      -0.282  -6.885   2.936  0.00  0.00    +0.158 HD
BRANCH   5   7
ATOM      7  C   UNL     1      -1.131  -8.411   1.858  0.00  0.00    +0.224 A 
ATOM      8  C   UNL     1      -1.282  -9.373   2.804  0.00  0.00    +0.092 A 
ATOM      9  C   UNL     1      -1.860 -10.495   2.194  0.00  0.00    +0.082 A 
ATOM     10  N   UNL     1      -2.050 -10.221   0.932  0.00  0.00    -0.081 NA
ATOM     11  O   UNL     1      -1.599  -8.899   0.697  0.00  0.00    -0.339 OA
ATOM     12  C   UNL     1      -2.204 -11.793   2.877  0.00  0.00    +0.069 C 
ENDBRANCH   5   7
ENDBRANCH   1   3
BRANCH   1  13
ATOM     13  N   UNL     1       0.059  -4.169  -0.023  0.00  0.00    -0.333 N 
ATOM     14  H   UNL     1       0.062  -4.648  -0.867  0.00  0.00    +0.147 HD
BRANCH  13  19
ATOM     15  C   UNL     1      -0.018   1.503   0.010  0.00  0.00    +0.047 C 
ATOM     16  C   UNL     1       0.002  -0.004   0.002  0.00  0.00    -0.015 A 
ATOM     17  C   UNL     1       0.006  -0.688  -1.200  0.00  0.00    +0.008 A 
ATOM     18  C   UNL     1       0.025  -2.068  -1.211  0.00  0.00    +0.023 A 
ATOM     19  C   UNL     1       0.041  -2.772  -0.014  0.00  0.00    +0.030 A 
ATOM     20  C   UNL     1       0.037  -2.085   1.193  0.00  0.00    +0.061 A 
ATOM     21  C   UNL     1       0.023  -0.702   1.198  0.00  0.00    +0.128 A 
ATOM     22  F   UNL     1       0.024  -0.031   2.371  0.00  0.00    -0.205 F 
ENDBRANCH  13  19
ENDBRANCH   1  13
TORSDOF 4
