REMARK  Name = ZINC02801484
REMARK  6 active torsions:
REMARK  status: ('A' for Active; 'I' for Inactive)
REMARK    1  A    between atoms: C_1  and  C_2
REMARK    2  A    between atoms: C_3  and  C_28
REMARK    3  A    between atoms: C_4  and  C_21
REMARK    4  A    between atoms: C_9  and  C_14
REMARK    5  A    between atoms: C_28  and  O_30
REMARK    6  A    between atoms: O_30  and  C_31
REMARK                            x       y       z     vdW  Elec       q    Type
REMARK                         _______ _______ _______ _____ _____    ______ ____
ROOT
ATOM      1  C   UNL     1      -0.018   1.503   0.010  0.00  0.00    +0.066 C 
ATOM      2  C   UNL     1       0.002  -0.004   0.002  0.00  0.00    +0.049 C 
ATOM      3  C   UNL     1      -1.185  -0.673   0.004  0.00  0.00    +0.069 C 
ATOM      4  C   UNL     1      -1.133  -2.190  -0.005  0.00  0.00    +0.093 C 
ATOM      5  C   UNL     1       0.255  -2.801  -0.016  0.00  0.00    +0.028 C 
ATOM      6  C   UNL     1       0.406  -4.137  -0.028  0.00  0.00    +0.162 C 
ATOM      7  C   UNL     1       1.773  -4.769  -0.038  0.00  0.00    +0.088 C 
ATOM      8  C   UNL     1       2.757  -3.832  -0.743  0.00  0.00    +0.032 C 
ATOM      9  C   UNL     1       2.756  -2.480  -0.024  0.00  0.00    +0.064 C 
ATOM     10  C   UNL     1       1.352  -1.924  -0.015  0.00  0.00    +0.050 C 
ATOM     11  N   UNL     1       1.174  -0.623  -0.013  0.00  0.00    -0.256 NA
ATOM     12  O   UNL     1      -0.686  -4.925  -0.030  0.00  0.00    -0.292 OA
ENDROOT
BRANCH   4  13
ATOM     13  C   UNL     1      -1.856  -2.694   1.218  0.00  0.00    -0.035 A 
ATOM     14  C   UNL     1      -1.419  -2.329   2.478  0.00  0.00    +0.006 A 
ATOM     15  C   UNL     1      -2.082  -2.791   3.600  0.00  0.00    +0.020 A 
ATOM     16  C   UNL     1      -3.182  -3.618   3.462  0.00  0.00    +0.041 A 
ATOM     17  C   UNL     1      -3.618  -3.983   2.200  0.00  0.00    +0.020 A 
ATOM     18  C   UNL     1      -2.958  -3.516   1.079  0.00  0.00    +0.006 A 
ATOM     19 CL   UNL     1      -4.014  -4.199   4.870  0.00  0.00    -0.084 Cl
ENDBRANCH   4  13
BRANCH   8  20
ATOM     20  C   UNL     1       4.141  -4.428  -0.699  0.00  0.00    -0.044 A 
ATOM     21  C   UNL     1       4.741  -4.694   0.517  0.00  0.00    +0.004 A 
ATOM     22  C   UNL     1       6.010  -5.240   0.558  0.00  0.00    +0.000 A 
ATOM     23  C   UNL     1       6.679  -5.522  -0.619  0.00  0.00    +0.000 A 
ATOM     24  C   UNL     1       6.079  -5.256  -1.836  0.00  0.00    +0.000 A 
ATOM     25  C   UNL     1       4.808  -4.714  -1.876  0.00  0.00    +0.004 A 
ENDBRANCH   8  20
BRANCH   3  26
ATOM     26  C   UNL     1      -2.414   0.017   0.015  0.00  0.00    +0.338 C 
ATOM     27  O   UNL     1      -2.428   1.235   0.022  0.00  0.00    -0.245 OA
BRANCH  26  28
ATOM     28  O   UNL     1      -3.575  -0.671   0.017  0.00  0.00    -0.458 OA
BRANCH  28  29
ATOM     29  C   UNL     1      -4.782   0.093   0.028  0.00  0.00    +0.177 C 
ATOM     30  C   UNL     1      -5.206   0.357   1.474  0.00  0.00    +0.044 C 
ATOM     31  C   UNL     1      -6.499   1.175   1.486  0.00  0.00    +0.004 C 
ATOM     32  C   UNL     1      -7.601   0.396   0.766  0.00  0.00    +0.000 C 
ATOM     33  C   UNL     1      -7.178   0.132  -0.681  0.00  0.00    +0.004 C 
ATOM     34  C   UNL     1      -5.885  -0.686  -0.692  0.00  0.00    +0.044 C 
ENDBRANCH  28  29
ENDBRANCH  26  28
ENDBRANCH   3  26
TORSDOF 5
