REMARK  Name = ZINC08769529
REMARK  9 active torsions:
REMARK  status: ('A' for Active; 'I' for Inactive)
REMARK    1  A    between atoms: C_1  and  C_2
REMARK    2  A    between atoms: C_2  and  C_3
REMARK    3  A    between atoms: C_3  and  C_5
REMARK    4  A    between atoms: C_3  and  C_6
REMARK    5  A    between atoms: C_6  and  C_8
REMARK    6  A    between atoms: C_6  and  N_18
REMARK    7  A    between atoms: N_10  and  C_11
REMARK    8  A    between atoms: C_16  and  C_17
REMARK    9  A    between atoms: C_23  and  O_31
REMARK                            x       y       z     vdW  Elec       q    Type
REMARK                         _______ _______ _______ _____ _____    ______ ____
ROOT
ATOM      1  C   UNL     1      -2.551   0.773   1.703  0.00  0.00    +0.163 C 
ENDROOT
BRANCH   1   2
ATOM      2  N   UNL     1      -3.449   0.538   2.836  0.00  0.00    -0.287 N 
ATOM      3  C   UNL     1      -3.077  -0.294   3.829  0.00  0.00    +0.308 C 
ATOM      4  O   UNL     1      -1.996  -0.849   3.785  0.00  0.00    -0.252 OA
ATOM      5  N   UNL     1      -3.903  -0.510   4.872  0.00  0.00    -0.245 N 
ATOM      6  C   UNL     1      -5.216   0.150   4.961  0.00  0.00    +0.210 C 
ATOM      7  C   UNL     1      -5.461   0.571   6.383  0.00  0.00    +0.206 C 
ATOM      8  N   UNL     1      -4.918  -0.052   7.380  0.00  0.00    -0.214 NA
ATOM      9  C   UNL     1      -4.084  -1.122   7.194  0.00  0.00    +0.089 A 
ATOM     10  C   UNL     1      -3.547  -1.369   5.922  0.00  0.00    +0.064 A 
ATOM     11  C   UNL     1      -2.692  -2.435   5.723  0.00  0.00    +0.026 A 
ATOM     12  C   UNL     1      -2.369  -3.264   6.784  0.00  0.00    +0.002 A 
ATOM     13  C   UNL     1      -2.899  -3.029   8.040  0.00  0.00    +0.002 A 
ATOM     14  C   UNL     1      -3.753  -1.964   8.252  0.00  0.00    +0.030 A 
ATOM     15  H   UNL     1      -4.311   0.981   2.871  0.00  0.00    +0.151 HD
BRANCH   7  16
ATOM     16  O   UNL     1      -6.264   1.628   6.626  0.00  0.00    -0.494 OA
ATOM     17  H   UNL     1      -6.367   1.835   7.565  0.00  0.00    +0.293 HD
ENDBRANCH   7  16
ENDBRANCH   1   2
BRANCH   1  18
ATOM     18  C   UNL     1      -3.358   1.191   0.500  0.00  0.00    +0.238 C 
ATOM     19  O   UNL     1      -4.474   1.643   0.646  0.00  0.00    -0.273 OA
ATOM     20  N   UNL     1      -2.840   1.061  -0.737  0.00  0.00    -0.284 N 
ATOM     21  H   UNL     1      -1.988   0.614  -0.862  0.00  0.00    +0.155 HD
BRANCH  20  22
ATOM     22  C   UNL     1      -3.530   1.572  -1.842  0.00  0.00    +0.036 A 
ATOM     23  C   UNL     1      -4.579   2.464  -1.655  0.00  0.00    +0.023 A 
ATOM     24  C   UNL     1      -5.255   2.970  -2.748  0.00  0.00    +0.002 A 
ATOM     25  C   UNL     1      -4.896   2.582  -4.026  0.00  0.00    +0.000 A 
ATOM     26  C   UNL     1      -3.857   1.690  -4.214  0.00  0.00    +0.005 A 
ATOM     27  C   UNL     1      -3.173   1.183  -3.126  0.00  0.00    -0.029 A 
ATOM     28  C   UNL     1      -2.041   0.211  -3.332  0.00  0.00    +0.045 C 
ENDBRANCH  20  22
ENDBRANCH   1  18
BRANCH   1  29
ATOM     29  C   UNL     1      -1.558   1.881   2.060  0.00  0.00    +0.015 C 
ATOM     30  C   UNL     1      -2.323   3.122   2.523  0.00  0.00    +0.010 C 
BRANCH  29  32
ATOM     31  C   UNL     1       0.253   0.270   2.666  0.00  0.00    +0.004 C 
ATOM     32  C   UNL     1      -0.640   1.399   3.185  0.00  0.00    +0.002 C 
ENDBRANCH  29  32
ENDBRANCH   1  29
TORSDOF 6
