REMARK  Name = ZINC66511644
REMARK  4 active torsions:
REMARK  status: ('A' for Active; 'I' for Inactive)
REMARK    1  A    between atoms: C_1  and  C_2
REMARK    2  A    between atoms: C_6  and  C_8
REMARK    3  A    between atoms: C_8  and  N_13
REMARK    4  A    between atoms: C_14  and  C_16
REMARK                            x       y       z     vdW  Elec       q    Type
REMARK                         _______ _______ _______ _____ _____    ______ ____
ROOT
ATOM      1  N   UNL     1       0.786  -2.093   3.511  0.00  0.00    -0.305 N 
ATOM      2  C   UNL     1       0.319  -0.902   3.936  0.00  0.00    +0.222 C 
ATOM      3  O   UNL     1      -0.752  -0.495   3.540  0.00  0.00    -0.275 OA
ATOM      4  H   UNL     1       1.608  -2.452   3.881  0.00  0.00    +0.150 HD
ENDROOT
BRANCH   2   5
ATOM      5  C   UNL     1       1.128  -0.078   4.903  0.00  0.00    +0.115 C 
ATOM      6  C   UNL     1       1.346  -0.871   6.192  0.00  0.00    +0.113 C 
ATOM      7  C   UNL     1       0.054  -0.967   6.959  0.00  0.00    +0.218 C 
ATOM      8  O   UNL     1      -0.198  -1.975   7.584  0.00  0.00    -0.275 OA
ATOM      9  N   UNL     1      -0.824   0.052   6.959  0.00  0.00    -0.285 N 
ATOM     10  C   UNL     1      -0.559   1.216   6.230  0.00  0.00    +0.037 A 
ATOM     11  C   UNL     1       0.390   1.198   5.216  0.00  0.00    -0.014 A 
ATOM     12  C   UNL     1       0.653   2.346   4.497  0.00  0.00    +0.006 A 
ATOM     13  C   UNL     1      -0.027   3.515   4.787  0.00  0.00    +0.000 A 
ATOM     14  C   UNL     1      -0.972   3.537   5.797  0.00  0.00    +0.002 A 
ATOM     15  C   UNL     1      -1.241   2.391   6.518  0.00  0.00    +0.023 A 
ATOM     16  H   UNL     1      -1.647  -0.020   7.468  0.00  0.00    +0.155 HD
ENDBRANCH   2   5
BRANCH   1  17
ATOM     17  C   UNL     1       0.053  -2.845   2.490  0.00  0.00    +0.060 C 
ATOM     18  C   UNL     1      -1.360  -3.222   3.000  0.00  0.00    +0.030 C 
ATOM     19  C   UNL     1      -1.086  -4.471   3.874  0.00  0.00    +0.002 C 
ATOM     20  C   UNL     1       0.011  -5.237   3.106  0.00  0.00    +0.002 C 
ATOM     21  C   UNL     1       0.735  -4.204   2.226  0.00  0.00    +0.030 C 
BRANCH  17  27
ATOM     22  C   UNL     1      -2.144  -1.966  -1.920  0.00  0.00    +0.044 C 
ATOM     23  C   UNL     1      -1.093  -1.627  -0.895  0.00  0.00    -0.050 A 
ATOM     24  C   UNL     1      -0.216  -0.582  -1.123  0.00  0.00    +0.003 A 
ATOM     25  C   UNL     1       0.748  -0.271  -0.183  0.00  0.00    +0.001 A 
ATOM     26  C   UNL     1       0.835  -1.003   0.986  0.00  0.00    +0.006 A 
ATOM     27  C   UNL     1      -0.042  -2.047   1.215  0.00  0.00    -0.024 A 
ATOM     28  C   UNL     1      -1.009  -2.355   0.276  0.00  0.00    +0.009 A 
ENDBRANCH  17  27
ENDBRANCH   1  17
TORSDOF 3
