REMARK  Name = ZINC08214820
REMARK  13 active torsions:
REMARK  status: ('A' for Active; 'I' for Inactive)
REMARK    1  A    between atoms: C_1  and  C_2
REMARK    2  A    between atoms: C_2  and  O_4
REMARK    3  A    between atoms: O_4  and  C_5
REMARK    4  A    between atoms: C_8  and  O_43
REMARK    5  A    between atoms: C_10  and  C_41
REMARK    6  A    between atoms: C_10  and  C_42
REMARK    7  A    between atoms: C_13  and  C_40
REMARK    8  A    between atoms: C_18  and  C_39
REMARK    9  A    between atoms: C_19  and  C_34
REMARK   10  A    between atoms: C_27  and  C_32
REMARK   11  A    between atoms: C_28  and  O_31
REMARK   12  A    between atoms: O_43  and  C_44
REMARK   13  A    between atoms: C_44  and  C_46
REMARK                            x       y       z     vdW  Elec       q    Type
REMARK                         _______ _______ _______ _____ _____    ______ ____
ROOT
ATOM      1  C   UNL     1      -0.652  -2.130   0.370  0.00  0.00    +0.186 C 
ATOM      2  C   UNL     1      -0.661  -2.958   1.645  0.00  0.00    +0.090 C 
ATOM      3  C   UNL     1      -0.768  -4.431   1.259  0.00  0.00    +0.186 C 
ATOM      4  C   UNL     1      -2.083  -4.696   0.523  0.00  0.00    +0.006 C 
ATOM      5  C   UNL     1      -2.341  -3.722  -0.602  0.00  0.00    +0.010 C 
ATOM      6  C   UNL     1      -1.958  -2.276  -0.418  0.00  0.00    +0.012 C 
ATOM      7  C   UNL     1      -3.046  -1.377   0.145  0.00  0.00    +0.010 C 
ATOM      8  C   UNL     1      -2.994  -1.316   1.661  0.00  0.00    +0.005 C 
ATOM      9  C   UNL     1      -3.977  -0.273   2.209  0.00  0.00    +0.014 C 
ATOM     10  C   UNL     1      -5.390  -0.730   1.890  0.00  0.00    +0.042 C 
ATOM     11  C   UNL     1      -6.447   0.243   2.396  0.00  0.00    +0.218 C 
ATOM     12  O   UNL     1      -7.758  -0.203   2.088  0.00  0.00    -0.454 OA
ATOM     13  C   UNL     1      -8.071  -0.688   0.885  0.00  0.00    +0.340 C 
ATOM     14  O   UNL     1      -9.223  -0.928   0.607  0.00  0.00    -0.248 OA
ATOM     15  C   UNL     1      -6.976  -0.934  -0.140  0.00  0.00    +0.260 C 
ATOM     16  C   UNL     1      -5.541  -0.918   0.391  0.00  0.00    +0.124 C 
ATOM     17  C   UNL     1      -4.424  -1.579  -0.435  0.00  0.00    +0.030 C 
ATOM     18  C   UNL     1      -4.805  -3.014  -0.743  0.00  0.00    +0.124 C 
ATOM     19  C   UNL     1      -3.696  -3.898  -1.260  0.00  0.00    +0.036 C 
ATOM     20  C   UNL     1      -4.495  -0.809  -1.795  0.00  0.00    +0.017 C 
ATOM     21  O   UNL     1      -6.119   0.204  -0.326  0.00  0.00    -0.352 OA
ATOM     22  C   UNL     1      -5.660  -2.044   2.621  0.00  0.00    +0.018 C 
ATOM     23  C   UNL     1      -1.577  -1.739  -1.832  0.00  0.00    +0.015 C 
ATOM     24  C   UNL     1      -3.220  -4.762   1.539  0.00  0.00    +0.015 C 
ATOM     25  C   UNL     1      -1.948  -6.113  -0.093  0.00  0.00    +0.015 C 
ENDROOT
BRANCH  11  26
ATOM     26  C   UNL     1      -6.325   0.371   3.892  0.00  0.00    +0.031 A 
ATOM     27  C   UNL     1      -5.694   1.421   4.599  0.00  0.00    +0.048 A 
ATOM     28  C   UNL     1      -5.817   1.137   5.908  0.00  0.00    +0.195 A 
ATOM     29  O   UNL     1      -6.485  -0.021   6.031  0.00  0.00    -0.471 OA
ATOM     30  C   UNL     1      -6.800  -0.488   4.812  0.00  0.00    +0.202 A 
ENDBRANCH  11  26
BRANCH  18  31
ATOM     31  O   UNL     1      -5.522  -3.633   0.318  0.00  0.00    -0.391 OA
ATOM     32  H   UNL     1      -5.774  -4.550   0.139  0.00  0.00    +0.210 HD
ENDBRANCH  18  31
BRANCH   1  33
ATOM     33  O   UNL     1      -0.372  -0.759   0.635  0.00  0.00    -0.461 OA
BRANCH  33  35
ATOM     34  C   UNL     1       1.293   1.040   0.932  0.00  0.00    +0.136 C 
ATOM     35  C   UNL     1       0.920  -0.394   0.658  0.00  0.00    +0.304 C 
ATOM     36  O   UNL     1       1.783  -1.216   0.460  0.00  0.00    -0.251 OA
ENDBRANCH  33  35
ENDBRANCH   1  33
BRANCH   3  37
ATOM     37  O   UNL     1      -0.718  -5.237   2.440  0.00  0.00    -0.461 OA
BRANCH  37  38
ATOM     38  C   UNL     1       0.494  -5.642   2.850  0.00  0.00    +0.304 C 
ATOM     39  O   UNL     1       1.480  -5.324   2.228  0.00  0.00    -0.251 OA
ATOM     40  C   UNL     1       0.625  -6.494   4.087  0.00  0.00    +0.136 C 
ENDBRANCH  37  38
ENDBRANCH   3  37
TORSDOF 6
