REMARK  Name = ZINC43223661
REMARK  7 active torsions:
REMARK  status: ('A' for Active; 'I' for Inactive)
REMARK    1  A    between atoms: C_1  and  C_2
REMARK    2  A    between atoms: C_3  and  C_25
REMARK    3  A    between atoms: C_5  and  C_16
REMARK    4  A    between atoms: N_6  and  C_7
REMARK    5  A    between atoms: C_7  and  C_8
REMARK    6  A    between atoms: C_8  and  C_9
REMARK    7  A    between atoms: C_20  and  N_22
REMARK                            x       y       z     vdW  Elec       q    Type
REMARK                         _______ _______ _______ _____ _____    ______ ____
ROOT
ATOM      1  C   UNL     1      -0.768   1.032  -0.122  0.00  0.00    +0.064 C 
ATOM      2  C   UNL     1      -0.316  -0.399   0.011  0.00  0.00    +0.028 A 
ATOM      3  C   UNL     1      -0.149  -1.294  -1.024  0.00  0.00    +0.057 A 
ATOM      4  C   UNL     1       0.285  -2.516  -0.449  0.00  0.00    +0.041 A 
ATOM      5  C   UNL     1       0.363  -2.319   0.892  0.00  0.00    +0.050 A 
ATOM      6  N   UNL     1      -0.001  -1.023   1.164  0.00  0.00    -0.343 N 
ENDROOT
BRANCH   5   7
ATOM      7  C   UNL     1       0.775  -3.329   1.892  0.00  0.00    +0.001 A 
ATOM      8  C   UNL     1       0.371  -3.204   3.222  0.00  0.00    +0.010 A 
ATOM      9  C   UNL     1       0.758  -4.150   4.149  0.00  0.00    +0.003 A 
ATOM     10  C   UNL     1       1.546  -5.219   3.762  0.00  0.00    +0.033 A 
ATOM     11  C   UNL     1       1.950  -5.349   2.446  0.00  0.00    +0.127 A 
ATOM     12  C   UNL     1       1.565  -4.413   1.508  0.00  0.00    +0.042 A 
BRANCH  11  13
ATOM     13  N   UNL     1       2.793  -6.496   2.041  0.00  0.00    +0.056 N 
ATOM     14  O   UNL     1       3.128  -7.319   2.861  0.00  0.00    -0.126 OA
ATOM     15  O   UNL     1       3.147  -6.610   0.891  0.00  0.00    -0.126 OA
ENDBRANCH  11  13
ENDBRANCH   5   7
BRANCH   3  16
ATOM     16  C   UNL     1      -0.378  -1.031  -2.455  0.00  0.00    +0.243 C 
ATOM     17  O   UNL     1      -0.753   0.068  -2.819  0.00  0.00    -0.270 OA
ATOM     18  N   UNL     1      -0.173  -2.007  -3.361  0.00  0.00    -0.325 N 
ATOM     19  H   UNL     1       0.126  -2.883  -3.070  0.00  0.00    +0.145 HD
ATOM     20  H   UNL     1      -0.323  -1.834  -4.303  0.00  0.00    +0.145 HD
ENDBRANCH   3  16
BRANCH   6  21
ATOM     21  C   UNL     1      -0.042  -0.415   2.496  0.00  0.00    +0.127 C 
BRANCH  21  22
ATOM     22  C   UNL     1      -1.458  -0.525   3.063  0.00  0.00    +0.058 C 
BRANCH  22  23
ATOM     23  C   UNL     1      -1.483   0.028   4.465  0.00  0.00    -0.027 A 
ATOM     24  C   UNL     1      -1.333  -0.820   5.546  0.00  0.00    +0.005 A 
ATOM     25  C   UNL     1      -1.356  -0.312   6.831  0.00  0.00    +0.000 A 
ATOM     26  C   UNL     1      -1.528   1.044   7.037  0.00  0.00    +0.001 A 
ATOM     27  C   UNL     1      -1.677   1.893   5.957  0.00  0.00    +0.020 A 
ATOM     28  C   UNL     1      -1.649   1.386   4.669  0.00  0.00    +0.044 A 
ATOM     29 CL   UNL     1      -1.831   2.453   3.312  0.00  0.00    -0.083 Cl
ENDBRANCH  22  23
ENDBRANCH  21  22
ENDBRANCH   6  21
TORSDOF 6
