REMARK  Name = ZINC09522522
REMARK  10 active torsions:
REMARK  status: ('A' for Active; 'I' for Inactive)
REMARK    1  A    between atoms: C_1  and  C_2
REMARK    2  A    between atoms: C_2  and  C_3
REMARK    3  A    between atoms: C_3  and  C_5
REMARK    4  A    between atoms: C_3  and  S_9
REMARK    5  A    between atoms: C_5  and  O_7
REMARK    6  A    between atoms: O_7  and  C_8
REMARK    7  A    between atoms: S_9  and  C_10
REMARK    8  A    between atoms: N_16  and  C_17
REMARK    9  A    between atoms: C_21  and  C_23
REMARK   10  A    between atoms: C_24  and  O_26
REMARK                            x       y       z     vdW  Elec       q    Type
REMARK                         _______ _______ _______ _____ _____    ______ ____
ROOT
ATOM      1  C   UNL     1       0.057   1.218   2.794  0.00  0.00    +0.194 A 
ATOM      2  N   UNL     1      -0.255   1.615   4.017  0.00  0.00    -0.202 NA
ATOM      3  C   UNL     1       0.448   1.194   5.065  0.00  0.00    +0.171 A 
ATOM      4  C   UNL     1       1.538   0.327   4.851  0.00  0.00    +0.100 A 
ATOM      5  C   UNL     1       2.099   0.048   6.117  0.00  0.00    +0.150 A 
ATOM      6  N   UNL     1       1.415   0.686   7.023  0.00  0.00    -0.172 NA
ATOM      7  N   UNL     1       0.382   1.409   6.413  0.00  0.00    -0.214 N 
ATOM      8  C   UNL     1       1.834  -0.063   3.532  0.00  0.00    +0.227 A 
ATOM      9  N   UNL     1       1.077   0.402   2.549  0.00  0.00    -0.187 NA
ENDROOT
BRANCH   7  10
ATOM     10  C   UNL     1      -0.556   2.214   7.071  0.00  0.00    +0.068 A 
ATOM     11  C   UNL     1      -1.018   3.378   6.470  0.00  0.00    +0.028 A 
ATOM     12  C   UNL     1      -1.946   4.168   7.119  0.00  0.00    +0.002 A 
ATOM     13  C   UNL     1      -2.410   3.805   8.371  0.00  0.00    +0.003 A 
ATOM     14  C   UNL     1      -1.949   2.649   8.974  0.00  0.00    -0.048 A 
ATOM     15  C   UNL     1      -1.024   1.853   8.327  0.00  0.00    +0.031 A 
ATOM     16  C   UNL     1      -2.456   2.258  10.338  0.00  0.00    +0.044 C 
ENDBRANCH   7  10
BRANCH   8  17
ATOM     17  O   UNL     1       2.871  -0.894   3.272  0.00  0.00    -0.492 OA
ATOM     18  H   UNL     1       3.709  -0.439   3.112  0.00  0.00    +0.294 HD
ENDBRANCH   8  17
BRANCH   1  19
ATOM     19  S   UNL     1      -0.909   1.799   1.440  0.00  0.00    -0.071 S 
BRANCH  19  20
ATOM     20  C   UNL     1       0.008   1.068   0.062  0.00  0.00    +0.162 C 
BRANCH  20  22
ATOM     21  C   UNL     1       2.189   1.069  -1.157  0.00  0.00    +0.005 C 
ATOM     22  C   UNL     1       1.356   1.777  -0.086  0.00  0.00    +0.022 C 
ENDBRANCH  20  22
BRANCH  20  23
ATOM     23  C   UNL     1      -0.785   1.226  -1.209  0.00  0.00    +0.320 C 
ATOM     24  O   UNL     1      -1.592   2.119  -1.311  0.00  0.00    -0.250 OA
BRANCH  23  25
ATOM     25  O   UNL     1      -0.595   0.374  -2.229  0.00  0.00    -0.467 OA
ATOM     26  C   UNL     1      -1.394   0.586  -3.423  0.00  0.00    +0.280 C 
ENDBRANCH  23  25
ENDBRANCH  20  23
ENDBRANCH  19  20
ENDBRANCH   1  19
TORSDOF 7
