REMARK  Name = ZINC24769016
REMARK  10 active torsions:
REMARK  status: ('A' for Active; 'I' for Inactive)
REMARK    1  A    between atoms: C_1  and  C_2
REMARK    2  A    between atoms: C_2  and  O_3
REMARK    3  A    between atoms: O_3  and  C_4
REMARK    4  A    between atoms: C_4  and  C_6
REMARK    5  A    between atoms: C_7  and  C_31
REMARK    6  A    between atoms: C_9  and  N_11
REMARK    7  A    between atoms: C_12  and  C_14
REMARK    8  A    between atoms: C_14  and  N_15
REMARK    9  A    between atoms: C_18  and  C_22
REMARK   10  A    between atoms: C_18  and  C_23
REMARK                            x       y       z     vdW  Elec       q    Type
REMARK                         _______ _______ _______ _____ _____    ______ ____
ROOT
ATOM      1  N   UNL     1       0.991   3.551   0.012  0.00  0.00    -0.215 N 
ATOM      2  C   UNL     1       0.838   4.301  -1.098  0.00  0.00    +0.251 C 
ATOM      3  O   UNL     1       0.908   3.927  -2.249  0.00  0.00    -0.272 OA
ATOM      4  C   UNL     1       0.556   5.707  -0.607  0.00  0.00    +0.136 C 
ATOM      5  N   UNL     1       0.595   5.576   0.860  0.00  0.00    -0.281 N 
ATOM      6  C   UNL     1       0.855   4.282   1.124  0.00  0.00    +0.310 C 
ATOM      7  O   UNL     1       0.955   3.829   2.247  0.00  0.00    -0.252 OA
ATOM      8  C   UNL     1      -0.824   6.180  -1.069  0.00  0.00    +0.047 C 
ATOM      9  H   UNL     1       0.424   6.457   1.496  0.00  0.00    +0.152 HD
ENDROOT
BRANCH   4  10
ATOM     10  C   UNL     1       1.627   6.654  -1.083  0.00  0.00    +0.003 A 
ATOM     11  C   UNL     1       2.448   7.285  -0.167  0.00  0.00    +0.009 A 
ATOM     12  C   UNL     1       3.434   8.150  -0.603  0.00  0.00    +0.020 A 
ATOM     13  C   UNL     1       3.592   8.394  -1.956  0.00  0.00    +0.042 A 
ATOM     14  C   UNL     1       2.767   7.767  -2.872  0.00  0.00    +0.040 A 
ATOM     15  C   UNL     1       1.784   6.897  -2.436  0.00  0.00    +0.048 A 
ATOM     16 CL   UNL     1       0.748   6.110  -3.585  0.00  0.00    -0.083 Cl
ATOM     17 CL   UNL     1       4.827   9.485  -2.503  0.00  0.00    -0.083 Cl
ENDBRANCH   4  10
BRANCH   1  18
ATOM     18  C   UNL     1       1.278   2.115   0.001  0.00  0.00    +0.214 C 
BRANCH  18  20
ATOM     19  N   UNL     1       0.002  -0.004   0.002  0.00  0.00    -0.279 N 
ATOM     20  C   UNL     1      -0.016   1.344   0.009  0.00  0.00    +0.236 C 
ATOM     21  O   UNL     1      -1.075   1.936   0.018  0.00  0.00    -0.274 OA
ATOM     22  H   UNL     1       0.962  -0.541  -0.010  0.00  0.00    +0.155 HD
BRANCH  19  26
ATOM     23  C   UNL     1      -3.690  -1.653   0.028  0.00  0.00    +0.101 A 
ATOM     24  C   UNL     1      -2.651  -2.575   0.013  0.00  0.00    -0.028 A 
ATOM     25  C   UNL     1      -1.375  -2.082   0.004  0.00  0.00    +0.035 A 
ATOM     26  C   UNL     1      -1.191  -0.715   0.010  0.00  0.00    +0.073 A 
ATOM     27  S   UNL     1      -2.812  -0.100   0.036  0.00  0.00    -0.067 S 
ATOM     28  C   UNL     1      -2.919  -4.058   0.009  0.00  0.00    +0.045 C 
BRANCH  23  29
ATOM     29  C   UNL     1      -5.087  -1.885   0.041  0.00  0.00    +0.346 C 
ATOM     30  O   UNL     1      -5.514  -3.025   0.038  0.00  0.00    -0.244 OA
BRANCH  29  31
ATOM     31  O   UNL     1      -5.945  -0.843   0.054  0.00  0.00    -0.461 OA
BRANCH  31  33
ATOM     32  C   UNL     1      -8.149   0.147   0.081  0.00  0.00    +0.048 C 
ATOM     33  C   UNL     1      -7.340  -1.152   0.066  0.00  0.00    +0.229 C 
ENDBRANCH  31  33
ENDBRANCH  29  31
ENDBRANCH  23  29
ENDBRANCH  19  26
ENDBRANCH  18  20
ENDBRANCH   1  18
TORSDOF 7
