REMARK  Name = ZINC39404353
REMARK  9 active torsions:
REMARK  status: ('A' for Active; 'I' for Inactive)
REMARK    1  A    between atoms: C_1  and  C_2
REMARK    2  A    between atoms: C_2  and  C_3
REMARK    3  A    between atoms: C_3  and  S_4
REMARK    4  A    between atoms: S_4  and  C_5
REMARK    5  A    between atoms: C_11  and  C_13
REMARK    6  A    between atoms: C_13  and  S_14
REMARK    7  A    between atoms: S_14  and  C_15
REMARK    8  A    between atoms: N_21  and  N_22
REMARK    9  A    between atoms: C_23  and  C_24
REMARK                            x       y       z     vdW  Elec       q    Type
REMARK                         _______ _______ _______ _____ _____    ______ ____
ROOT
ATOM      1  C   UNL     1     -12.091  -4.577   0.091  0.00  0.00    +0.283 C 
ATOM      2  N   UNL     1     -12.084  -5.475  -1.078  0.00  0.00    -0.324 N 
ATOM      3  C   UNL     1     -12.041  -6.680  -0.581  0.00  0.00    +0.231 C 
ATOM      4  N   UNL     1     -12.020  -6.647   0.783  0.00  0.00    -0.116 NA
ATOM      5  N   UNL     1     -12.048  -5.495   1.240  0.00  0.00    -0.148 NA
ATOM      6  N   UNL     1     -12.021  -7.834  -1.334  0.00  0.00    -0.206 N 
ATOM      7  H   UNL     1     -12.038  -7.782  -2.302  0.00  0.00    +0.177 HD
ATOM      8  H   UNL     1     -12.106  -5.224  -2.015  0.00  0.00    +0.165 HD
ENDROOT
BRANCH   6   9
ATOM      9  N   UNL     1     -11.974  -9.083  -0.701  0.00  0.00    -0.188 NA
ATOM     10  C   UNL     1     -11.955 -10.170  -1.410  0.00  0.00    +0.138 C 
BRANCH  10  11
ATOM     11  C   UNL     1     -11.906 -11.484  -0.743  0.00  0.00    -0.005 A 
ATOM     12  C   UNL     1     -11.887 -11.563   0.652  0.00  0.00    +0.011 A 
ATOM     13  C   UNL     1     -11.841 -12.795   1.269  0.00  0.00    +0.020 A 
ATOM     14  C   UNL     1     -11.815 -13.953   0.509  0.00  0.00    +0.041 A 
ATOM     15  C   UNL     1     -11.833 -13.882  -0.873  0.00  0.00    +0.020 A 
ATOM     16  C   UNL     1     -11.886 -12.656  -1.503  0.00  0.00    +0.011 A 
ATOM     17 CL   UNL     1     -11.757 -15.501   1.294  0.00  0.00    -0.084 Cl
ENDBRANCH  10  11
ENDBRANCH   6   9
BRANCH   1  18
ATOM     18  S   UNL     1     -10.630  -3.502   0.078  0.00  0.00    -0.102 S 
BRANCH  18  19
ATOM     19  C   UNL     1      -9.233  -4.660   0.067  0.00  0.00    +0.169 C 
BRANCH  19  26
ATOM     20  C   UNL     1      -3.112  -2.797   0.017  0.00  0.00    +0.160 A 
ATOM     21  N   UNL     1      -4.195  -2.033   0.025  0.00  0.00    -0.133 NA
ATOM     22  N   UNL     1      -5.357  -2.523   0.035  0.00  0.00    -0.125 NA
ATOM     23  C   UNL     1      -5.567  -3.829   0.037  0.00  0.00    +0.189 A 
ATOM     24  S   UNL     1      -3.876  -4.417   0.015  0.00  0.00    -0.024 S 
ATOM     25  N   UNL     1      -6.763  -4.544   0.047  0.00  0.00    -0.263 N 
ATOM     26  C   UNL     1      -7.940  -3.887   0.056  0.00  0.00    +0.229 C 
ATOM     27  O   UNL     1      -7.958  -2.675   0.056  0.00  0.00    -0.275 OA
ATOM     28  H   UNL     1      -6.748  -5.514   0.047  0.00  0.00    +0.157 HD
BRANCH  20  29
ATOM     29  S   UNL     1      -1.409  -2.348   0.003  0.00  0.00    -0.097 S 
BRANCH  29  30
ATOM     30  C   UNL     1      -1.433  -0.534   0.013  0.00  0.00    +0.076 C 
BRANCH  30  32
ATOM     31  C   UNL     1      -0.019   1.526   0.010  0.00  0.00    +0.004 C 
ATOM     32  C   UNL     1       0.002  -0.004   0.002  0.00  0.00    +0.008 C 
ENDBRANCH  30  32
ENDBRANCH  29  30
ENDBRANCH  20  29
ENDBRANCH  19  26
ENDBRANCH  18  19
ENDBRANCH   1  18
TORSDOF 8
