REMARK  Name = ZINC19893199
REMARK  7 active torsions:
REMARK  status: ('A' for Active; 'I' for Inactive)
REMARK    1  A    between atoms: C_4  and  C_7
REMARK    2  A    between atoms: N_9  and  C_10
REMARK    3  A    between atoms: C_10  and  C_26
REMARK    4  A    between atoms: C_11  and  C_12
REMARK    5  A    between atoms: C_15  and  C_17
REMARK    6  A    between atoms: C_21  and  N_23
REMARK    7  A    between atoms: N_28  and  C_29
REMARK                            x       y       z     vdW  Elec       q    Type
REMARK                         _______ _______ _______ _____ _____    ______ ____
ROOT
ATOM      1  C   UNL     1       2.343   8.516  -0.374  0.00  0.00    +0.100 C 
ATOM      2  C   UNL     1       0.956   8.668  -0.505  0.00  0.00    +0.074 C 
ENDROOT
BRANCH   2   3
ATOM      3  C   UNL     1       0.140   7.548  -0.580  0.00  0.00    +0.131 A 
ATOM      4  C   UNL     1      -1.311   7.542  -0.822  0.00  0.00    +0.050 A 
ATOM      5  C   UNL     1      -1.693   6.240  -0.814  0.00  0.00    +0.050 A 
ATOM      6  C   UNL     1      -0.536   5.456  -0.579  0.00  0.00    +0.136 A 
ATOM      7  O   UNL     1       0.530   6.263  -0.439  0.00  0.00    -0.455 OA
BRANCH   6   8
ATOM      8  C   UNL     1      -0.508   4.042  -0.497  0.00  0.00    +0.019 A 
ATOM      9  C   UNL     1      -1.678   3.294  -0.735  0.00  0.00    +0.012 A 
ATOM     10  C   UNL     1      -1.638   1.931  -0.659  0.00  0.00    +0.003 A 
ATOM     11  C   UNL     1      -0.454   1.283  -0.338  0.00  0.00    +0.033 A 
ATOM     12  C   UNL     1       0.704   2.009  -0.102  0.00  0.00    +0.127 A 
ATOM     13  C   UNL     1       0.689   3.373  -0.178  0.00  0.00    +0.044 A 
BRANCH  12  14
ATOM     14  N   UNL     1       1.961   1.303   0.234  0.00  0.00    +0.056 N 
ATOM     15  O   UNL     1       1.962  -0.005   0.386  0.00  0.00    -0.126 OA
ATOM     16  O   UNL     1       3.079   1.983   0.381  0.00  0.00    -0.126 OA
ENDBRANCH  12  14
ENDBRANCH   6   8
ENDBRANCH   2   3
BRANCH   1  19
ATOM     17  C   UNL     1       4.468   9.468  -0.169  0.00  0.00    +0.248 C 
ATOM     18  O   UNL     1       4.975   8.391  -0.411  0.00  0.00    -0.270 OA
ATOM     19  N   UNL     1       3.127   9.601  -0.190  0.00  0.00    -0.277 N 
ATOM     20  H   UNL     1       2.670  10.594  -0.059  0.00  0.00    +0.155 HD
BRANCH  17  24
ATOM     21  C   UNL     1       6.919  12.813   0.745  0.00  0.00    +0.000 A 
ATOM     22  C   UNL     1       7.500  11.588   0.470  0.00  0.00    +0.001 A 
ATOM     23  C   UNL     1       6.710  10.498   0.172  0.00  0.00    +0.013 A 
ATOM     24  C   UNL     1       5.320  10.632   0.149  0.00  0.00    +0.037 A 
ATOM     25  C   UNL     1       4.740  11.873   0.423  0.00  0.00    +0.013 A 
ATOM     26  C   UNL     1       5.542  12.954   0.724  0.00  0.00    +0.001 A 
ENDBRANCH  17  24
ENDBRANCH   1  19
BRANCH   1  27
ATOM     27  C   UNL     1       2.953   7.160  -0.437  0.00  0.00    +0.259 C 
ATOM     28  O   UNL     1       3.191   6.553   0.588  0.00  0.00    -0.269 OA
ATOM     29  N   UNL     1       3.241   6.605  -1.631  0.00  0.00    -0.307 N 
ATOM     30  H   UNL     1       3.096   7.183  -2.555  0.00  0.00    +0.149 HD
BRANCH  29  31
ATOM     31  C   UNL     1       3.748   5.232  -1.698  0.00  0.00    +0.078 C 
ATOM     32  C   UNL     1       5.264   5.234  -1.483  0.00  0.00    +0.050 C 
ATOM     33  C   UNL     1       5.795   3.807  -1.633  0.00  0.00    +0.161 C 
ATOM     34  O   UNL     1       5.448   3.303  -2.924  0.00  0.00    -0.380 OA
ATOM     35  C   UNL     1       4.041   3.233  -3.164  0.00  0.00    +0.161 C 
ATOM     36  C   UNL     1       3.439   4.638  -3.076  0.00  0.00    +0.050 C 
ENDBRANCH  29  31
ENDBRANCH   1  27
TORSDOF 7
