REMARK  Name = ZINC20705017
REMARK  4 active torsions:
REMARK  status: ('A' for Active; 'I' for Inactive)
REMARK    1  A    between atoms: C_1  and  C_2
REMARK    2  A    between atoms: C_4  and  N_27
REMARK    3  A    between atoms: C_9  and  C_18
REMARK    4  A    between atoms: C_22  and  N_24
REMARK                            x       y       z     vdW  Elec       q    Type
REMARK                         _______ _______ _______ _____ _____    ______ ____
ROOT
ATOM      1  C   UNL     1      -2.520   1.031   0.113  0.00  0.00    +0.046 C 
ATOM      2  C   UNL     1      -1.220   1.791   0.041  0.00  0.00    -0.027 A 
ATOM      3  C   UNL     1      -0.026   1.104  -0.018  0.00  0.00    +0.038 A 
ATOM      4  C   UNL     1       1.165   1.803  -0.090  0.00  0.00    +0.127 A 
ATOM      5  C   UNL     1       1.157   3.183  -0.099  0.00  0.00    +0.038 A 
ATOM      6  C   UNL     1      -0.040   3.883  -0.034  0.00  0.00    -0.017 A 
ATOM      7  C   UNL     1      -1.231   3.185   0.040  0.00  0.00    +0.034 A 
ATOM      8  N   UNL     1      -2.468   3.829   0.076  0.00  0.00    -0.336 N 
ATOM      9  C   UNL     1      -2.421   5.141  -0.572  0.00  0.00    +0.105 C 
ATOM     10  C   UNL     1      -1.372   6.014   0.098  0.00  0.00    +0.029 C 
ATOM     11  C   UNL     1       0.029   5.387  -0.050  0.00  0.00    +0.049 C 
ATOM     12  C   UNL     1       0.763   5.837   1.203  0.00  0.00    -0.023 C 
ATOM     13  C   UNL     1      -0.119   6.159   2.141  0.00  0.00    -0.030 C 
ATOM     14  C   UNL     1      -1.537   5.971   1.636  0.00  0.00    +0.033 C 
ATOM     15  H   UNL     1      -3.409   3.467   0.516  0.00  0.00    +0.147 HD
ENDROOT
BRANCH   9  16
ATOM     16  C   UNL     1      -2.072   4.966  -2.027  0.00  0.00    -0.025 A 
ATOM     17  C   UNL     1      -1.388   5.963  -2.699  0.00  0.00    +0.005 A 
ATOM     18  C   UNL     1      -1.064   5.800  -4.033  0.00  0.00    +0.003 A 
ATOM     19  C   UNL     1      -1.431   4.644  -4.697  0.00  0.00    +0.033 A 
ATOM     20  C   UNL     1      -2.118   3.650  -4.027  0.00  0.00    +0.127 A 
ATOM     21  C   UNL     1      -2.439   3.811  -2.692  0.00  0.00    +0.038 A 
BRANCH  20  22
ATOM     22  N   UNL     1      -2.511   2.413  -4.739  0.00  0.00    +0.056 N 
ATOM     23  O   UNL     1      -3.117   1.537  -4.148  0.00  0.00    -0.126 OA
ATOM     24  O   UNL     1      -2.228   2.271  -5.915  0.00  0.00    -0.126 OA
ENDBRANCH  20  22
ENDBRANCH   9  16
BRANCH   4  25
ATOM     25  N   UNL     1       2.449   1.070  -0.158  0.00  0.00    +0.056 N 
ATOM     26  O   UNL     1       2.457  -0.148  -0.151  0.00  0.00    -0.126 OA
ATOM     27  O   UNL     1       3.499   1.685  -0.222  0.00  0.00    -0.126 OA
ENDBRANCH   4  25
TORSDOF 3
