REMARK  Name = ZINC39673983
REMARK  8 active torsions:
REMARK  status: ('A' for Active; 'I' for Inactive)
REMARK    1  A    between atoms: C_1  and  C_2
REMARK    2  A    between atoms: C_4  and  C_12
REMARK    3  A    between atoms: C_12  and  C_13
REMARK    4  A    between atoms: C_13  and  N_14
REMARK    5  A    between atoms: C_15  and  C_17
REMARK    6  A    between atoms: C_28  and  C_30
REMARK    7  A    between atoms: C_33  and  O_36
REMARK    8  A    between atoms: O_36  and  C_37
REMARK                            x       y       z     vdW  Elec       q    Type
REMARK                         _______ _______ _______ _____ _____    ______ ____
ROOT
ATOM      1  C   UNL     1      -5.885   3.299   4.049  0.00  0.00    +0.100 C 
ATOM      2  C   UNL     1      -5.143   2.186   4.821  0.00  0.00    +0.121 C 
ATOM      3  N   UNL     1      -4.381   2.902   5.871  0.00  0.00    -0.296 N 
ATOM      4  C   UNL     1      -5.301   3.970   6.331  0.00  0.00    +0.115 C 
ATOM      5  C   UNL     1      -5.990   4.467   5.044  0.00  0.00    -0.004 C 
ATOM      6  C   UNL     1      -7.454   4.794   5.322  0.00  0.00    -0.010 C 
ATOM      7  C   UNL     1      -7.534   5.996   6.268  0.00  0.00    -0.082 C 
ATOM      8  N   UNL     1      -6.861   7.148   5.656  0.00  0.00    +0.379 N 
ATOM      9  C   UNL     1      -5.433   6.858   5.478  0.00  0.00    -0.082 C 
ATOM     10  C   UNL     1      -5.265   5.693   4.498  0.00  0.00    -0.010 C 
ATOM     11  C   UNL     1      -3.134   2.641   6.310  0.00  0.00    +0.247 C 
ATOM     12  O   UNL     1      -2.453   1.806   5.746  0.00  0.00    -0.270 OA
ATOM     13  H   UNL     1      -7.279   7.341   4.758  0.00  0.00    -0.086 HD
ATOM     14  H   UNL     1      -6.968   7.954   6.254  0.00  0.00    -0.086 HD
ENDROOT
BRANCH  11  15
ATOM     15  C   UNL     1      -2.594   3.369   7.475  0.00  0.00    +0.037 A 
ATOM     16  C   UNL     1      -3.462   3.981   8.383  0.00  0.00    +0.016 A 
ATOM     17  C   UNL     1      -2.955   4.659   9.469  0.00  0.00    +0.047 A 
ATOM     18  C   UNL     1      -1.581   4.735   9.663  0.00  0.00    +0.130 A 
ATOM     19  C   UNL     1      -0.713   4.127   8.762  0.00  0.00    +0.047 A 
ATOM     20  C   UNL     1      -1.213   3.443   7.677  0.00  0.00    +0.016 A 
BRANCH  18  21
ATOM     21  O   UNL     1      -1.085   5.405  10.734  0.00  0.00    -0.406 OA
BRANCH  21  22
ATOM     22  C   UNL     1       0.337   5.444  10.873  0.00  0.00    +0.575 C 
ATOM     23  F   UNL     1       0.899   6.061   9.750  0.00  0.00    -0.133 F 
ATOM     24  F   UNL     1       0.674   6.168  12.021  0.00  0.00    -0.133 F 
ATOM     25  F   UNL     1       0.831   4.139  10.983  0.00  0.00    -0.133 F 
ENDBRANCH  21  22
ENDBRANCH  18  21
ENDBRANCH  11  15
BRANCH   1  27
ATOM     26  N   UNL     1      -5.717   4.286   1.787  0.00  0.00    -0.315 N 
ATOM     27  C   UNL     1      -5.093   3.714   2.836  0.00  0.00    +0.218 C 
ATOM     28  O   UNL     1      -3.895   3.532   2.803  0.00  0.00    -0.275 OA
ATOM     29  H   UNL     1      -6.676   4.431   1.814  0.00  0.00    +0.149 HD
BRANCH  26  30
ATOM     30  C   UNL     1      -4.948   4.689   0.608  0.00  0.00    +0.109 C 
BRANCH  30  31
ATOM     31  C   UNL     1      -5.888   5.308  -0.428  0.00  0.00    +0.056 C 
BRANCH  31  35
ATOM     32  C   UNL     1      -5.299   3.547  -2.916  0.00  0.00    +0.063 C 
ATOM     33  C   UNL     1      -4.837   4.968  -2.721  0.00  0.00    +0.017 A 
ATOM     34  H   UNL     1      -3.772   5.343  -4.472  0.00  0.00    +0.166 HD
ATOM     35  C   UNL     1      -5.097   5.722  -1.642  0.00  0.00    -0.018 A 
ATOM     36  C   UNL     1      -4.465   7.025  -1.867  0.00  0.00    +0.003 A 
ATOM     37  C   UNL     1      -4.381   8.204  -1.125  0.00  0.00    +0.010 A 
ATOM     38  C   UNL     1      -3.697   9.275  -1.627  0.00  0.00    +0.001 A 
ATOM     39  C   UNL     1      -3.085   9.200  -2.870  0.00  0.00    +0.002 A 
ATOM     40  C   UNL     1      -3.155   8.046  -3.620  0.00  0.00    +0.026 A 
ATOM     41  C   UNL     1      -3.846   6.943  -3.128  0.00  0.00    +0.047 A 
ATOM     42  N   UNL     1      -4.086   5.679  -3.618  0.00  0.00    -0.358 N 
ENDBRANCH  31  35
ENDBRANCH  30  31
ENDBRANCH  26  30
ENDBRANCH   1  27
TORSDOF 7
