REMARK  Name = ZINC22437251
REMARK  11 active torsions:
REMARK  status: ('A' for Active; 'I' for Inactive)
REMARK    1  A    between atoms: C_1  and  C_2
REMARK    2  A    between atoms: C_2  and  O_3
REMARK    3  A    between atoms: O_3  and  C_4
REMARK    4  A    between atoms: C_4  and  C_6
REMARK    5  A    between atoms: C_9  and  N_12
REMARK    6  A    between atoms: C_13  and  C_17
REMARK    7  A    between atoms: C_17  and  N_24
REMARK    8  A    between atoms: C_20  and  C_23
REMARK    9  A    between atoms: N_24  and  C_25
REMARK   10  A    between atoms: C_28  and  C_32
REMARK   11  A    between atoms: C_30  and  C_31
REMARK                            x       y       z     vdW  Elec       q    Type
REMARK                         _______ _______ _______ _____ _____    ______ ____
ROOT
ATOM      1  C   UNL     1      -1.923  -0.457   1.659  0.00  0.00    +0.094 C 
ATOM      2  C   UNL     1      -1.291   0.516   2.656  0.00  0.00    +0.034 C 
ATOM      3  C   UNL     1      -2.364   1.028   3.619  0.00  0.00    +0.006 C 
ATOM      4  C   UNL     1      -2.975  -0.152   4.377  0.00  0.00    -0.014 C 
ATOM      5  C   UNL     1      -3.607  -1.126   3.380  0.00  0.00    +0.006 C 
ATOM      6  C   UNL     1      -2.534  -1.638   2.417  0.00  0.00    +0.034 C 
ATOM      7  C   UNL     1      -4.048   0.360   5.339  0.00  0.00    +0.007 C 
ENDROOT
BRANCH   1   9
ATOM      8  N   UNL     1      -0.052  -0.205  -0.058  0.00  0.00    -0.195 N 
ATOM      9  C   UNL     1      -0.866  -0.962   0.711  0.00  0.00    +0.180 A 
ATOM     10  N   UNL     1      -0.569  -2.213   0.477  0.00  0.00    -0.111 NA
ATOM     11  N   UNL     1       0.383  -2.299  -0.381  0.00  0.00    -0.023 NA
ATOM     12  N   UNL     1       0.753  -1.122  -0.755  0.00  0.00    -0.039 NA
BRANCH   8  16
ATOM     13  C   UNL     1       0.059   3.957  -0.295  0.00  0.00    +0.059 A 
ATOM     14  C   UNL     1       1.242   3.233  -0.126  0.00  0.00    +0.017 A 
ATOM     15  C   UNL     1       1.202   1.859  -0.048  0.00  0.00    +0.029 A 
ATOM     16  C   UNL     1      -0.015   1.192  -0.137  0.00  0.00    +0.069 A 
ATOM     17  C   UNL     1      -1.194   1.908  -0.312  0.00  0.00    +0.029 A 
ATOM     18  C   UNL     1      -1.162   3.283  -0.385  0.00  0.00    +0.017 A 
BRANCH  13  19
ATOM     19  C   UNL     1       0.098   5.430  -0.381  0.00  0.00    +0.339 C 
ATOM     20  O   UNL     1       1.166   6.009  -0.397  0.00  0.00    -0.245 OA
BRANCH  19  21
ATOM     21  O   UNL     1      -1.050   6.132  -0.440  0.00  0.00    -0.461 OA
BRANCH  21  23
ATOM     22  C   UNL     1      -2.333   8.197  -0.581  0.00  0.00    +0.048 C 
ATOM     23  C   UNL     1      -0.935   7.577  -0.522  0.00  0.00    +0.229 C 
ENDBRANCH  21  23
ENDBRANCH  19  21
ENDBRANCH  13  19
ENDBRANCH   8  16
ENDBRANCH   1   9
BRANCH   1  24
ATOM     24  N   UNL     1      -2.971   0.231   0.901  0.00  0.00    -0.331 N 
ATOM     25  H   UNL     1      -3.180   1.294   1.093  0.00  0.00    +0.147 HD
BRANCH  24  26
ATOM     26  C   UNL     1      -3.704  -0.462  -0.064  0.00  0.00    +0.031 A 
ATOM     27  C   UNL     1      -3.362  -1.767  -0.394  0.00  0.00    +0.023 A 
ATOM     28  C   UNL     1      -4.090  -2.450  -1.349  0.00  0.00    +0.005 A 
ATOM     29  C   UNL     1      -5.158  -1.835  -1.977  0.00  0.00    -0.050 A 
ATOM     30  C   UNL     1      -5.501  -0.536  -1.651  0.00  0.00    +0.008 A 
ATOM     31  C   UNL     1      -4.780   0.151  -0.693  0.00  0.00    -0.029 A 
ATOM     32  C   UNL     1      -5.159   1.565  -0.335  0.00  0.00    +0.045 C 
ATOM     33  C   UNL     1      -5.950  -2.583  -3.018  0.00  0.00    +0.044 C 
ENDBRANCH  24  26
ENDBRANCH   1  24
TORSDOF 7
