REMARK  Name = ZINC46424088
REMARK  10 active torsions:
REMARK  status: ('A' for Active; 'I' for Inactive)
REMARK    1  A    between atoms: C_1  and  C_2
REMARK    2  A    between atoms: C_5  and  C_30
REMARK    3  A    between atoms: N_8  and  C_10
REMARK    4  A    between atoms: C_10  and  C_11
REMARK    5  A    between atoms: C_11  and  N_12
REMARK    6  A    between atoms: N_15  and  N_16
REMARK    7  A    between atoms: C_17  and  C_19
REMARK    8  A    between atoms: C_19  and  C_21
REMARK    9  A    between atoms: C_19  and  O_22
REMARK   10  A    between atoms: O_22  and  C_23
REMARK                            x       y       z     vdW  Elec       q    Type
REMARK                         _______ _______ _______ _____ _____    ______ ____
ROOT
ATOM      1  N   UNL     1       3.901  -2.810   3.206  0.00  0.00    -0.300 N 
ATOM      2  C   UNL     1       5.246  -2.723   3.226  0.00  0.00    +0.316 C 
ATOM      3  O   UNL     1       5.840  -2.269   2.268  0.00  0.00    -0.251 OA
ATOM      4  N   UNL     1       5.932  -3.140   4.309  0.00  0.00    -0.218 N 
ATOM      5  H   UNL     1       3.427  -3.173   3.971  0.00  0.00    +0.150 HD
ATOM      6  H   UNL     1       6.900  -3.077   4.323  0.00  0.00    +0.174 HD
ENDROOT
BRANCH   4   7
ATOM      7  N   UNL     1       5.248  -3.663   5.413  0.00  0.00    -0.230 N 
ATOM      8  C   UNL     1       5.934  -4.080   6.496  0.00  0.00    +0.270 C 
ATOM      9  O   UNL     1       7.144  -4.002   6.514  0.00  0.00    -0.270 OA
ATOM     10  H   UNL     1       4.280  -3.726   5.399  0.00  0.00    +0.173 HD
BRANCH   8  11
ATOM     11  C   UNL     1       5.197  -4.643   7.684  0.00  0.00    +0.257 C 
ATOM     12  C   UNL     1       4.503  -5.946   7.283  0.00  0.00    +0.062 C 
BRANCH  11  13
ATOM     13  O   UNL     1       6.125  -4.903   8.740  0.00  0.00    -0.480 OA
BRANCH  13  14
ATOM     14  C   UNL     1       5.631  -4.910  10.007  0.00  0.00    +0.122 A 
ATOM     15  C   UNL     1       6.493  -5.039  11.086  0.00  0.00    +0.048 A 
ATOM     16  C   UNL     1       5.990  -5.046  12.373  0.00  0.00    +0.042 A 
ATOM     17  C   UNL     1       4.627  -4.925  12.585  0.00  0.00    +0.124 A 
ATOM     18  C   UNL     1       3.766  -4.797  11.508  0.00  0.00    +0.042 A 
ATOM     19  C   UNL     1       4.267  -4.783  10.221  0.00  0.00    +0.048 A 
ATOM     20  F   UNL     1       4.137  -4.932  13.844  0.00  0.00    -0.205 F 
ENDBRANCH  13  14
ENDBRANCH  11  13
ENDBRANCH   8  11
ENDBRANCH   4   7
BRANCH   1  21
ATOM     21  C   UNL     1       3.156  -2.357   2.029  0.00  0.00    +0.087 C 
BRANCH  21  22
ATOM     22  C   UNL     1       1.658  -2.565   2.264  0.00  0.00    -0.060 C 
BRANCH  22  28
ATOM     23  C   UNL     1       0.565   1.311  -0.520  0.00  0.00    +0.005 C 
ATOM     24  C   UNL     1       0.379  -0.198  -0.353  0.00  0.00    -0.031 C 
ATOM     25  C   UNL     1      -1.114  -0.520  -0.245  0.00  0.00    +0.003 C 
ATOM     26  C   UNL     1      -1.286  -2.022  -0.000  0.00  0.00    -0.031 C 
ATOM     27  C   UNL     1      -0.514  -2.420   1.260  0.00  0.00    -0.076 C 
ATOM     28  N   UNL     1       0.910  -2.111   1.083  0.00  0.00    +0.381 N 
ATOM     29  C   UNL     1       1.090  -0.663   0.919  0.00  0.00    -0.076 C 
ATOM     30  C   UNL     1      -2.770  -2.343   0.186  0.00  0.00    +0.005 C 
ATOM     31  H   UNL     1       1.257  -2.586   0.264  0.00  0.00    -0.082 HD
ENDBRANCH  22  28
ENDBRANCH  21  22
ENDBRANCH   1  21
TORSDOF 7
