REMARK  Name = ZINC08756651
REMARK  14 active torsions:
REMARK  status: ('A' for Active; 'I' for Inactive)
REMARK    1  A    between atoms: C_1  and  C_2
REMARK    2  A    between atoms: C_2  and  C_3
REMARK    3  A    between atoms: C_3  and  C_4
REMARK    4  A    between atoms: C_4  and  N_5
REMARK    5  A    between atoms: N_9  and  N_10
REMARK    6  A    between atoms: C_11  and  C_13
REMARK    7  A    between atoms: C_13  and  C_14
REMARK    8  A    between atoms: N_16  and  N_17
REMARK    9  A    between atoms: N_21  and  C_29
REMARK   10  A    between atoms: C_25  and  C_28
REMARK   11  A    between atoms: C_29  and  C_30
REMARK   12  A    between atoms: C_30  and  C_31
REMARK   13  A    between atoms: C_31  and  C_32
REMARK   14  A    between atoms: C_37  and  C_39
REMARK                            x       y       z     vdW  Elec       q    Type
REMARK                         _______ _______ _______ _____ _____    ______ ____
ROOT
ATOM      1  C   UNL     1       7.853  -3.755   3.062  0.00  0.00    +0.194 C 
ENDROOT
BRANCH   1   3
ATOM      2  N   UNL     1       5.427  -3.492   3.471  0.00  0.00    -0.206 N 
ATOM      3  C   UNL     1       6.638  -3.837   3.951  0.00  0.00    +0.241 C 
ATOM      4  O   UNL     1       6.751  -4.214   5.098  0.00  0.00    -0.274 OA
ATOM      5  H   UNL     1       5.337  -3.191   2.553  0.00  0.00    +0.177 HD
BRANCH   2  10
ATOM      6  N   UNL     1       1.471  -2.526   2.420  0.00  0.00    -0.266 N 
ATOM      7  C   UNL     1       2.795  -2.755   2.470  0.00  0.00    +0.271 C 
ATOM      8  O   UNL     1       3.584  -2.597   1.558  0.00  0.00    -0.268 OA
ATOM      9  C   UNL     1       3.121  -3.233   3.830  0.00  0.00    +0.153 C 
ATOM     10  N   UNL     1       4.298  -3.568   4.297  0.00  0.00    -0.175 NA
ATOM     11  C   UNL     1       1.826  -3.249   4.550  0.00  0.00    +0.029 A 
ATOM     12  C   UNL     1       0.861  -2.802   3.638  0.00  0.00    +0.046 A 
ATOM     13  C   UNL     1      -0.464  -2.709   4.049  0.00  0.00    +0.024 A 
ATOM     14  C   UNL     1      -0.815  -3.051   5.340  0.00  0.00    +0.005 A 
ATOM     15  C   UNL     1       0.143  -3.488   6.239  0.00  0.00    -0.050 A 
ATOM     16  C   UNL     1       1.462  -3.596   5.846  0.00  0.00    +0.015 A 
ATOM     17  C   UNL     1      -0.257  -3.855   7.645  0.00  0.00    +0.044 C 
BRANCH   6  18
ATOM     18  C   UNL     1       0.763  -2.041   1.233  0.00  0.00    +0.114 C 
BRANCH  18  19
ATOM     19  C   UNL     1       0.742  -0.511   1.242  0.00  0.00    +0.019 C 
BRANCH  19  21
ATOM     20  C   UNL     1      -0.019   1.526   0.010  0.00  0.00    +0.004 C 
ATOM     21  C   UNL     1       0.002  -0.004   0.002  0.00  0.00    -0.002 C 
ENDBRANCH  19  21
ENDBRANCH  18  19
ENDBRANCH   6  18
ENDBRANCH   2  10
ENDBRANCH   1   3
BRANCH   1  22
ATOM     22  C   UNL     1       9.071  -4.193   3.835  0.00  0.00    +0.241 C 
ATOM     23  O   UNL     1       8.963  -4.537   4.992  0.00  0.00    -0.274 OA
ATOM     24  N   UNL     1      10.279  -4.201   3.239  0.00  0.00    -0.206 N 
ATOM     25  H   UNL     1      10.365  -3.926   2.312  0.00  0.00    +0.177 HD
BRANCH  24  26
ATOM     26  N   UNL     1      11.412  -4.608   3.957  0.00  0.00    -0.175 NA
ATOM     27  C   UNL     1      12.587  -4.616   3.377  0.00  0.00    +0.153 C 
ATOM     28  C   UNL     1      12.908  -4.227   1.988  0.00  0.00    +0.271 C 
ATOM     29  O   UNL     1      12.116  -3.832   1.154  0.00  0.00    -0.268 OA
ATOM     30  N   UNL     1      14.231  -4.387   1.810  0.00  0.00    -0.266 N 
ATOM     31  C   UNL     1      14.846  -4.856   2.966  0.00  0.00    +0.046 A 
ATOM     32  C   UNL     1      13.885  -5.011   3.973  0.00  0.00    +0.029 A 
ATOM     33  C   UNL     1      14.254  -5.464   5.234  0.00  0.00    +0.015 A 
ATOM     34  C   UNL     1      15.578  -5.759   5.495  0.00  0.00    -0.050 A 
ATOM     35  C   UNL     1      16.532  -5.604   4.505  0.00  0.00    +0.005 A 
ATOM     36  C   UNL     1      16.173  -5.162   3.246  0.00  0.00    +0.024 A 
ATOM     37  C   UNL     1      15.984  -6.251   6.861  0.00  0.00    +0.044 C 
BRANCH  30  38
ATOM     38  C   UNL     1      14.935  -4.105   0.557  0.00  0.00    +0.114 C 
BRANCH  38  39
ATOM     39  C   UNL     1      15.403  -2.648   0.552  0.00  0.00    +0.019 C 
BRANCH  39  40
ATOM     40  C   UNL     1      16.138  -2.353  -0.757  0.00  0.00    -0.002 C 
ATOM     41  C   UNL     1      16.606  -0.896  -0.761  0.00  0.00    +0.004 C 
ENDBRANCH  39  40
ENDBRANCH  38  39
ENDBRANCH  30  38
ENDBRANCH  24  26
ENDBRANCH   1  22
TORSDOF 10
