REMARK  Name = ZINC50305401
REMARK  4 active torsions:
REMARK  status: ('A' for Active; 'I' for Inactive)
REMARK    1  A    between atoms: C_1  and  C_2
REMARK    2  A    between atoms: C_3  and  N_22
REMARK    3  A    between atoms: C_4  and  C_8
REMARK    4  A    between atoms: C_19  and  C_21
REMARK                            x       y       z     vdW  Elec       q    Type
REMARK                         _______ _______ _______ _____ _____    ______ ____
ROOT
ATOM      1  C   UNL     1      -0.201  -3.414  -1.330  0.00  0.00    +0.273 C 
ATOM      2  O   UNL     1      -0.074  -3.289  -2.533  0.00  0.00    -0.268 OA
ATOM      3  N   UNL     1       0.027  -4.609  -0.749  0.00  0.00    -0.263 N 
ATOM      4  C   UNL     1       0.016  -4.737   0.646  0.00  0.00    +0.040 A 
ATOM      5  C   UNL     1       0.050  -3.590   1.431  0.00  0.00    +0.024 A 
ATOM      6  C   UNL     1       0.036  -3.694   2.808  0.00  0.00    +0.002 A 
ATOM      7  C   UNL     1      -0.013  -4.941   3.404  0.00  0.00    +0.000 A 
ATOM      8  C   UNL     1      -0.045  -6.081   2.626  0.00  0.00    +0.005 A 
ATOM      9  C   UNL     1      -0.029  -5.986   1.245  0.00  0.00    -0.026 A 
ATOM     10  C   UNL     1      -0.056  -7.250   0.427  0.00  0.00    +0.039 C 
ATOM     11  C   UNL     1      -0.536  -6.957  -0.995  0.00  0.00    +0.027 C 
ATOM     12  C   UNL     1       0.286  -5.801  -1.569  0.00  0.00    +0.079 C 
ATOM     13  C   UNL     1      -0.135  -5.535  -3.016  0.00  0.00    +0.028 C 
ENDROOT
BRANCH   1  17
ATOM     14  C   UNL     1      -0.551   1.227   0.689  0.00  0.00    +0.067 C 
ATOM     15  C   UNL     1      -0.745  -0.232   0.363  0.00  0.00    +0.054 A 
ATOM     16  C   UNL     1      -0.071  -0.947  -0.577  0.00  0.00    +0.078 A 
ATOM     17  C   UNL     1      -0.604  -2.260  -0.506  0.00  0.00    +0.168 A 
ATOM     18  N   UNL     1      -1.529  -2.252   0.435  0.00  0.00    -0.167 NA
ATOM     19  N   UNL     1      -1.622  -1.082   0.958  0.00  0.00    -0.279 N 
ATOM     20  H   UNL     1      -2.233  -0.840   1.671  0.00  0.00    +0.189 HD
BRANCH  16  21
ATOM     21  N   UNL     1       0.938  -0.484  -1.435  0.00  0.00    -0.355 N 
ATOM     22  H   UNL     1       1.223   0.442  -1.392  0.00  0.00    +0.142 HD
ATOM     23  H   UNL     1       1.349  -1.090  -2.070  0.00  0.00    +0.142 HD
ENDBRANCH  16  21
ENDBRANCH   1  17
TORSDOF 2
