REMARK  Name = ZINC39490298
REMARK  7 active torsions:
REMARK  status: ('A' for Active; 'I' for Inactive)
REMARK    1  A    between atoms: C_1  and  C_2
REMARK    2  A    between atoms: C_2  and  C_35
REMARK    3  A    between atoms: C_4  and  N_21
REMARK    4  A    between atoms: N_10  and  C_14
REMARK    5  A    between atoms: N_21  and  C_22
REMARK    6  A    between atoms: C_22  and  C_23
REMARK    7  A    between atoms: C_28  and  C_29
REMARK                            x       y       z     vdW  Elec       q    Type
REMARK                         _______ _______ _______ _____ _____    ______ ____
ROOT
ATOM      1  C   UNL     1      -0.179   0.296   0.132  0.00  0.00    +0.011 C 
ATOM      2  C   UNL     1       0.320  -1.150   0.115  0.00  0.00    -0.035 C 
ATOM      3  C   UNL     1       0.886  -1.465  -1.266  0.00  0.00    -0.009 C 
ATOM      4  C   UNL     1       2.158  -0.651  -1.560  0.00  0.00    -0.065 C 
ATOM      5  C   UNL     1       3.157  -0.979  -0.466  0.00  0.00    +0.012 C 
ATOM      6  C   UNL     1       4.466  -0.176  -0.483  0.00  0.00    +0.106 C 
ATOM      7  N   UNL     1       4.837  -0.156   0.961  0.00  0.00    -0.240 NA
ATOM      8  N   UNL     1       3.713  -0.370   1.733  0.00  0.00    -0.264 N 
ATOM      9  C   UNL     1       2.546  -0.435   0.859  0.00  0.00    +0.094 C 
ATOM     10  C   UNL     1       1.381  -1.329   1.216  0.00  0.00    +0.030 C 
ATOM     11  C   UNL     1      -0.855  -2.088   0.397  0.00  0.00    +0.011 C 
ATOM     12  H   UNL     1       5.285   0.714   1.207  0.00  0.00    +0.144 HD
ENDROOT
BRANCH   8  13
ATOM     13  C   UNL     1       3.690  -0.521   3.122  0.00  0.00    +0.047 A 
ATOM     14  C   UNL     1       4.646  -1.309   3.752  0.00  0.00    +0.024 A 
ATOM     15  C   UNL     1       4.622  -1.457   5.124  0.00  0.00    +0.005 A 
ATOM     16  C   UNL     1       3.648  -0.823   5.873  0.00  0.00    +0.038 A 
ATOM     17  C   UNL     1       2.694  -0.037   5.250  0.00  0.00    +0.125 A 
ATOM     18  C   UNL     1       2.716   0.120   3.875  0.00  0.00    +0.062 A 
ATOM     19  F   UNL     1       1.743   0.582   5.984  0.00  0.00    -0.205 F 
ENDBRANCH   8  13
BRANCH   4  20
ATOM     20  N   UNL     1       1.849   0.785  -1.545  0.00  0.00    +0.382 N 
ATOM     21  H   UNL     1       1.388   1.020  -0.679  0.00  0.00    -0.085 HD
ATOM     22  H   UNL     1       2.704   1.314  -1.626  0.00  0.00    -0.085 HD
BRANCH  20  23
ATOM     23  C   UNL     1       0.965   1.107  -2.673  0.00  0.00    -0.067 C 
BRANCH  23  24
ATOM     24  C   UNL     1       0.643   2.603  -2.658  0.00  0.00    +0.066 C 
ATOM     25  C   UNL     1      -0.234   2.948  -1.470  0.00  0.00    +0.115 C 
ATOM     26  N   UNL     1      -1.337   3.412  -1.961  0.00  0.00    -0.161 NA
ATOM     27  N   UNL     1      -1.334   3.432  -3.352  0.00  0.00    -0.153 NA
ATOM     28  C   UNL     1      -0.213   2.977  -3.851  0.00  0.00    +0.077 C 
BRANCH  28  29
ATOM     29  C   UNL     1       0.144   2.854  -5.274  0.00  0.00    -0.001 A 
ATOM     30  C   UNL     1       1.390   2.339  -5.643  0.00  0.00    +0.010 A 
ATOM     31  C   UNL     1       1.718   2.226  -6.978  0.00  0.00    +0.001 A 
ATOM     32  C   UNL     1       0.816   2.623  -7.951  0.00  0.00    +0.000 A 
ATOM     33  C   UNL     1      -0.419   3.134  -7.593  0.00  0.00    +0.001 A 
ATOM     34  C   UNL     1      -0.764   3.247  -6.263  0.00  0.00    +0.010 A 
ENDBRANCH  28  29
ENDBRANCH  23  24
ENDBRANCH  20  23
ENDBRANCH   4  20
TORSDOF 5
