REMARK  Name = ZINC38656350
REMARK  11 active torsions:
REMARK  status: ('A' for Active; 'I' for Inactive)
REMARK    1  A    between atoms: C_1  and  C_2
REMARK    2  A    between atoms: C_2  and  C_3
REMARK    3  A    between atoms: C_2  and  C_4
REMARK    4  A    between atoms: C_2  and  C_5
REMARK    5  A    between atoms: C_8  and  C_11
REMARK    6  A    between atoms: C_12  and  C_13
REMARK    7  A    between atoms: C_13  and  O_15
REMARK    8  A    between atoms: O_15  and  C_16
REMARK    9  A    between atoms: C_23  and  N_34
REMARK   10  A    between atoms: C_24  and  C_32
REMARK   11  A    between atoms: C_25  and  C_27
REMARK                            x       y       z     vdW  Elec       q    Type
REMARK                         _______ _______ _______ _____ _____    ______ ____
ROOT
ATOM      1  C   UNL     1       6.580  -2.196  -7.447  0.00  0.00    +0.135 A 
ATOM      2  C   UNL     1       6.297  -1.733  -8.725  0.00  0.00    +0.047 A 
ATOM      3  C   UNL     1       6.936  -2.288  -9.816  0.00  0.00    +0.012 A 
ATOM      4  C   UNL     1       7.858  -3.304  -9.642  0.00  0.00    +0.008 A 
ATOM      5  C   UNL     1       8.144  -3.770  -8.369  0.00  0.00    +0.138 A 
ATOM      6  C   UNL     1       7.507  -3.209  -7.269  0.00  0.00    +0.093 A 
ATOM      7  O   UNL     1       9.045  -4.765  -8.178  0.00  0.00    -0.441 OA
ATOM      8  C   UNL     1       9.942  -5.051  -9.136  0.00  0.00    +0.199 C 
ATOM      9  C   UNL     1       9.763  -4.666 -10.422  0.00  0.00    +0.098 C 
ATOM     10  C   UNL     1       8.544  -3.896 -10.845  0.00  0.00    +0.105 C 
ENDROOT
BRANCH  10  11
ATOM     11  C   UNL     1       7.592  -4.821 -11.558  0.00  0.00    +0.002 A 
ATOM     12  C   UNL     1       7.133  -4.758 -12.832  0.00  0.00    +0.012 A 
ATOM     13  C   UNL     1       6.255  -5.729 -13.276  0.00  0.00    +0.008 A 
ATOM     14  C   UNL     1       5.878  -6.715 -12.426  0.00  0.00    +0.045 A 
ATOM     15  S   UNL     1       6.781  -6.290 -10.945  0.00  0.00    -0.101 S 
ENDBRANCH  10  11
BRANCH   8  16
ATOM     16  N   UNL     1      11.073  -5.753  -8.802  0.00  0.00    -0.328 N 
ATOM     17  H   UNL     1      11.216  -6.035  -7.886  0.00  0.00    +0.145 HD
ATOM     18  H   UNL     1      11.730  -5.966  -9.483  0.00  0.00    +0.145 HD
ENDBRANCH   8  16
BRANCH   9  19
ATOM     19  C   UNL     1      10.756  -4.999 -11.399  0.00  0.00    +0.101 C 
ATOM     20  N   UNL     1      11.544  -5.264 -12.173  0.00  0.00    -0.191 NA
ENDBRANCH   9  19
BRANCH   1  21
ATOM     21  O   UNL     1       5.952  -1.651  -6.372  0.00  0.00    -0.423 OA
BRANCH  21  22
ATOM     22  C   UNL     1       4.677  -2.022  -6.128  0.00  0.00    +0.337 C 
ATOM     23  O   UNL     1       4.095  -2.750  -6.910  0.00  0.00    -0.245 OA
BRANCH  22  25
ATOM     24  C   UNL     1       2.721  -1.917  -4.681  0.00  0.00    +0.015 C 
ATOM     25  C   UNL     1       3.996  -1.547  -4.925  0.00  0.00    +0.092 C 
BRANCH  24  29
ATOM     26  C   UNL     1       0.744  -0.543  -1.189  0.00  0.00    -0.042 A 
ATOM     27  C   UNL     1       0.078  -1.371  -2.076  0.00  0.00    +0.005 A 
ATOM     28  C   UNL     1       0.714  -1.822  -3.214  0.00  0.00    +0.008 A 
ATOM     29  C   UNL     1       2.035  -1.440  -3.470  0.00  0.00    -0.025 A 
ATOM     30  C   UNL     1       2.701  -0.603  -2.568  0.00  0.00    +0.008 A 
ATOM     31  C   UNL     1       2.050  -0.157  -1.438  0.00  0.00    +0.005 A 
BRANCH  26  33
ATOM     32  C   UNL     1      -0.019   1.474   0.036  0.00  0.00    +0.015 C 
ATOM     33  C   UNL     1       0.042  -0.055   0.052  0.00  0.00    -0.013 C 
ATOM     34  C   UNL     1       0.811  -0.521   1.290  0.00  0.00    +0.015 C 
ATOM     35  C   UNL     1      -1.379  -0.622   0.090  0.00  0.00    +0.015 C 
ENDBRANCH  26  33
ENDBRANCH  24  29
ENDBRANCH  22  25
ENDBRANCH  21  22
ENDBRANCH   1  21
TORSDOF 8
