REMARK  Name = ZINC18716183
REMARK  2 active torsions:
REMARK  status: ('A' for Active; 'I' for Inactive)
REMARK    1  A    between atoms: C_3  and  O_14
REMARK    2  A    between atoms: C_9  and  O_13
REMARK                            x       y       z     vdW  Elec       q    Type
REMARK                         _______ _______ _______ _____ _____    ______ ____
ROOT
ATOM      1  C   UNL     1      -0.013   1.086   0.008  0.00  0.00    +0.009 C 
ATOM      2  C   UNL     1      -0.844   1.641  -1.194  0.00  0.00    +0.032 C 
ATOM      3  C   UNL     1      -2.290   1.851  -0.651  0.00  0.00    +0.118 C 
ATOM      4  C   UNL     1      -2.259   1.253   0.730  0.00  0.00    +0.023 C 
ATOM      5  C   UNL     1      -0.794   1.610   1.191  0.00  0.00    +0.023 C 
ATOM      6  C   UNL     1      -0.764   1.011   2.571  0.00  0.00    +0.118 C 
ATOM      7  C   UNL     1      -2.210   1.221   3.114  0.00  0.00    +0.032 C 
ATOM      8  C   UNL     1      -3.041   1.776   1.912  0.00  0.00    +0.009 C 
ENDROOT
BRANCH   6   9
ATOM      9  O   UNL     1       0.183   1.696   3.394  0.00  0.00    -0.392 OA
ATOM     10  H   UNL     1       0.204   1.387   4.310  0.00  0.00    +0.210 HD
ENDBRANCH   6   9
BRANCH   3  11
ATOM     11  O   UNL     1      -2.602   3.244  -0.585  0.00  0.00    -0.392 OA
ATOM     12  H   UNL     1      -2.580   3.693  -1.442  0.00  0.00    +0.210 HD
ENDBRANCH   3  11
TORSDOF 2
