REMARK  Name = ZINC09470978
REMARK  8 active torsions:
REMARK  status: ('A' for Active; 'I' for Inactive)
REMARK    1  A    between atoms: C_1  and  C_2
REMARK    2  A    between atoms: C_2  and  C_3
REMARK    3  A    between atoms: C_8  and  N_9
REMARK    4  A    between atoms: C_12  and  C_17
REMARK    5  A    between atoms: C_17  and  S_18
REMARK    6  A    between atoms: S_18  and  C_19
REMARK    7  A    between atoms: C_22  and  C_30
REMARK    8  A    between atoms: N_23  and  C_24
REMARK                            x       y       z     vdW  Elec       q    Type
REMARK                         _______ _______ _______ _____ _____    ______ ____
ROOT
ATOM      1  N   UNL     1       4.118   3.703  -8.023  0.00  0.00    -0.283 N 
ATOM      2  C   UNL     1       4.611   3.056  -6.906  0.00  0.00    +0.224 A 
ATOM      3  N   UNL     1       4.489   3.615  -5.704  0.00  0.00    -0.198 NA
ATOM      4  C   UNL     1       4.960   2.997  -4.636  0.00  0.00    +0.146 A 
ATOM      5  N   UNL     1       5.559   1.824  -4.756  0.00  0.00    -0.199 NA
ATOM      6  C   UNL     1       5.679   1.257  -5.954  0.00  0.00    +0.217 A 
ATOM      7  N   UNL     1       5.207   1.875  -7.030  0.00  0.00    -0.181 NA
ATOM      8  N   UNL     1       6.299   0.030  -6.077  0.00  0.00    -0.327 N 
ATOM      9  H   UNL     1       3.608   4.522  -7.923  0.00  0.00    +0.155 HD
ATOM     10  H   UNL     1       6.390  -0.382  -6.951  0.00  0.00    +0.145 HD
ATOM     11  H   UNL     1       6.644  -0.421  -5.291  0.00  0.00    +0.145 HD
ENDROOT
BRANCH   1  17
ATOM     12  C   UNL     1       3.493   3.477 -10.344  0.00  0.00    -0.026 A 
ATOM     13  C   UNL     1       3.728   2.955 -11.601  0.00  0.00    +0.005 A 
ATOM     14  C   UNL     1       4.820   2.135 -11.817  0.00  0.00    +0.000 A 
ATOM     15  C   UNL     1       5.679   1.833 -10.777  0.00  0.00    +0.002 A 
ATOM     16  C   UNL     1       5.453   2.356  -9.519  0.00  0.00    +0.023 A 
ATOM     17  C   UNL     1       4.354   3.176  -9.297  0.00  0.00    +0.037 A 
BRANCH  12  19
ATOM     18  C   UNL     1       2.730   5.834 -10.235  0.00  0.00    +0.009 C 
ATOM     19  C   UNL     1       2.302   4.370 -10.109  0.00  0.00    +0.033 C 
ENDBRANCH  12  19
ENDBRANCH   1  17
BRANCH   4  20
ATOM     20  C   UNL     1       4.821   3.633  -3.277  0.00  0.00    +0.153 C 
BRANCH  20  21
ATOM     21  S   UNL     1       3.262   3.107  -2.522  0.00  0.00    -0.078 S 
BRANCH  21  22
ATOM     22  C   UNL     1       3.356   3.974  -0.991  0.00  0.00    +0.197 A 
ATOM     23  N   UNL     1       4.330   4.761  -0.597  0.00  0.00    -0.122 NA
ATOM     24  N   UNL     1       4.072   5.227   0.572  0.00  0.00    -0.133 NA
ATOM     25  C   UNL     1       2.924   4.775   0.992  0.00  0.00    +0.142 A 
ATOM     26  N   UNL     1       2.427   3.954   0.014  0.00  0.00    -0.274 N 
BRANCH  26  27
ATOM     27  C   UNL     1       1.217   3.246   0.035  0.00  0.00    +0.050 A 
ATOM     28  C   UNL     1       1.223   1.858   0.036  0.00  0.00    +0.026 A 
ATOM     29  C   UNL     1       0.029   1.164   0.057  0.00  0.00    +0.002 A 
ATOM     30  C   UNL     1      -1.171   1.850   0.073  0.00  0.00    +0.000 A 
ATOM     31  C   UNL     1      -1.181   3.233   0.078  0.00  0.00    +0.002 A 
ATOM     32  C   UNL     1       0.010   3.933   0.057  0.00  0.00    +0.026 A 
ENDBRANCH  26  27
BRANCH  25  33
ATOM     33  C   UNL     1       2.266   5.093   2.310  0.00  0.00    +0.057 C 
ATOM     34  C   UNL     1       2.896   6.193   3.167  0.00  0.00    +0.012 C 
ATOM     35  C   UNL     1       3.026   4.726   3.586  0.00  0.00    +0.012 C 
ENDBRANCH  25  33
ENDBRANCH  21  22
ENDBRANCH  20  21
ENDBRANCH   4  20
TORSDOF 7
