REMARK  Name = ZINC60362461
REMARK  8 active torsions:
REMARK  status: ('A' for Active; 'I' for Inactive)
REMARK    1  A    between atoms: C_1  and  C_2
REMARK    2  A    between atoms: N_4  and  C_5
REMARK    3  A    between atoms: C_5  and  C_7
REMARK    4  A    between atoms: C_5  and  C_18
REMARK    5  A    between atoms: C_7  and  C_8
REMARK    6  A    between atoms: N_20  and  C_21
REMARK    7  A    between atoms: C_24  and  N_27
REMARK    8  A    between atoms: C_30  and  C_32
REMARK                            x       y       z     vdW  Elec       q    Type
REMARK                         _______ _______ _______ _____ _____    ______ ____
ROOT
ATOM      1  C   UNL     1      -0.297  -2.707  -1.154  0.00  0.00    +0.238 C 
ATOM      2  O   UNL     1       0.566  -2.034  -1.677  0.00  0.00    -0.273 OA
ATOM      3  N   UNL     1      -0.628  -3.904  -1.677  0.00  0.00    -0.284 N 
ATOM      4  H   UNL     1      -1.263  -4.475  -1.216  0.00  0.00    +0.155 HD
ENDROOT
BRANCH   3   5
ATOM      5  C   UNL     1      -0.057  -4.323  -2.884  0.00  0.00    +0.034 A 
ATOM      6  C   UNL     1       0.195  -5.671  -3.102  0.00  0.00    +0.025 A 
ATOM      7  C   UNL     1       0.758  -6.084  -4.292  0.00  0.00    +0.029 A 
ATOM      8  C   UNL     1       1.073  -5.151  -5.272  0.00  0.00    +0.065 A 
ATOM      9  C   UNL     1       0.821  -3.803  -5.054  0.00  0.00    +0.029 A 
ATOM     10  C   UNL     1       0.252  -3.390  -3.866  0.00  0.00    +0.025 A 
BRANCH   8  11
ATOM     11  N   UNL     1       1.646  -5.571  -6.481  0.00  0.00    -0.239 N 
ATOM     12  C   UNL     1       1.997  -4.747  -7.502  0.00  0.00    +0.115 A 
ATOM     13  C   UNL     1       2.511  -5.526  -8.483  0.00  0.00    +0.054 A 
ATOM     14  C   UNL     1       2.446  -6.851  -7.989  0.00  0.00    +0.147 A 
ATOM     15  N   UNL     1       1.920  -6.789  -6.782  0.00  0.00    -0.162 NA
BRANCH  14  16
ATOM     16  C   UNL     1       2.888  -8.072  -8.692  0.00  0.00    +0.262 C 
ATOM     17  O   UNL     1       3.364  -7.992  -9.808  0.00  0.00    -0.269 OA
ATOM     18  N   UNL     1       2.765  -9.274  -8.097  0.00  0.00    -0.324 N 
ATOM     19  H   UNL     1       2.385  -9.338  -7.206  0.00  0.00    +0.145 HD
ATOM     20  H   UNL     1       3.056 -10.076  -8.558  0.00  0.00    +0.145 HD
ENDBRANCH  14  16
ENDBRANCH   8  11
ENDBRANCH   3   5
BRANCH   1  21
ATOM     21  C   UNL     1      -0.999  -2.203   0.081  0.00  0.00    +0.163 C 
BRANCH  21  25
ATOM     22  C   UNL     1       0.567   1.278   0.364  0.00  0.00    +0.109 C 
ATOM     23  C   UNL     1       0.399  -0.216   0.264  0.00  0.00    +0.211 C 
ATOM     24  O   UNL     1       1.374  -0.937   0.261  0.00  0.00    -0.276 OA
ATOM     25  N   UNL     1      -0.835  -0.751   0.178  0.00  0.00    -0.304 N 
ATOM     26  H   UNL     1      -1.615  -0.174   0.180  0.00  0.00    +0.149 HD
ENDBRANCH  21  25
BRANCH  21  27
ATOM     27  C   UNL     1      -0.393  -2.869   1.319  0.00  0.00    +0.069 C 
BRANCH  27  28
ATOM     28  C   UNL     1      -1.174  -2.460   2.541  0.00  0.00    -0.020 A 
ATOM     29  C   UNL     1      -0.882  -1.448   3.374  0.00  0.00    +0.087 A 
ATOM     30  N   UNL     1      -1.816  -1.381   4.371  0.00  0.00    -0.360 N 
ATOM     31  H   UNL     1      -1.816  -0.731   5.091  0.00  0.00    +0.165 HD
ATOM     32  C   UNL     1      -2.756  -2.372   4.200  0.00  0.00    +0.047 A 
ATOM     33  C   UNL     1      -2.398  -3.088   3.043  0.00  0.00    +0.003 A 
ATOM     34  C   UNL     1      -3.184  -4.160   2.617  0.00  0.00    +0.010 A 
ATOM     35  C   UNL     1      -4.300  -4.508   3.325  0.00  0.00    +0.001 A 
ATOM     36  C   UNL     1      -4.659  -3.802   4.465  0.00  0.00    +0.002 A 
ATOM     37  C   UNL     1      -3.893  -2.746   4.909  0.00  0.00    +0.026 A 
ENDBRANCH  27  28
ENDBRANCH  21  27
ENDBRANCH   1  21
TORSDOF 7
