REMARK  Name = ZINC12644023
REMARK  6 active torsions:
REMARK  status: ('A' for Active; 'I' for Inactive)
REMARK    1  A    between atoms: C_4  and  N_7
REMARK    2  A    between atoms: N_10  and  C_11
REMARK    3  A    between atoms: N_20  and  C_21
REMARK    4  A    between atoms: C_21  and  C_22
REMARK    5  A    between atoms: N_24  and  C_25
REMARK    6  A    between atoms: C_25  and  C_26
REMARK                            x       y       z     vdW  Elec       q    Type
REMARK                         _______ _______ _______ _____ _____    ______ ____
ROOT
ATOM      1  C   UNL     1       4.848  -4.106   0.247  0.00  0.00    +0.071 C 
ATOM      2  C   UNL     1       4.774  -4.716  -1.156  0.00  0.00    +0.007 C 
ATOM      3  C   UNL     1       4.951  -6.239  -1.045  0.00  0.00    -0.066 C 
ATOM      4  C   UNL     1       4.006  -6.745   0.069  0.00  0.00    -0.017 C 
ATOM      5  C   UNL     1       4.835  -6.641   1.367  0.00  0.00    -0.017 C 
ATOM      6  C   UNL     1       6.205  -6.082   0.918  0.00  0.00    -0.066 C 
ATOM      7  C   UNL     1       6.143  -4.546   0.935  0.00  0.00    +0.007 C 
ATOM      8  N   UNL     1       6.321  -6.487  -0.523  0.00  0.00    +0.389 N 
ATOM      9  H   UNL     1       6.996  -5.918  -1.012  0.00  0.00    -0.080 HD
ENDROOT
BRANCH   1  13
ATOM     10  N   UNL     1       3.622  -0.651  -0.036  0.00  0.00    -0.269 N 
ATOM     11  C   UNL     1       3.645  -1.995   0.058  0.00  0.00    +0.304 C 
ATOM     12  O   UNL     1       2.603  -2.622   0.065  0.00  0.00    -0.253 OA
ATOM     13  N   UNL     1       4.823  -2.644   0.144  0.00  0.00    -0.296 N 
ATOM     14  H   UNL     1       4.452  -0.156  -0.120  0.00  0.00    +0.156 HD
ATOM     15  H   UNL     1       5.654  -2.144   0.139  0.00  0.00    +0.151 HD
BRANCH  10  19
ATOM     16  C   UNL     1      -0.015   1.381   0.031  0.00  0.00    +0.000 A 
ATOM     17  C   UNL     1       0.140   0.219   0.765  0.00  0.00    +0.002 A 
ATOM     18  C   UNL     1       1.344  -0.457   0.744  0.00  0.00    +0.023 A 
ATOM     19  C   UNL     1       2.400   0.031  -0.014  0.00  0.00    +0.035 A 
ATOM     20  C   UNL     1       2.241   1.198  -0.750  0.00  0.00    +0.023 A 
ATOM     21  C   UNL     1       1.034   1.870  -0.725  0.00  0.00    +0.002 A 
ENDBRANCH  10  19
ENDBRANCH   1  13
BRANCH   8  22
ATOM     22  C   UNL     1       6.666  -7.911  -0.634  0.00  0.00    +0.019 C 
BRANCH  22  23
ATOM     23  C   UNL     1       8.099  -8.114  -0.214  0.00  0.00    +0.197 C 
ATOM     24  O   UNL     1       8.767  -7.167   0.142  0.00  0.00    -0.278 OA
ATOM     25  N   UNL     1       8.638  -9.349  -0.234  0.00  0.00    -0.310 N 
ATOM     26  H   UNL     1       8.104 -10.107  -0.518  0.00  0.00    +0.149 HD
BRANCH  25  27
ATOM     27  C   UNL     1      10.031  -9.547   0.175  0.00  0.00    +0.178 C 
BRANCH  27  28
ATOM     28  C   UNL     1      10.385 -11.008   0.062  0.00  0.00    +0.122 A 
ATOM     29  C   UNL     1      10.899 -11.611  -1.025  0.00  0.00    +0.046 A 
ATOM     30  C   UNL     1      11.075 -12.974  -0.693  0.00  0.00    +0.041 A 
ATOM     31  C   UNL     1      10.658 -13.122   0.578  0.00  0.00    +0.195 A 
ATOM     32  O   UNL     1      10.246 -11.927   1.031  0.00  0.00    -0.466 OA
ENDBRANCH  27  28
ENDBRANCH  25  27
ENDBRANCH  22  23
ENDBRANCH   8  22
TORSDOF 6
