REMARK  Name = ZINC12641160
REMARK  6 active torsions:
REMARK  status: ('A' for Active; 'I' for Inactive)
REMARK    1  A    between atoms: C_6  and  C_7
REMARK    2  A    between atoms: C_15  and  S_19
REMARK    3  A    between atoms: S_19  and  C_20
REMARK    4  A    between atoms: C_20  and  C_21
REMARK    5  A    between atoms: N_23  and  N_24
REMARK    6  A    between atoms: C_25  and  C_27
REMARK                            x       y       z     vdW  Elec       q    Type
REMARK                         _______ _______ _______ _____ _____    ______ ____
ROOT
ATOM      1  C   UNL     1      12.230  -0.197  -0.123  0.00  0.00    +0.002 A 
ATOM      2  C   UNL     1      13.529   0.196  -0.139  0.00  0.00    +0.056 A 
ATOM      3  S   UNL     1      13.418   1.975  -0.135  0.00  0.00    -0.076 S 
ATOM      4  C   UNL     1      11.652   2.146  -0.113  0.00  0.00    +0.114 A 
ATOM      5  C   UNL     1      11.191   0.821  -0.100  0.00  0.00    +0.060 A 
ATOM      6  C   UNL     1       9.721   0.671  -0.087  0.00  0.00    +0.173 A 
ATOM      7  N   UNL     1       8.910  -0.358  -0.085  0.00  0.00    -0.128 NA
ATOM      8  N   UNL     1       7.689   0.053  -0.071  0.00  0.00    -0.122 NA
ATOM      9  C   UNL     1       7.650   1.366  -0.064  0.00  0.00    +0.198 A 
ATOM     10  N   UNL     1       8.944   1.809  -0.079  0.00  0.00    -0.260 N 
ATOM     11  C   UNL     1       9.525   3.044  -0.085  0.00  0.00    +0.208 A 
ATOM     12  N   UNL     1      10.819   3.185  -0.101  0.00  0.00    -0.230 NA
ENDROOT
BRANCH   1  18
ATOM     13  C   UNL     1      10.974  -2.134   0.819  0.00  0.00    +0.011 A 
ATOM     14  C   UNL     1      10.645  -3.474   0.814  0.00  0.00    +0.039 A 
ATOM     15  C   UNL     1      11.218  -4.327  -0.115  0.00  0.00    +0.123 A 
ATOM     16  C   UNL     1      12.120  -3.839  -1.046  0.00  0.00    +0.039 A 
ATOM     17  C   UNL     1      12.451  -2.499  -1.053  0.00  0.00    +0.011 A 
ATOM     18  C   UNL     1      11.877  -1.637  -0.120  0.00  0.00    -0.016 A 
ATOM     19  F   UNL     1      10.896  -5.639  -0.112  0.00  0.00    -0.205 F 
ENDBRANCH   1  18
BRANCH   9  20
ATOM     20  S   UNL     1       6.202   2.369  -0.044  0.00  0.00    -0.076 S 
BRANCH  20  21
ATOM     21  C   UNL     1       4.839   1.171  -0.038  0.00  0.00    +0.174 C 
BRANCH  21  22
ATOM     22  C   UNL     1       3.524   1.907  -0.021  0.00  0.00    +0.239 C 
ATOM     23  O   UNL     1       3.508   3.120  -0.015  0.00  0.00    -0.273 OA
ATOM     24  N   UNL     1       2.366   1.217  -0.014  0.00  0.00    -0.233 N 
ATOM     25  H   UNL     1       2.379   0.247  -0.019  0.00  0.00    +0.173 HD
BRANCH  24  26
ATOM     26  N   UNL     1       1.143   1.901   0.001  0.00  0.00    -0.230 N 
ATOM     27  C   UNL     1      -0.014   1.211   0.009  0.00  0.00    +0.260 C 
ATOM     28  O   UNL     1       0.002  -0.004   0.002  0.00  0.00    -0.269 OA
ATOM     29  H   UNL     1       1.130   2.871   0.007  0.00  0.00    +0.173 HD
BRANCH  27  30
ATOM     30  C   UNL     1      -1.304   1.933   0.019  0.00  0.00    +0.038 A 
ATOM     31  C   UNL     1      -1.326   3.329   0.032  0.00  0.00    +0.014 A 
ATOM     32  C   UNL     1      -2.533   3.996   0.035  0.00  0.00    +0.021 A 
ATOM     33  C   UNL     1      -3.721   3.285   0.037  0.00  0.00    +0.041 A 
ATOM     34  C   UNL     1      -3.706   1.900   0.030  0.00  0.00    +0.021 A 
ATOM     35  C   UNL     1      -2.505   1.221   0.021  0.00  0.00    +0.014 A 
ATOM     36 CL   UNL     1      -5.236   4.132   0.048  0.00  0.00    -0.084 Cl
ENDBRANCH  27  30
ENDBRANCH  24  26
ENDBRANCH  21  22
ENDBRANCH  20  21
ENDBRANCH   9  20
TORSDOF 6
