REMARK  Name = ZINC21581211
REMARK  9 active torsions:
REMARK  status: ('A' for Active; 'I' for Inactive)
REMARK    1  A    between atoms: C_1  and  C_2
REMARK    2  A    between atoms: C_2  and  N_3
REMARK    3  A    between atoms: N_3  and  C_4
REMARK    4  A    between atoms: N_3  and  C_16
REMARK    5  A    between atoms: C_4  and  C_5
REMARK    6  A    between atoms: C_11  and  C_15
REMARK    7  A    between atoms: C_16  and  C_17
REMARK    8  A    between atoms: N_19  and  C_20
REMARK    9  A    between atoms: C_25  and  C_26
REMARK                            x       y       z     vdW  Elec       q    Type
REMARK                         _______ _______ _______ _____ _____    ______ ____
ROOT
ATOM      1  N   UNL     1       0.095   4.299   0.945  0.00  0.00    +0.389 N 
ATOM      2  H   UNL     1      -0.683   3.794   0.354  0.00  0.00    -0.081 HD
ENDROOT
BRANCH   1   4
ATOM      3  C   UNL     1       1.106   4.425   3.172  0.00  0.00    -0.017 C 
ATOM      4  C   UNL     1      -0.066   3.890   2.347  0.00  0.00    -0.081 C 
ENDBRANCH   1   4
BRANCH   1   5
ATOM      5  C   UNL     1       1.403   3.881   0.421  0.00  0.00    -0.012 C 
BRANCH   5   6
ATOM      6  C   UNL     1       1.463   2.377   0.365  0.00  0.00    +0.086 A 
ATOM      7  N   UNL     1       0.558   1.510   0.703  0.00  0.00    -0.161 NA
ATOM      8  N   UNL     1       0.778   0.141   0.586  0.00  0.00    -0.171 N 
ATOM      9  C   UNL     1      -0.089  -0.865   0.905  0.00  0.00    +0.275 A 
ATOM     10  O   UNL     1      -1.196  -0.601   1.347  0.00  0.00    -0.266 OA
ATOM     11  C   UNL     1       0.293  -2.195   0.725  0.00  0.00    +0.095 A 
ATOM     12  C   UNL     1       1.545  -2.486   0.226  0.00  0.00    +0.046 A 
ATOM     13  N   UNL     1       2.364  -1.482  -0.074  0.00  0.00    -0.227 NA
ATOM     14  C   UNL     1       1.998  -0.237   0.097  0.00  0.00    +0.199 A 
ATOM     15  S   UNL     1       2.800   1.327  -0.184  0.00  0.00    -0.035 S 
ATOM     16  C   UNL     1       1.977  -3.915   0.024  0.00  0.00    +0.066 C 
ENDBRANCH   5   6
ENDBRANCH   1   5
BRANCH   1  17
ATOM     17  C   UNL     1      -0.093   5.748   0.795  0.00  0.00    +0.019 C 
BRANCH  17  18
ATOM     18  C   UNL     1      -1.554   6.083   0.951  0.00  0.00    +0.201 C 
ATOM     19  O   UNL     1      -2.373   5.194   1.050  0.00  0.00    -0.278 OA
ATOM     20  N   UNL     1      -1.951   7.371   0.980  0.00  0.00    -0.287 N 
ATOM     21  H   UNL     1      -1.220   8.176   0.811  0.00  0.00    +0.155 HD
BRANCH  20  22
ATOM     22  C   UNL     1      -3.292   7.685   1.225  0.00  0.00    +0.045 A 
ATOM     23  C   UNL     1      -4.129   6.748   1.818  0.00  0.00    +0.024 A 
ATOM     24  C   UNL     1      -5.451   7.062   2.063  0.00  0.00    +0.002 A 
ATOM     25  C   UNL     1      -5.945   8.305   1.710  0.00  0.00    +0.001 A 
ATOM     26  C   UNL     1      -5.116   9.238   1.115  0.00  0.00    +0.014 A 
ATOM     27  C   UNL     1      -3.791   8.931   0.872  0.00  0.00    +0.076 A 
BRANCH  27  28
ATOM     28  C   UNL     1      -2.889   9.949   0.222  0.00  0.00    +0.419 C 
ATOM     29  F   UNL     1      -3.614  11.117  -0.038  0.00  0.00    -0.166 F 
ATOM     30  F   UNL     1      -1.824  10.243   1.081  0.00  0.00    -0.166 F 
ATOM     31  F   UNL     1      -2.391   9.431  -0.978  0.00  0.00    -0.166 F 
ENDBRANCH  27  28
ENDBRANCH  20  22
ENDBRANCH  17  18
ENDBRANCH   1  17
TORSDOF 7
