REMARK  Name = ZINC39515944
REMARK  8 active torsions:
REMARK  status: ('A' for Active; 'I' for Inactive)
REMARK    1  A    between atoms: C_1  and  O_2
REMARK    2  A    between atoms: O_2  and  C_3
REMARK    3  A    between atoms: C_3  and  C_4
REMARK    4  A    between atoms: C_6  and  C_9
REMARK    5  A    between atoms: C_19  and  C_20
REMARK    6  A    between atoms: C_19  and  C_23
REMARK    7  A    between atoms: C_20  and  C_21
REMARK    8  A    between atoms: C_23  and  C_24
REMARK                            x       y       z     vdW  Elec       q    Type
REMARK                         _______ _______ _______ _____ _____    ______ ____
ROOT
ATOM      1  C   UNL     1      -1.731  -5.700  -1.054  0.00  0.00    +0.058 A 
ATOM      2  C   UNL     1      -1.498  -7.043  -0.723  0.00  0.00    +0.018 A 
ATOM      3  C   UNL     1      -1.164  -7.915  -1.724  0.00  0.00    +0.044 A 
ATOM      4  C   UNL     1      -1.066  -7.447  -3.033  0.00  0.00    +0.122 A 
ATOM      5  N   UNL     1      -1.291  -6.173  -3.320  0.00  0.00    -0.240 NA
ATOM      6  C   UNL     1      -1.621  -5.303  -2.387  0.00  0.00    +0.126 A 
ATOM      7  N   UNL     1      -0.728  -8.327  -4.050  0.00  0.00    -0.309 N 
ATOM      8  C   UNL     1      -0.610  -7.984  -5.479  0.00  0.00    +0.107 C 
ATOM      9  C   UNL     1       0.347  -9.052  -6.065  0.00  0.00    +0.021 C 
ATOM     10  C   UNL     1      -0.079 -10.319  -5.276  0.00  0.00    +0.028 C 
ATOM     11  C   UNL     1      -0.421  -9.755  -3.880  0.00  0.00    +0.043 C 
ENDROOT
BRANCH   1  14
ATOM     12  C   UNL     1      -2.637  -2.861   0.965  0.00  0.00    +0.197 A 
ATOM     13  N   UNL     1      -2.340  -3.445  -0.198  0.00  0.00    -0.189 NA
ATOM     14  C   UNL     1      -2.094  -4.723  -0.009  0.00  0.00    +0.260 A 
ATOM     15  O   UNL     1      -2.232  -4.983   1.303  0.00  0.00    -0.333 OA
ATOM     16  N   UNL     1      -2.580  -3.751   1.916  0.00  0.00    -0.058 NA
BRANCH  12  17
ATOM     17  C   UNL     1      -2.976  -1.405   1.151  0.00  0.00    +0.239 C 
BRANCH  17  19
ATOM     18  C   UNL     1      -1.991   0.737   1.586  0.00  0.00    +0.194 C 
ATOM     19  O   UNL     1      -1.779  -0.664   1.395  0.00  0.00    -0.375 OA
ENDBRANCH  17  19
ENDBRANCH  12  17
ENDBRANCH   1  14
BRANCH  11  20
ATOM     20  C   UNL     1       0.776  -9.922  -2.941  0.00  0.00    +0.052 C 
BRANCH  20  21
ATOM     21  C   UNL     1       1.970  -9.205  -3.516  0.00  0.00    -0.032 C 
ATOM     22  C   UNL     1       2.542  -8.239  -2.841  0.00  0.00    +0.004 C 
ENDBRANCH  20  21
ENDBRANCH  11  20
BRANCH  11  23
ATOM     23  C   UNL     1      -1.639 -10.485  -3.311  0.00  0.00    +0.052 C 
BRANCH  23  24
ATOM     24  C   UNL     1      -1.282 -11.924  -3.043  0.00  0.00    -0.032 C 
ATOM     25  C   UNL     1      -1.449 -12.428  -1.845  0.00  0.00    +0.004 C 
ENDBRANCH  23  24
ENDBRANCH  11  23
TORSDOF 7
