REMARK  Name = ZINC58794699
REMARK  6 active torsions:
REMARK  status: ('A' for Active; 'I' for Inactive)
REMARK    1  A    between atoms: C_1  and  C_2
REMARK    2  A    between atoms: C_2  and  C_3
REMARK    3  A    between atoms: C_2  and  C_4
REMARK    4  A    between atoms: C_2  and  C_5
REMARK    5  A    between atoms: C_12  and  C_14
REMARK    6  A    between atoms: N_16  and  C_17
REMARK                            x       y       z     vdW  Elec       q    Type
REMARK                         _______ _______ _______ _____ _____    ______ ____
ROOT
ATOM      1  C   UNL     1       0.713  -0.628  -1.248  0.00  0.00    -0.001 C 
ATOM      2  C   UNL     1      -0.017  -0.049  -2.463  0.00  0.00    +0.009 C 
ATOM      3  C   UNL     1       0.534  -0.711  -3.733  0.00  0.00    +0.043 C 
ATOM      4  C   UNL     1       2.032  -0.675  -3.675  0.00  0.00    -0.006 A 
ATOM      5  C   UNL     1       2.801  -0.418  -2.578  0.00  0.00    -0.036 A 
ATOM      6  C   UNL     1       4.176  -0.436  -2.763  0.00  0.00    +0.024 A 
ATOM      7  C   UNL     1       4.631  -0.713  -4.039  0.00  0.00    +0.074 A 
ATOM      8  S   UNL     1       3.103  -0.938  -4.930  0.00  0.00    -0.088 S 
ATOM      9  C   UNL     1       2.158  -0.128  -1.225  0.00  0.00    +0.040 C 
ENDROOT
BRANCH   1  11
ATOM     10  C   UNL     1       0.008   1.341   0.117  0.00  0.00    +0.011 C 
ATOM     11  C   UNL     1       0.001  -0.186   0.032  0.00  0.00    -0.035 C 
ATOM     12  C   UNL     1       0.728  -0.768   1.247  0.00  0.00    +0.011 C 
ATOM     13  C   UNL     1      -1.443  -0.690   0.013  0.00  0.00    +0.011 C 
ENDBRANCH   1  11
BRANCH   7  14
ATOM     14  C   UNL     1       6.009  -0.799  -4.530  0.00  0.00    +0.251 C 
ATOM     15  O   UNL     1       6.939  -0.614  -3.768  0.00  0.00    -0.270 OA
ATOM     16  N   UNL     1       6.246  -1.084  -5.826  0.00  0.00    -0.300 N 
ATOM     17  H   UNL     1       5.504  -1.232  -6.433  0.00  0.00    +0.150 HD
BRANCH  16  18
ATOM     18  C   UNL     1       7.623  -1.171  -6.317  0.00  0.00    +0.159 C 
ATOM     19  C   UNL     1       7.629  -1.101  -7.846  0.00  0.00    +0.032 C 
ATOM     20  C   UNL     1       6.406  -1.791  -8.421  0.00  0.00    +0.004 C 
ATOM     21  C   UNL     1       6.386  -3.292  -8.194  0.00  0.00    +0.019 C 
ATOM     22  C   UNL     1       6.232  -3.617  -6.708  0.00  0.00    +0.104 C 
ATOM     23  N   UNL     1       7.567  -3.630  -6.087  0.00  0.00    -0.314 N 
ATOM     24  C   UNL     1       8.234  -2.489  -5.890  0.00  0.00    +0.233 C 
ATOM     25  O   UNL     1       9.332  -2.507  -5.373  0.00  0.00    -0.274 OA
ATOM     26  H   UNL     1       7.965  -4.473  -5.818  0.00  0.00    +0.149 HD
ENDBRANCH  16  18
ENDBRANCH   7  14
TORSDOF 3
