REMARK  Name = ZINC12031588
REMARK  3 active torsions:
REMARK  status: ('A' for Active; 'I' for Inactive)
REMARK    1  A    between atoms: C_4  and  C_7
REMARK    2  A    between atoms: N_9  and  C_10
REMARK    3  A    between atoms: C_15  and  O_17
REMARK                            x       y       z     vdW  Elec       q    Type
REMARK                         _______ _______ _______ _____ _____    ______ ____
ROOT
ATOM      1  C   UNL     1       2.859  -0.454  -2.507  0.00  0.00    +0.216 C 
ATOM      2  O   UNL     1       3.301   0.345  -3.306  0.00  0.00    -0.276 OA
ATOM      3  N   UNL     1       2.998  -1.776  -2.729  0.00  0.00    -0.309 N 
ATOM      4  H   UNL     1       2.644  -2.415  -2.091  0.00  0.00    +0.149 HD
ENDROOT
BRANCH   1   8
ATOM      5  C   UNL     1      -0.019   1.526   0.010  0.00  0.00    +0.000 C 
ATOM      6  C   UNL     1       1.417   2.055  -0.000  0.00  0.00    +0.001 C 
ATOM      7  C   UNL     1       2.133   1.562  -1.259  0.00  0.00    +0.013 C 
ATOM      8  C   UNL     1       2.154   0.032  -1.268  0.00  0.00    +0.075 C 
ATOM      9  C   UNL     1       0.718  -0.497  -1.257  0.00  0.00    +0.013 C 
ATOM     10  C   UNL     1       0.002  -0.004   0.002  0.00  0.00    +0.001 C 
ENDBRANCH   1   8
BRANCH   3  11
ATOM     11  C   UNL     1       3.684  -2.248  -3.935  0.00  0.00    +0.112 C 
ATOM     12  C   UNL     1       2.672  -2.267  -5.102  0.00  0.00    +0.094 C 
ATOM     13  S   UNL     1       3.208  -3.776  -6.020  0.00  0.00    -0.156 S 
ATOM     14  C   UNL     1       3.808  -4.737  -4.563  0.00  0.00    +0.102 C 
ATOM     15  C   UNL     1       4.303  -3.606  -3.640  0.00  0.00    +0.145 C 
BRANCH  15  16
ATOM     16  O   UNL     1       5.722  -3.499  -3.776  0.00  0.00    -0.389 OA
ATOM     17  H   UNL     1       6.197  -4.324  -3.605  0.00  0.00    +0.210 HD
ENDBRANCH  15  16
ENDBRANCH   3  11
TORSDOF 3
