REMARK  Name = ZINC41585689
REMARK  12 active torsions:
REMARK  status: ('A' for Active; 'I' for Inactive)
REMARK    1  A    between atoms: C_1  and  C_2
REMARK    2  A    between atoms: C_4  and  O_38
REMARK    3  A    between atoms: C_5  and  C_23
REMARK    4  A    between atoms: C_11  and  C_12
REMARK    5  A    between atoms: C_15  and  O_20
REMARK    6  A    between atoms: C_17  and  O_18
REMARK    7  A    between atoms: O_18  and  C_19
REMARK    8  A    between atoms: O_20  and  C_21
REMARK    9  A    between atoms: C_23  and  N_24
REMARK   10  A    between atoms: N_27  and  C_30
REMARK   11  A    between atoms: C_33  and  O_36
REMARK   12  A    between atoms: O_36  and  C_37
REMARK                            x       y       z     vdW  Elec       q    Type
REMARK                         _______ _______ _______ _____ _____    ______ ____
ROOT
ATOM      1  C   UNL     1       0.941  -0.017  -2.006  0.00  0.00    +0.045 C 
ATOM      2  C   UNL     1       1.442  -1.414  -1.749  0.00  0.00    -0.033 A 
ATOM      3  C   UNL     1       2.096  -2.099  -2.734  0.00  0.00    +0.050 A 
ATOM      4  C   UNL     1       2.560  -3.390  -2.499  0.00  0.00    +0.122 A 
ATOM      5  C   UNL     1       2.367  -3.995  -1.268  0.00  0.00    +0.020 A 
ATOM      6  C   UNL     1       1.705  -3.313  -0.255  0.00  0.00    +0.145 A 
ATOM      7  C   UNL     1       1.246  -2.009  -0.502  0.00  0.00    +0.071 A 
ATOM      8  C   UNL     1       0.601  -1.553   0.742  0.00  0.00    +0.232 C 
ATOM      9  O   UNL     1       0.065  -0.478   0.955  0.00  0.00    -0.283 OA
ATOM     10  C   UNL     1       0.746  -2.682   1.669  0.00  0.00    +0.176 C 
ATOM     11  C   UNL     1       0.301  -2.730   2.953  0.00  0.00    +0.061 C 
ATOM     12  O   UNL     1       1.395  -3.672   1.010  0.00  0.00    -0.451 OA
ENDROOT
BRANCH  11  13
ATOM     13  C   UNL     1       0.476  -3.951   3.743  0.00  0.00    +0.020 A 
ATOM     14  C   UNL     1       0.880  -5.141   3.122  0.00  0.00    +0.015 A 
ATOM     15  C   UNL     1       1.043  -6.277   3.862  0.00  0.00    +0.046 A 
ATOM     16  C   UNL     1       0.809  -6.264   5.234  0.00  0.00    +0.124 A 
ATOM     17  C   UNL     1       0.409  -5.095   5.866  0.00  0.00    +0.091 A 
ATOM     18  C   UNL     1       0.245  -3.934   5.131  0.00  0.00    +0.131 A 
BRANCH  18  19
ATOM     19  O   UNL     1      -0.142  -2.787   5.744  0.00  0.00    -0.494 OA
ATOM     20  C   UNL     1      -0.357  -2.846   7.155  0.00  0.00    +0.277 C 
ENDBRANCH  18  19
BRANCH  16  21
ATOM     21  O   UNL     1       0.973  -7.400   5.957  0.00  0.00    -0.495 OA
ATOM     22  C   UNL     1       1.386  -8.569   5.246  0.00  0.00    +0.277 C 
ENDBRANCH  16  21
ENDBRANCH  11  13
BRANCH   4  23
ATOM     23  O   UNL     1       3.208  -4.062  -3.485  0.00  0.00    -0.506 OA
ATOM     24  H   UNL     1       4.165  -3.929  -3.489  0.00  0.00    +0.292 HD
ENDBRANCH   4  23
BRANCH   5  25
ATOM     25  C   UNL     1       2.875  -5.394  -1.028  0.00  0.00    -0.035 C 
BRANCH  25  26
ATOM     26  N   UNL     1       4.247  -5.334  -0.507  0.00  0.00    +0.385 N 
ATOM     27  C   UNL     1       4.242  -4.680   0.807  0.00  0.00    -0.059 C 
ATOM     28  C   UNL     1       5.684  -4.514   1.300  0.00  0.00    +0.086 C 
ATOM     29  N   UNL     1       6.338  -5.831   1.279  0.00  0.00    -0.333 N 
ATOM     30  C   UNL     1       6.251  -6.629   0.046  0.00  0.00    +0.086 C 
ATOM     31  C   UNL     1       4.783  -6.695  -0.387  0.00  0.00    -0.059 C 
ATOM     32  H   UNL     1       4.824  -4.802  -1.142  0.00  0.00    -0.081 HD
BRANCH  29  33
ATOM     33  C   UNL     1       7.024  -6.311   2.400  0.00  0.00    +0.030 A 
ATOM     34  C   UNL     1       7.526  -7.606   2.406  0.00  0.00    +0.027 A 
ATOM     35  C   UNL     1       8.203  -8.080   3.513  0.00  0.00    +0.047 A 
ATOM     36  C   UNL     1       8.382  -7.262   4.618  0.00  0.00    +0.120 A 
ATOM     37  C   UNL     1       7.881  -5.968   4.614  0.00  0.00    +0.047 A 
ATOM     38  C   UNL     1       7.209  -5.492   3.506  0.00  0.00    +0.027 A 
BRANCH  36  39
ATOM     39  O   UNL     1       9.049  -7.729   5.708  0.00  0.00    -0.495 OA
ATOM     40  C   UNL     1       9.196  -6.832   6.811  0.00  0.00    +0.277 C 
ENDBRANCH  36  39
ENDBRANCH  29  33
ENDBRANCH  25  26
ENDBRANCH   5  25
TORSDOF 8
