REMARK  Name = ZINC02131028
REMARK  7 active torsions:
REMARK  status: ('A' for Active; 'I' for Inactive)
REMARK    1  A    between atoms: C_1  and  O_2
REMARK    2  A    between atoms: O_2  and  C_3
REMARK    3  A    between atoms: C_6  and  C_9
REMARK    4  A    between atoms: C_13  and  C_15
REMARK    5  A    between atoms: N_17  and  C_18
REMARK    6  A    between atoms: C_18  and  C_19
REMARK    7  A    between atoms: C_19  and  C_20
REMARK                            x       y       z     vdW  Elec       q    Type
REMARK                         _______ _______ _______ _____ _____    ______ ____
ROOT
ATOM      1  C   UNL     1      -4.962  -2.619   0.034  0.00  0.00    +0.096 A 
ATOM      2  C   UNL     1      -5.117  -3.831  -0.661  0.00  0.00    +0.074 A 
ATOM      3  C   UNL     1      -6.371  -4.464  -0.636  0.00  0.00    +0.012 A 
ATOM      4  C   UNL     1      -7.411  -3.871   0.076  0.00  0.00    +0.043 A 
ATOM      5  C   UNL     1      -7.174  -2.670   0.738  0.00  0.00    +0.127 A 
ATOM      6  N   UNL     1      -5.975  -2.095   0.701  0.00  0.00    -0.240 NA
ATOM      7  C   UNL     1      -6.236  -5.691  -1.438  0.00  0.00    +0.008 A 
ATOM      8  C   UNL     1      -7.113  -6.718  -1.782  0.00  0.00    +0.010 A 
ATOM      9  C   UNL     1      -6.674  -7.758  -2.570  0.00  0.00    +0.001 A 
ATOM     10  C   UNL     1      -5.363  -7.787  -3.023  0.00  0.00    +0.002 A 
ATOM     11  C   UNL     1      -4.485  -6.779  -2.691  0.00  0.00    +0.026 A 
ATOM     12  C   UNL     1      -4.910  -5.718  -1.896  0.00  0.00    +0.048 A 
ATOM     13  N   UNL     1      -4.260  -4.595  -1.418  0.00  0.00    -0.352 N 
ATOM     14  H   UNL     1      -3.331  -4.377  -1.592  0.00  0.00    +0.166 HD
ENDROOT
BRANCH   1  18
ATOM     15  C   UNL     1      -1.200  -0.637   0.010  0.00  0.00    +0.120 A 
ATOM     16  C   UNL     1      -2.374   0.105   0.019  0.00  0.00    +0.046 A 
ATOM     17  C   UNL     1      -3.595  -0.535   0.027  0.00  0.00    +0.013 A 
ATOM     18  C   UNL     1      -3.651  -1.928   0.026  0.00  0.00    +0.003 A 
ATOM     19  C   UNL     1      -2.470  -2.670   0.016  0.00  0.00    +0.013 A 
ATOM     20  C   UNL     1      -1.252  -2.025   0.003  0.00  0.00    +0.046 A 
BRANCH  15  22
ATOM     21  C   UNL     1      -0.017   1.425   0.010  0.00  0.00    +0.277 C 
ATOM     22  O   UNL     1       0.002  -0.004   0.002  0.00  0.00    -0.495 OA
ENDBRANCH  15  22
ENDBRANCH   1  18
BRANCH   5  23
ATOM     23  C   UNL     1      -8.268  -2.027   1.498  0.00  0.00    +0.262 C 
ATOM     24  O   UNL     1      -9.365  -2.548   1.540  0.00  0.00    -0.269 OA
ATOM     25  N   UNL     1      -8.048  -0.865   2.143  0.00  0.00    -0.310 N 
ATOM     26  H   UNL     1      -7.172  -0.450   2.109  0.00  0.00    +0.149 HD
BRANCH  25  27
ATOM     27  C   UNL     1      -9.132  -0.228   2.895  0.00  0.00    +0.109 C 
BRANCH  27  28
ATOM     28  C   UNL     1      -8.621   1.069   3.526  0.00  0.00    +0.056 C 
BRANCH  28  29
ATOM     29  C   UNL     1      -9.736   1.724   4.300  0.00  0.00    -0.021 A 
ATOM     30  C   UNL     1     -10.564   2.680   3.852  0.00  0.00    +0.087 A 
ATOM     31  N   UNL     1     -11.448   3.030   4.836  0.00  0.00    -0.360 N 
ATOM     32  H   UNL     1     -12.144   3.700   4.748  0.00  0.00    +0.165 HD
ATOM     33  C   UNL     1     -11.204   2.288   5.970  0.00  0.00    +0.047 A 
ATOM     34  C   UNL     1     -10.125   1.433   5.682  0.00  0.00    +0.003 A 
ATOM     35  C   UNL     1      -9.656   0.550   6.657  0.00  0.00    +0.010 A 
ATOM     36  C   UNL     1     -10.252   0.519   7.887  0.00  0.00    +0.001 A 
ATOM     37  C   UNL     1     -11.320   1.358   8.174  0.00  0.00    +0.002 A 
ATOM     38  C   UNL     1     -11.792   2.243   7.230  0.00  0.00    +0.026 A 
ENDBRANCH  28  29
ENDBRANCH  27  28
ENDBRANCH  25  27
ENDBRANCH   5  23
TORSDOF 6
