REMARK  Name = ZINC58161874
REMARK  10 active torsions:
REMARK  status: ('A' for Active; 'I' for Inactive)
REMARK    1  A    between atoms: C_1  and  C_2
REMARK    2  A    between atoms: C_5  and  C_8
REMARK    3  A    between atoms: C_8  and  C_10
REMARK    4  A    between atoms: C_8  and  N_29
REMARK    5  A    between atoms: C_10  and  N_11
REMARK    6  A    between atoms: C_12  and  C_14
REMARK    7  A    between atoms: N_16  and  C_23
REMARK    8  A    between atoms: C_17  and  C_20
REMARK    9  A    between atoms: N_29  and  C_30
REMARK   10  A    between atoms: N_29  and  C_31
REMARK                            x       y       z     vdW  Elec       q    Type
REMARK                         _______ _______ _______ _____ _____    ______ ____
ROOT
ATOM      1  N   UNL     1       0.774  -6.390   0.509  0.00  0.00    -0.312 N 
ATOM      2  C   UNL     1       1.768  -7.243   0.827  0.00  0.00    +0.260 C 
ATOM      3  O   UNL     1       2.917  -6.844   0.883  0.00  0.00    -0.269 OA
ATOM      4  H   UNL     1      -0.141  -6.708   0.465  0.00  0.00    +0.149 HD
ENDROOT
BRANCH   2   5
ATOM      5  C   UNL     1       1.467  -8.647   1.105  0.00  0.00    +0.123 C 
ATOM      6  N   UNL     1       0.288  -9.180   1.069  0.00  0.00    -0.178 NA
ATOM      7  N   UNL     1       0.272 -10.540   1.374  0.00  0.00    -0.212 N 
ATOM      8  C   UNL     1       1.646 -10.982   1.656  0.00  0.00    +0.189 C 
ATOM      9  C   UNL     1       2.486  -9.703   1.472  0.00  0.00    +0.096 C 
BRANCH   7  10
ATOM     10  C   UNL     1      -0.864 -11.350   1.407  0.00  0.00    +0.052 A 
ATOM     11  C   UNL     1      -0.750 -12.696   1.732  0.00  0.00    +0.025 A 
ATOM     12  C   UNL     1      -1.877 -13.495   1.764  0.00  0.00    +0.002 A 
ATOM     13  C   UNL     1      -3.116 -12.957   1.472  0.00  0.00    +0.000 A 
ATOM     14  C   UNL     1      -3.234 -11.617   1.147  0.00  0.00    +0.002 A 
ATOM     15  C   UNL     1      -2.113 -10.811   1.120  0.00  0.00    +0.025 A 
ENDBRANCH   7  10
BRANCH   8  16
ATOM     16  C   UNL     1       2.074 -12.041   0.672  0.00  0.00    +0.233 C 
ATOM     17  O   UNL     1       1.477 -12.172  -0.375  0.00  0.00    -0.274 OA
ATOM     18  N   UNL     1       3.121 -12.841   0.956  0.00  0.00    -0.328 N 
ATOM     19  H   UNL     1       3.599 -12.736   1.794  0.00  0.00    +0.145 HD
ATOM     20  H   UNL     1       3.396 -13.522   0.323  0.00  0.00    +0.145 HD
ENDBRANCH   8  16
ENDBRANCH   2   5
BRANCH   1  21
ATOM     21  C   UNL     1       1.075  -4.984   0.231  0.00  0.00    +0.094 C 
BRANCH  21  22
ATOM     22  C   UNL     1      -0.229  -4.220  -0.007  0.00  0.00    -0.021 C 
BRANCH  22  27
ATOM     23  C   UNL     1      -2.812  -6.249  -4.761  0.00  0.00    +0.044 C 
ATOM     24  C   UNL     1      -2.139  -5.720  -3.521  0.00  0.00    -0.050 A 
ATOM     25  C   UNL     1      -2.566  -6.132  -2.273  0.00  0.00    +0.003 A 
ATOM     26  C   UNL     1      -1.948  -5.647  -1.135  0.00  0.00    +0.002 A 
ATOM     27  C   UNL     1      -0.902  -4.750  -1.247  0.00  0.00    -0.059 A 
ATOM     28  C   UNL     1      -0.474  -4.339  -2.495  0.00  0.00    +0.002 A 
ATOM     29  C   UNL     1      -1.089  -4.827  -3.632  0.00  0.00    +0.003 A 
ENDBRANCH  22  27
BRANCH  22  30
ATOM     30  N   UNL     1       0.065  -2.792  -0.182  0.00  0.00    +0.382 N 
ATOM     31  C   UNL     1      -1.182  -2.065  -0.455  0.00  0.00    -0.096 C 
ATOM     32  C   UNL     1       0.680  -2.265   1.044  0.00  0.00    -0.096 C 
ATOM     33  H   UNL     1       0.701  -2.672  -0.956  0.00  0.00    -0.082 HD
ENDBRANCH  22  30
ENDBRANCH  21  22
ENDBRANCH   1  21
TORSDOF 7
