REMARK  Name = ZINC44174752
REMARK  9 active torsions:
REMARK  status: ('A' for Active; 'I' for Inactive)
REMARK    1  A    between atoms: C_1  and  C_2
REMARK    2  A    between atoms: C_2  and  C_3
REMARK    3  A    between atoms: C_3  and  C_5
REMARK    4  A    between atoms: C_3  and  C_6
REMARK    5  A    between atoms: C_6  and  C_39
REMARK    6  A    between atoms: C_11  and  C_14
REMARK    7  A    between atoms: C_17  and  C_20
REMARK    8  A    between atoms: C_21  and  C_22
REMARK    9  A    between atoms: N_30  and  C_33
REMARK                            x       y       z     vdW  Elec       q    Type
REMARK                         _______ _______ _______ _____ _____    ______ ____
ROOT
ATOM      1  C   UNL     1       0.797  -2.023  -1.341  0.00  0.00    +0.051 C 
ATOM      2  C   UNL     1       1.508  -2.443  -2.617  0.00  0.00    +0.086 C 
ATOM      3  C   UNL     1       2.992  -2.373  -2.091  0.00  0.00    +0.077 C 
ATOM      4  C   UNL     1       2.903  -3.118  -0.823  0.00  0.00    -0.027 C 
ATOM      5  N   UNL     1       1.631  -2.559  -0.223  0.00  0.00    +0.396 N 
ATOM      6  C   UNL     1       3.740  -2.375  -3.324  0.00  0.00    +0.225 C 
ATOM      7  O   UNL     1       4.825  -2.875  -3.527  0.00  0.00    -0.275 OA
ATOM      8  N   UNL     1       2.956  -1.687  -4.217  0.00  0.00    -0.239 N 
ATOM      9  C   UNL     1       1.667  -1.501  -3.769  0.00  0.00    +0.225 C 
ATOM     10  O   UNL     1       0.835  -0.736  -4.206  0.00  0.00    -0.275 OA
ATOM     11  H   UNL     1       1.849  -1.819   0.427  0.00  0.00    -0.083 HD
ATOM     12  H   UNL     1       1.131  -3.296   0.253  0.00  0.00    -0.083 HD
ENDROOT
BRANCH   4  13
ATOM     13  C   UNL     1       2.796  -4.599  -1.078  0.00  0.00    -0.061 A 
ATOM     14  C   UNL     1       1.578  -5.150  -1.436  0.00  0.00    +0.002 A 
ATOM     15  C   UNL     1       1.473  -6.505  -1.672  0.00  0.00    +0.008 A 
ATOM     16  C   UNL     1       2.600  -7.322  -1.548  0.00  0.00    -0.025 A 
ATOM     17  C   UNL     1       3.827  -6.758  -1.186  0.00  0.00    +0.008 A 
ATOM     18  C   UNL     1       3.918  -5.401  -0.959  0.00  0.00    +0.002 A 
BRANCH  16  19
ATOM     19  C   UNL     1       2.496  -8.771  -1.798  0.00  0.00    +0.008 C 
ATOM     20  C   UNL     1       3.581  -9.552  -1.678  0.00  0.00    +0.008 C 
BRANCH  20  21
ATOM     21  C   UNL     1       3.477 -11.001  -1.927  0.00  0.00    -0.025 A 
ATOM     22  C   UNL     1       2.252 -11.564  -2.294  0.00  0.00    +0.008 A 
ATOM     23  C   UNL     1       2.162 -12.920  -2.526  0.00  0.00    +0.001 A 
ATOM     24  C   UNL     1       3.281 -13.723  -2.397  0.00  0.00    +0.000 A 
ATOM     25  C   UNL     1       4.498 -13.173  -2.034  0.00  0.00    +0.001 A 
ATOM     26  C   UNL     1       4.604 -11.818  -1.804  0.00  0.00    +0.008 A 
ENDBRANCH  20  21
ENDBRANCH  16  19
ENDBRANCH   4  13
BRANCH   8  27
ATOM     27  C   UNL     1       3.435  -1.208  -5.516  0.00  0.00    +0.084 C 
ATOM     28  C   UNL     1       3.904  -2.398  -6.356  0.00  0.00    +0.023 C 
ATOM     29  C   UNL     1       4.404  -1.898  -7.713  0.00  0.00    +0.002 C 
ATOM     30  C   UNL     1       5.571  -0.931  -7.502  0.00  0.00    +0.000 C 
ATOM     31  C   UNL     1       5.101   0.259  -6.662  0.00  0.00    +0.002 C 
ATOM     32  C   UNL     1       4.601  -0.241  -5.305  0.00  0.00    +0.023 C 
ENDBRANCH   8  27
BRANCH   1  33
ATOM     33  C   UNL     1      -0.586  -2.619  -1.292  0.00  0.00    +0.347 C 
ATOM     34  O   UNL     1      -1.401  -2.339  -2.154  0.00  0.00    -0.248 OA
ATOM     35  O   UNL     1      -0.890  -3.382  -0.390  0.00  0.00    -0.248 OA
ENDBRANCH   1  33
BRANCH   1  36
ATOM     36  C   UNL     1       0.718  -0.497  -1.257  0.00  0.00    -0.014 C 
ATOM     37  C   UNL     1       0.043  -0.093   0.055  0.00  0.00    +0.006 C 
BRANCH  36  39
ATOM     38  C   UNL     1       2.065   1.597  -1.050  0.00  0.00    +0.004 C 
ATOM     39  C   UNL     1       2.130   0.090  -1.306  0.00  0.00    -0.001 C 
ENDBRANCH  36  39
ENDBRANCH   1  36
TORSDOF 7
