REMARK  Name = ZINC64870531
REMARK  7 active torsions:
REMARK  status: ('A' for Active; 'I' for Inactive)
REMARK    1  A    between atoms: C_1  and  C_2
REMARK    2  A    between atoms: C_2  and  C_3
REMARK    3  A    between atoms: C_3  and  C_4
REMARK    4  A    between atoms: C_4  and  N_5
REMARK    5  A    between atoms: C_11  and  C_18
REMARK    6  A    between atoms: C_21  and  C_25
REMARK    7  A    between atoms: C_28  and  C_31
REMARK                            x       y       z     vdW  Elec       q    Type
REMARK                         _______ _______ _______ _____ _____    ______ ____
ROOT
ATOM      1  N   UNL     1      -2.787  -2.571   0.015  0.00  0.00    -0.261 N 
ATOM      2  C   UNL     1      -3.399  -2.801   1.197  0.00  0.00    +0.264 A 
ATOM      3  O   UNL     1      -2.824  -2.593   2.248  0.00  0.00    -0.267 OA
ATOM      4  C   UNL     1      -4.782  -3.311   1.179  0.00  0.00    +0.063 A 
ATOM      5  C   UNL     1      -5.481  -3.572   2.355  0.00  0.00    +0.016 A 
ATOM      6  C   UNL     1      -6.774  -4.048   2.285  0.00  0.00    +0.008 A 
ATOM      7  C   UNL     1      -7.376  -4.266   1.055  0.00  0.00    -0.000 A 
ATOM      8  C   UNL     1      -6.694  -4.010  -0.117  0.00  0.00    +0.034 A 
ATOM      9  C   UNL     1      -5.394  -3.531  -0.067  0.00  0.00    +0.056 A 
ATOM     10  N   UNL     1      -4.673  -3.261  -1.222  0.00  0.00    -0.307 N 
ATOM     11  H   UNL     1      -5.083  -3.408  -2.088  0.00  0.00    +0.170 HD
ATOM     12  C   UNL     1      -3.416  -2.792  -1.150  0.00  0.00    +0.330 A 
ATOM     13  O   UNL     1      -2.820  -2.564  -2.185  0.00  0.00    -0.246 OA
ENDROOT
BRANCH   7  14
ATOM     14  C   UNL     1      -8.789  -4.787   0.998  0.00  0.00    +0.242 C 
ATOM     15  N   UNL     1      -9.539  -4.336   2.188  0.00  0.00    -0.265 NA
ATOM     16  C   UNL     1      -9.982  -5.563   2.891  0.00  0.00    +0.180 C 
ATOM     17  N   UNL     1      -9.965  -6.601   1.826  0.00  0.00    -0.177 NA
ATOM     18  O   UNL     1      -8.781  -6.226   1.016  0.00  0.00    -0.274 OA
ATOM     19  H   UNL     1      -8.960  -3.765   2.786  0.00  0.00    +0.127 HD
ATOM     20  H   UNL     1      -9.856  -7.523   2.221  0.00  0.00    +0.156 HD
BRANCH  16  21
ATOM     21  C   UNL     1     -11.373  -5.386   3.442  0.00  0.00    -0.014 A 
ATOM     22  C   UNL     1     -11.813  -4.131   3.817  0.00  0.00    +0.007 A 
ATOM     23  C   UNL     1     -13.090  -3.969   4.323  0.00  0.00    +0.004 A 
ATOM     24  C   UNL     1     -13.926  -5.062   4.452  0.00  0.00    -0.050 A 
ATOM     25  C   UNL     1     -13.486  -6.317   4.075  0.00  0.00    +0.004 A 
ATOM     26  C   UNL     1     -12.211  -6.479   3.566  0.00  0.00    +0.007 A 
ATOM     27  C   UNL     1     -15.317  -4.885   5.004  0.00  0.00    +0.044 C 
ENDBRANCH  16  21
ENDBRANCH   7  14
BRANCH   1  28
ATOM     28  C   UNL     1      -1.413  -2.063   0.004  0.00  0.00    +0.130 C 
BRANCH  28  29
ATOM     29  C   UNL     1      -1.433  -0.534   0.013  0.00  0.00    +0.022 C 
BRANCH  29  31
ATOM     30  C   UNL     1      -0.019   1.526   0.010  0.00  0.00    +0.004 C 
ATOM     31  C   UNL     1       0.002  -0.004   0.002  0.00  0.00    -0.002 C 
ENDBRANCH  29  31
ENDBRANCH  28  29
ENDBRANCH   1  28
TORSDOF 5
