REMARK  Name = ZINC20997843
REMARK  9 active torsions:
REMARK  status: ('A' for Active; 'I' for Inactive)
REMARK    1  A    between atoms: C_6  and  C_7
REMARK    2  A    between atoms: C_7  and  N_8
REMARK    3  A    between atoms: C_10  and  N_29
REMARK    4  A    between atoms: C_13  and  C_15
REMARK    5  A    between atoms: N_17  and  C_18
REMARK    6  A    between atoms: C_18  and  C_19
REMARK    7  A    between atoms: C_19  and  C_20
REMARK    8  A    between atoms: N_29  and  C_30
REMARK    9  A    between atoms: C_30  and  C_31
REMARK                            x       y       z     vdW  Elec       q    Type
REMARK                         _______ _______ _______ _____ _____    ______ ____
ROOT
ATOM      1  N   UNL     1       0.979   8.230   4.026  0.00  0.00    -0.289 NA
ATOM      2  C   UNL     1       2.186   9.027   4.331  0.00  0.00    +0.070 C 
ATOM      3  C   UNL     1       2.700   9.511   2.953  0.00  0.00    -0.056 C 
ATOM      4  C   UNL     1       2.402   8.280   2.057  0.00  0.00    +0.014 C 
ATOM      5  C   UNL     1       1.080   7.738   2.639  0.00  0.00    +0.142 C 
ENDROOT
BRANCH   5   6
ATOM      6  C   UNL     1       1.094   6.231   2.630  0.00  0.00    +0.230 C 
ATOM      7  O   UNL     1       1.860   5.628   3.351  0.00  0.00    -0.274 OA
ATOM      8  N   UNL     1       0.257   5.554   1.819  0.00  0.00    -0.314 N 
ATOM      9  H   UNL     1      -0.437   6.102   1.165  0.00  0.00    +0.149 HD
BRANCH   8  10
ATOM     10  C   UNL     1       0.271   4.090   1.810  0.00  0.00    +0.109 C 
BRANCH  10  11
ATOM     11  C   UNL     1      -0.767   3.576   0.810  0.00  0.00    +0.054 C 
BRANCH  11  12
ATOM     12  C   UNL     1      -0.752   2.069   0.800  0.00  0.00    -0.042 A 
ATOM     13  C   UNL     1      -1.573   1.366   1.662  0.00  0.00    +0.007 A 
ATOM     14  C   UNL     1      -1.563  -0.017   1.656  0.00  0.00    +0.050 A 
ATOM     15  C   UNL     1      -0.730  -0.701   0.786  0.00  0.00    +0.166 A 
ATOM     16  C   UNL     1       0.097   0.008  -0.082  0.00  0.00    +0.166 A 
ATOM     17  C   UNL     1       0.082   1.393  -0.071  0.00  0.00    +0.053 A 
ATOM     18  O   UNL     1       0.812  -0.884  -0.829  0.00  0.00    -0.453 OA
ATOM     19  C   UNL     1       0.715  -2.137  -0.127  0.00  0.00    +0.466 C 
ATOM     20  O   UNL     1      -0.533  -2.036   0.584  0.00  0.00    -0.453 OA
ENDBRANCH  11  12
ENDBRANCH  10  11
ENDBRANCH   8  10
ENDBRANCH   5   6
BRANCH   3  21
ATOM     21  N   UNL     1       4.141   9.794   2.998  0.00  0.00    +0.382 N 
ATOM     22  H   UNL     1       4.630   9.097   3.694  0.00  0.00    -0.085 HD
ATOM     23  H   UNL     1       4.570   9.670   1.993  0.00  0.00    -0.085 HD
BRANCH  21  24
ATOM     24  C   UNL     1       4.394  11.168   3.451  0.00  0.00    -0.079 C 
BRANCH  24  25
ATOM     25  C   UNL     1       5.902  11.425   3.485  0.00  0.00    -0.028 C 
ATOM     26  C   UNL     1       6.549  10.524   4.540  0.00  0.00    +0.002 C 
ATOM     27  C   UNL     1       8.056  10.781   4.574  0.00  0.00    +0.000 C 
ATOM     28  C   UNL     1       8.317  12.247   4.926  0.00  0.00    +0.000 C 
ATOM     29  C   UNL     1       7.670  13.147   3.871  0.00  0.00    +0.000 C 
ATOM     30  C   UNL     1       6.162  12.891   3.837  0.00  0.00    +0.002 C 
ENDBRANCH  24  25
ENDBRANCH  21  24
ENDBRANCH   3  21
BRANCH   1  31
ATOM     31  C   UNL     1       0.832   7.115   4.971  0.00  0.00    +0.120 C 
BRANCH  31  37
ATOM     32  C   UNL     1       1.268   8.025   7.261  0.00  0.00    +0.006 A 
ATOM     33  C   UNL     1       0.829   8.513   8.477  0.00  0.00    +0.020 A 
ATOM     34  C   UNL     1      -0.527   8.608   8.736  0.00  0.00    +0.041 A 
ATOM     35  C   UNL     1      -1.443   8.218   7.774  0.00  0.00    +0.020 A 
ATOM     36  C   UNL     1      -1.002   7.735   6.556  0.00  0.00    +0.006 A 
ATOM     37  C   UNL     1       0.352   7.641   6.299  0.00  0.00    -0.033 A 
ATOM     38 CL   UNL     1      -1.079   9.215  10.265  0.00  0.00    -0.084 Cl
ENDBRANCH  31  37
ENDBRANCH   1  31
TORSDOF 9
