REMARK  Name = ZINC63276492
REMARK  6 active torsions:
REMARK  status: ('A' for Active; 'I' for Inactive)
REMARK    1  A    between atoms: C_1  and  C_2
REMARK    2  A    between atoms: C_7  and  N_8
REMARK    3  A    between atoms: N_8  and  C_9
REMARK    4  A    between atoms: C_14  and  C_15
REMARK    5  A    between atoms: N_17  and  C_26
REMARK    6  A    between atoms: C_19  and  C_20
REMARK                            x       y       z     vdW  Elec       q    Type
REMARK                         _______ _______ _______ _____ _____    ______ ____
ROOT
ATOM      1  C   UNL     1      -0.057  -0.707   3.598  0.00  0.00    +0.175 C 
ATOM      2  N   UNL     1      -0.049  -2.018   3.785  0.00  0.00    -0.152 NA
ATOM      3  C   UNL     1      -0.136  -2.559   4.980  0.00  0.00    +0.276 C 
ATOM      4  O   UNL     1      -0.127  -3.770   5.140  0.00  0.00    -0.267 OA
ATOM      5  C   UNL     1      -0.243  -1.623   6.120  0.00  0.00    +0.080 C 
ATOM      6  C   UNL     1      -0.345  -1.879   7.451  0.00  0.00    +0.032 C 
ATOM      7  S   UNL     1      -0.194  -0.058   5.256  0.00  0.00    -0.050 S 
ENDROOT
BRANCH   6   8
ATOM      8  C   UNL     1      -0.441  -0.771   8.406  0.00  0.00    +0.022 A 
ATOM      9  C   UNL     1      -0.448   0.580   8.110  0.00  0.00    +0.116 A 
ATOM     10  N   UNL     1      -0.551   1.254   9.268  0.00  0.00    -0.273 N 
ATOM     11  N   UNL     1      -0.612   0.352  10.334  0.00  0.00    -0.171 NA
ATOM     12  C   UNL     1      -0.556  -0.875   9.865  0.00  0.00    +0.101 A 
ATOM     13  C   UNL     1      -0.591   2.712   9.395  0.00  0.00    +0.172 C 
BRANCH  12  14
ATOM     14  C   UNL     1      -0.597  -2.125  10.660  0.00  0.00    +0.021 A 
ATOM     15  C   UNL     1      -0.009  -2.181  11.928  0.00  0.00    +0.013 A 
ATOM     16  C   UNL     1      -0.074  -3.372  12.630  0.00  0.00    +0.020 A 
ATOM     17  C   UNL     1      -0.714  -4.458  12.061  0.00  0.00    +0.111 A 
ATOM     18  N   UNL     1      -1.259  -4.376  10.863  0.00  0.00    -0.263 NA
ATOM     19  C   UNL     1      -1.227  -3.263  10.159  0.00  0.00    +0.120 A 
ENDBRANCH  12  14
ENDBRANCH   6   8
BRANCH   1  20
ATOM     20  N   UNL     1       0.026  -0.016   2.416  0.00  0.00    -0.192 NA
BRANCH  20  27
ATOM     21  C   UNL     1       1.167   1.190   0.106  0.00  0.00    +0.046 C 
ATOM     22  C   UNL     1       0.469  -0.144   0.046  0.00  0.00    -0.027 A 
ATOM     23  C   UNL     1       0.374  -0.822  -1.153  0.00  0.00    +0.005 A 
ATOM     24  C   UNL     1      -0.266  -2.046  -1.208  0.00  0.00    +0.000 A 
ATOM     25  C   UNL     1      -0.814  -2.596  -0.064  0.00  0.00    +0.002 A 
ATOM     26  C   UNL     1      -0.722  -1.924   1.139  0.00  0.00    +0.025 A 
ATOM     27  C   UNL     1      -0.074  -0.696   1.199  0.00  0.00    +0.059 A 
ENDBRANCH  20  27
ENDBRANCH   1  20
TORSDOF 4
