REMARK  Name = ZINC36698967
REMARK  9 active torsions:
REMARK  status: ('A' for Active; 'I' for Inactive)
REMARK    1  A    between atoms: C_1  and  C_2
REMARK    2  A    between atoms: C_7  and  C_8
REMARK    3  A    between atoms: N_12  and  C_13
REMARK    4  A    between atoms: C_13  and  C_14
REMARK    5  A    between atoms: C_14  and  C_15
REMARK    6  A    between atoms: C_15  and  N_16
REMARK    7  A    between atoms: N_16  and  C_17
REMARK    8  A    between atoms: N_16  and  C_18
REMARK    9  A    between atoms: C_19  and  C_21
REMARK                            x       y       z     vdW  Elec       q    Type
REMARK                         _______ _______ _______ _____ _____    ______ ____
ROOT
ATOM      1  C   UNL     1       0.605   0.789   0.819  0.00  0.00    +0.044 C 
ATOM      2  C   UNL     1       0.582  -0.704   0.613  0.00  0.00    -0.045 A 
ATOM      3  C   UNL     1       0.329  -1.203  -0.638  0.00  0.00    +0.032 A 
ATOM      4  C   UNL     1       0.299  -2.598  -0.867  0.00  0.00    +0.081 A 
ATOM      5  C   UNL     1       0.543  -3.420   0.258  0.00  0.00    +0.041 A 
ATOM      6  C   UNL     1       0.796  -2.911   1.506  0.00  0.00    +0.021 A 
ATOM      7  C   UNL     1       0.822  -1.540   1.692  0.00  0.00    -0.046 A 
ATOM      8  C   UNL     1       1.103  -0.962   3.056  0.00  0.00    +0.044 C 
ATOM      9  S   UNL     1       0.421  -5.052  -0.433  0.00  0.00    -0.052 S 
ATOM     10  C   UNL     1       0.067  -4.559  -2.114  0.00  0.00    +0.168 A 
ATOM     11  N   UNL     1       0.068  -3.249  -2.027  0.00  0.00    -0.224 NA
ATOM     12  N   UNL     1      -0.153  -5.355  -3.225  0.00  0.00    -0.246 N 
ATOM     13  C   UNL     1      -0.111  -6.697  -3.111  0.00  0.00    +0.252 C 
ATOM     14  O   UNL     1       0.045  -7.210  -2.020  0.00  0.00    -0.270 OA
ENDROOT
BRANCH  13  15
ATOM     15  C   UNL     1      -0.254  -7.546  -4.312  0.00  0.00    +0.038 A 
ATOM     16  C   UNL     1      -1.004  -8.723  -4.257  0.00  0.00    +0.013 A 
ATOM     17  C   UNL     1      -1.126  -9.504  -5.383  0.00  0.00    +0.004 A 
ATOM     18  C   UNL     1      -0.513  -9.135  -6.576  0.00  0.00    -0.044 A 
ATOM     19  C   UNL     1       0.224  -7.972  -6.638  0.00  0.00    -0.043 A 
ATOM     20  C   UNL     1       0.353  -7.176  -5.510  0.00  0.00    +0.017 A 
ATOM     21  C   UNL     1       0.900  -7.507  -7.902  0.00  0.00    +0.035 C 
ATOM     22  C   UNL     1       1.028  -8.657  -8.898  0.00  0.00    +0.005 C 
ATOM     23  C   UNL     1      -0.349  -9.313  -9.058  0.00  0.00    +0.005 C 
ATOM     24  C   UNL     1      -0.687 -10.047  -7.762  0.00  0.00    +0.035 C 
ENDBRANCH  13  15
BRANCH  12  25
ATOM     25  C   UNL     1      -0.430  -4.739  -4.525  0.00  0.00    +0.114 C 
BRANCH  25  26
ATOM     26  C   UNL     1       0.859  -4.142  -5.092  0.00  0.00    +0.001 C 
BRANCH  26  27
ATOM     27  C   UNL     1       0.604  -3.631  -6.511  0.00  0.00    -0.078 C 
BRANCH  27  28
ATOM     28  N   UNL     1       1.842  -3.058  -7.056  0.00  0.00    +0.376 N 
ATOM     29  C   UNL     1       1.629  -2.677  -8.459  0.00  0.00    -0.097 C 
ATOM     30  C   UNL     1       2.216  -1.870  -6.277  0.00  0.00    -0.097 C 
ATOM     31  H   UNL     1       2.582  -3.743  -7.002  0.00  0.00    -0.083 HD
ENDBRANCH  27  28
ENDBRANCH  26  27
ENDBRANCH  25  26
ENDBRANCH  12  25
TORSDOF 5
