REMARK  Name = ZINC34974940
REMARK  8 active torsions:
REMARK  status: ('A' for Active; 'I' for Inactive)
REMARK    1  A    between atoms: C_1  and  C_2
REMARK    2  A    between atoms: C_9  and  C_11
REMARK    3  A    between atoms: C_17  and  C_19
REMARK    4  A    between atoms: C_19  and  C_21
REMARK    5  A    between atoms: C_19  and  N_24
REMARK    6  A    between atoms: C_21  and  C_22
REMARK    7  A    between atoms: C_21  and  C_23
REMARK    8  A    between atoms: N_27  and  C_28
REMARK                            x       y       z     vdW  Elec       q    Type
REMARK                         _______ _______ _______ _____ _____    ______ ____
ROOT
ATOM      1  C   UNL     1       0.923   2.253   0.076  0.00  0.00    +0.029 C 
ATOM      2  C   UNL     1       1.082   0.734  -0.018  0.00  0.00    +0.090 C 
ATOM      3  C   UNL     1       1.438   0.342  -1.457  0.00  0.00    +0.130 C 
ATOM      4  N   UNL     1       1.839  -1.072  -1.473  0.00  0.00    -0.297 N 
ATOM      5  C   UNL     1       2.925  -1.510  -0.585  0.00  0.00    +0.127 C 
ATOM      6  C   UNL     1       2.570  -1.118   0.854  0.00  0.00    +0.127 C 
ATOM      7  N   UNL     1       2.166   0.295   0.874  0.00  0.00    -0.295 N 
ATOM      8  C   UNL     1       2.780   1.174   1.690  0.00  0.00    +0.219 C 
ATOM      9  O   UNL     1       2.371   2.312   1.774  0.00  0.00    -0.275 OA
ATOM     10  C   UNL     1       1.223  -1.951  -2.288  0.00  0.00    +0.236 C 
ATOM     11  O   UNL     1       0.384  -1.564  -3.074  0.00  0.00    -0.274 OA
ENDROOT
BRANCH   8  12
ATOM     12  C   UNL     1       3.977   0.742   2.498  0.00  0.00    +0.075 C 
ATOM     13  C   UNL     1       3.507  -0.040   3.726  0.00  0.00    +0.013 C 
ATOM     14  C   UNL     1       4.722  -0.479   4.546  0.00  0.00    +0.001 C 
ATOM     15  C   UNL     1       5.506   0.756   4.997  0.00  0.00    +0.000 C 
ATOM     16  C   UNL     1       5.976   1.538   3.768  0.00  0.00    +0.001 C 
ATOM     17  C   UNL     1       4.761   1.976   2.948  0.00  0.00    +0.013 C 
ENDBRANCH   8  12
BRANCH  10  18
ATOM     18  C   UNL     1       1.575  -3.415  -2.222  0.00  0.00    +0.163 C 
BRANCH  18  19
ATOM     19  N   UNL     1       0.379  -4.218  -2.488  0.00  0.00    -0.288 N 
ATOM     20  C   UNL     1       0.292  -5.475  -2.012  0.00  0.00    +0.304 C 
ATOM     21  O   UNL     1       1.206  -5.944  -1.361  0.00  0.00    -0.252 OA
ATOM     22  N   UNL     1      -0.808  -6.214  -2.257  0.00  0.00    -0.269 N 
ATOM     23  H   UNL     1      -0.350  -3.844  -3.007  0.00  0.00    +0.151 HD
ATOM     24  H   UNL     1      -1.505  -5.869  -2.837  0.00  0.00    +0.156 HD
BRANCH  22  25
ATOM     25  C   UNL     1      -0.946  -7.479  -1.673  0.00  0.00    +0.035 A 
ATOM     26  C   UNL     1      -1.602  -8.493  -2.358  0.00  0.00    +0.025 A 
ATOM     27  C   UNL     1      -1.737  -9.740  -1.780  0.00  0.00    +0.022 A 
ATOM     28  C   UNL     1      -1.219  -9.979  -0.519  0.00  0.00    +0.041 A 
ATOM     29  C   UNL     1      -0.566  -8.970   0.166  0.00  0.00    +0.022 A 
ATOM     30  C   UNL     1      -0.423  -7.723  -0.410  0.00  0.00    +0.025 A 
ATOM     31 CL   UNL     1      -1.391 -11.548   0.205  0.00  0.00    -0.084 Cl
ENDBRANCH  22  25
ENDBRANCH  18  19
BRANCH  18  32
ATOM     32  C   UNL     1       2.644  -3.729  -3.271  0.00  0.00    +0.012 C 
ATOM     33  C   UNL     1       3.917  -2.942  -2.953  0.00  0.00    +0.009 C 
ATOM     34  C   UNL     1       2.953  -5.228  -3.251  0.00  0.00    +0.009 C 
ENDBRANCH  18  32
ENDBRANCH  10  18
TORSDOF 5
