REMARK  Name = ZINC21858483
REMARK  10 active torsions:
REMARK  status: ('A' for Active; 'I' for Inactive)
REMARK    1  A    between atoms: C_1  and  C_2
REMARK    2  A    between atoms: C_5  and  C_8
REMARK    3  A    between atoms: C_8  and  N_9
REMARK    4  A    between atoms: C_22  and  C_23
REMARK    5  A    between atoms: C_22  and  C_24
REMARK    6  A    between atoms: N_26  and  C_27
REMARK    7  A    between atoms: C_27  and  C_28
REMARK    8  A    between atoms: C_28  and  C_29
REMARK    9  A    between atoms: C_29  and  C_30
REMARK   10  A    between atoms: C_29  and  C_31
REMARK                            x       y       z     vdW  Elec       q    Type
REMARK                         _______ _______ _______ _____ _____    ______ ____
ROOT
ATOM      1  N   UNL     1      -1.375   2.419   1.347  0.00  0.00    -0.276 N 
ATOM      2  C   UNL     1      -2.035   1.427   1.988  0.00  0.00    +0.264 C 
ATOM      3  O   UNL     1      -1.998   0.276   1.596  0.00  0.00    -0.268 OA
ATOM      4  C   UNL     1      -2.798   1.811   3.189  0.00  0.00    +0.106 A 
ATOM      5  C   UNL     1      -3.382   1.036   4.127  0.00  0.00    +0.041 A 
ATOM      6  C   UNL     1      -3.964   1.894   5.078  0.00  0.00    +0.001 A 
ATOM      7  C   UNL     1      -4.686   1.631   6.251  0.00  0.00    +0.010 A 
ATOM      8  C   UNL     1      -5.119   2.715   6.970  0.00  0.00    +0.001 A 
ATOM      9  C   UNL     1      -4.863   4.017   6.567  0.00  0.00    +0.002 A 
ATOM     10  C   UNL     1      -4.156   4.308   5.415  0.00  0.00    +0.026 A 
ATOM     11  C   UNL     1      -3.701   3.227   4.659  0.00  0.00    +0.050 A 
ATOM     12  N   UNL     1      -2.999   3.157   3.503  0.00  0.00    -0.334 N 
ATOM     13  C   UNL     1      -2.489   4.226   2.637  0.00  0.00    +0.157 C 
ATOM     14  C   UNL     1      -1.221   3.745   1.934  0.00  0.00    +0.129 C 
ATOM     15  C   UNL     1      -0.866   4.738   0.825  0.00  0.00    +0.043 C 
ENDROOT
BRANCH  14  16
ATOM     16  C   UNL     1      -0.094   3.708   2.933  0.00  0.00    +0.238 C 
ATOM     17  O   UNL     1      -0.162   4.368   3.949  0.00  0.00    -0.273 OA
ATOM     18  N   UNL     1       0.990   2.943   2.699  0.00  0.00    -0.313 N 
ATOM     19  H   UNL     1       1.088   2.407   1.743  0.00  0.00    +0.149 HD
BRANCH  18  20
ATOM     20  C   UNL     1       2.037   2.824   3.716  0.00  0.00    +0.104 C 
BRANCH  20  21
ATOM     21  C   UNL     1       3.202   2.005   3.156  0.00  0.00    +0.022 C 
BRANCH  21  22
ATOM     22  C   UNL     1       4.247   1.789   4.252  0.00  0.00    -0.016 C 
ATOM     23  C   UNL     1       3.647   0.929   5.367  0.00  0.00    +0.007 C 
ATOM     24  C   UNL     1       5.467   1.079   3.661  0.00  0.00    +0.007 C 
ENDBRANCH  21  22
ENDBRANCH  20  21
ENDBRANCH  18  20
ENDBRANCH  14  16
BRANCH   1  25
ATOM     25  C   UNL     1      -0.804   2.155   0.024  0.00  0.00    +0.144 C 
BRANCH  25  30
ATOM     26  C   UNL     1      -4.875   2.834  -4.020  0.00  0.00    +0.044 C 
ATOM     27  C   UNL     1      -3.814   2.657  -2.964  0.00  0.00    -0.050 A 
ATOM     28  C   UNL     1      -2.935   3.688  -2.689  0.00  0.00    +0.003 A 
ATOM     29  C   UNL     1      -1.962   3.526  -1.720  0.00  0.00    +0.005 A 
ATOM     30  C   UNL     1      -1.869   2.334  -1.027  0.00  0.00    -0.030 A 
ATOM     31  C   UNL     1      -2.748   1.303  -1.302  0.00  0.00    +0.005 A 
ATOM     32  C   UNL     1      -3.720   1.465  -2.271  0.00  0.00    +0.003 A 
ENDBRANCH  25  30
ENDBRANCH   1  25
TORSDOF 6
