REMARK  Name = ZINC39425951
REMARK  7 active torsions:
REMARK  status: ('A' for Active; 'I' for Inactive)
REMARK    1  A    between atoms: C_1  and  C_2
REMARK    2  A    between atoms: C_5  and  C_8
REMARK    3  A    between atoms: C_10  and  C_30
REMARK    4  A    between atoms: C_11  and  N_29
REMARK    5  A    between atoms: C_23  and  S_25
REMARK    6  A    between atoms: S_25  and  C_26
REMARK    7  A    between atoms: C_26  and  C_27
REMARK                            x       y       z     vdW  Elec       q    Type
REMARK                         _______ _______ _______ _____ _____    ______ ____
ROOT
ATOM      1  C   UNL     1       0.051  -4.262  -0.016  0.00  0.00    +0.097 C 
ATOM      2  C   UNL     1       1.304  -4.724   0.668  0.00  0.00    +0.077 C 
ATOM      3  C   UNL     1       1.272  -5.216   1.933  0.00  0.00    +0.108 C 
ATOM      4  N   UNL     1       0.076  -5.304   2.611  0.00  0.00    -0.237 N 
ATOM      5  C   UNL     1      -1.112  -5.287   1.929  0.00  0.00    +0.026 C 
ATOM      6  C   UNL     1      -1.176  -4.807   0.670  0.00  0.00    +0.025 C 
ATOM      7  C   UNL     1      -2.388  -4.803  -0.041  0.00  0.00    +0.162 C 
ATOM      8  O   UNL     1      -2.414  -4.358  -1.172  0.00  0.00    -0.292 OA
ATOM      9  C   UNL     1      -3.654  -5.339   0.570  0.00  0.00    +0.080 C 
ATOM     10  C   UNL     1      -3.294  -6.421   1.593  0.00  0.00    +0.014 C 
ATOM     11  C   UNL     1      -2.344  -5.814   2.623  0.00  0.00    +0.052 C 
ATOM     12  C   UNL     1       0.075  -5.410   3.999  0.00  0.00    +0.194 A 
ATOM     13  N   UNL     1       0.179  -6.481   4.770  0.00  0.00    -0.124 NA
ATOM     14  N   UNL     1       0.161  -6.402   6.029  0.00  0.00    -0.133 NA
ATOM     15  C   UNL     1       0.036  -5.242   6.657  0.00  0.00    +0.160 A 
ATOM     16  S   UNL     1      -0.059  -4.137   5.251  0.00  0.00    -0.024 S 
ENDROOT
BRANCH   1  21
ATOM     17  C   UNL     1      -0.141   1.513   0.077  0.00  0.00    +0.044 C 
ATOM     18  C   UNL     1      -0.091   0.007   0.053  0.00  0.00    -0.050 A 
ATOM     19  C   UNL     1      -0.067  -0.664  -1.155  0.00  0.00    +0.003 A 
ATOM     20  C   UNL     1      -0.021  -2.046  -1.178  0.00  0.00    +0.005 A 
ATOM     21  C   UNL     1       0.002  -2.756   0.008  0.00  0.00    -0.035 A 
ATOM     22  C   UNL     1      -0.021  -2.084   1.216  0.00  0.00    +0.005 A 
ATOM     23  C   UNL     1      -0.063  -0.703   1.239  0.00  0.00    +0.003 A 
ENDBRANCH   1  21
BRANCH   3  24
ATOM     24  N   UNL     1       2.436  -5.626   2.539  0.00  0.00    -0.345 N 
ATOM     25  H   UNL     1       3.265  -5.642   2.036  0.00  0.00    +0.144 HD
ATOM     26  H   UNL     1       2.428  -5.899   3.470  0.00  0.00    +0.144 HD
ENDBRANCH   3  24
BRANCH   2  27
ATOM     27  C   UNL     1       2.554  -4.646  -0.026  0.00  0.00    +0.099 C 
ATOM     28  N   UNL     1       3.546  -4.583  -0.576  0.00  0.00    -0.191 NA
ENDBRANCH   2  27
BRANCH  15  29
ATOM     29  S   UNL     1      -0.015  -4.887   8.382  0.00  0.00    -0.093 S 
BRANCH  29  30
ATOM     30  C   UNL     1       0.146  -6.513   9.170  0.00  0.00    +0.103 C 
BRANCH  30  31
ATOM     31  C   UNL     1       0.117  -6.351  10.668  0.00  0.00    -0.023 C 
ATOM     32  C   UNL     1      -0.870  -6.860  11.362  0.00  0.00    +0.005 C 
ENDBRANCH  30  31
ENDBRANCH  29  30
ENDBRANCH  15  29
TORSDOF 6
