REMARK  Name = ZINC41040775
REMARK  6 active torsions:
REMARK  status: ('A' for Active; 'I' for Inactive)
REMARK    1  A    between atoms: C_1  and  C_2
REMARK    2  A    between atoms: C_5  and  S_9
REMARK    3  A    between atoms: C_6  and  C_8
REMARK    4  A    between atoms: S_9  and  N_12
REMARK    5  A    between atoms: C_15  and  C_20
REMARK    6  A    between atoms: C_16  and  N_19
REMARK                            x       y       z     vdW  Elec       q    Type
REMARK                         _______ _______ _______ _____ _____    ______ ____
ROOT
ATOM      1  N   UNL     1       1.506  -5.005   0.635  0.00  0.00    -0.111 NA
ATOM      2  C   UNL     1       1.788  -6.288   0.750  0.00  0.00    +0.153 A 
ATOM      3  C   UNL     1       3.018  -6.696   1.317  0.00  0.00    +0.053 A 
ATOM      4  C   UNL     1       3.293  -8.022   1.429  0.00  0.00    -0.025 A 
ATOM      5  C   UNL     1       2.351  -8.970   0.979  0.00  0.00    +0.044 A 
ATOM      6  C   UNL     1       1.178  -8.563   0.438  0.00  0.00    +0.107 A 
ATOM      7  N   UNL     1       0.888  -7.232   0.325  0.00  0.00    -0.343 N 
ATOM      8  C   UNL     1       4.598  -8.477   2.029  0.00  0.00    +0.046 C 
ATOM      9  H   UNL     1       0.042  -6.953  -0.060  0.00  0.00    +0.167 HD
ENDROOT
BRANCH   1  10
ATOM     10  S   UNL     1       0.063  -4.530  -0.023  0.00  0.00    +0.101 S 
ATOM     11  O   UNL     1      -0.953  -4.955   0.876  0.00  0.00    -0.146 OA
ATOM     12  O   UNL     1       0.087  -4.929  -1.387  0.00  0.00    -0.146 OA
BRANCH  10  17
ATOM     13  C   UNL     1      -0.018   1.503   0.010  0.00  0.00    +0.044 C 
ATOM     14  C   UNL     1       0.002  -0.004   0.002  0.00  0.00    -0.050 A 
ATOM     15  C   UNL     1       0.006  -0.689  -1.199  0.00  0.00    +0.005 A 
ATOM     16  C   UNL     1       0.025  -2.071  -1.207  0.00  0.00    +0.029 A 
ATOM     17  C   UNL     1       0.040  -2.768  -0.013  0.00  0.00    +0.115 A 
ATOM     18  C   UNL     1       0.037  -2.084   1.188  0.00  0.00    -0.023 A 
ATOM     19  C   UNL     1       0.023  -0.702   1.195  0.00  0.00    +0.008 A 
ATOM     20  C   UNL     1       0.054  -2.845   2.489  0.00  0.00    +0.046 C 
ENDBRANCH  10  17
ENDBRANCH   1  10
BRANCH   5  21
ATOM     21  N   UNL     1       2.631 -10.341   1.092  0.00  0.00    -0.357 N 
ATOM     22  H   UNL     1       3.471 -10.634   1.478  0.00  0.00    +0.142 HD
ATOM     23  H   UNL     1       1.984 -10.995   0.783  0.00  0.00    +0.142 HD
ENDBRANCH   5  21
TORSDOF 3
