REMARK  Name = ZINC40245064
REMARK  3 active torsions:
REMARK  status: ('A' for Active; 'I' for Inactive)
REMARK    1  A    between atoms: C_3  and  C_6
REMARK    2  A    between atoms: C_6  and  C_8
REMARK    3  A    between atoms: C_6  and  O_19
REMARK                            x       y       z     vdW  Elec       q    Type
REMARK                         _______ _______ _______ _____ _____    ______ ____
ROOT
ATOM      1  C   UNL     1       4.109   0.359   1.363  0.00  0.00    -0.008 A 
ATOM      2  C   UNL     1       4.220  -0.941   1.820  0.00  0.00    +0.010 A 
ATOM      3  C   UNL     1       4.688  -1.192   3.098  0.00  0.00    +0.050 A 
ATOM      4  C   UNL     1       5.046  -0.136   3.918  0.00  0.00    +0.162 A 
ATOM      5  C   UNL     1       4.935   1.169   3.459  0.00  0.00    +0.162 A 
ATOM      6  C   UNL     1       4.470   1.417   2.179  0.00  0.00    +0.056 A 
ATOM      7  O   UNL     1       5.291   2.203   4.275  0.00  0.00    -0.488 OA
ATOM      8  C   UNL     1       4.452   2.420   5.412  0.00  0.00    +0.232 C 
ATOM      9  C   UNL     1       4.862   1.516   6.564  0.00  0.00    +0.082 C 
ATOM     10  C   UNL     1       4.655   0.044   6.247  0.00  0.00    +0.232 C 
ATOM     11  O   UNL     1       5.510  -0.370   5.180  0.00  0.00    -0.488 OA
ENDROOT
BRANCH   1  12
ATOM     12  C   UNL     1       3.599   0.625  -0.029  0.00  0.00    +0.210 C 
BRANCH  12  15
ATOM     13  C   UNL     1      -0.016   1.341   0.009  0.00  0.00    +0.041 A 
ATOM     14  C   UNL     1       1.331   1.769  -0.001  0.00  0.00    +0.047 A 
ATOM     15  C   UNL     1       2.092   0.660  -0.014  0.00  0.00    +0.138 A 
ATOM     16  O   UNL     1       1.282  -0.411  -0.012  0.00  0.00    -0.465 OA
ATOM     17  C   UNL     1       0.002  -0.004   0.002  0.00  0.00    +0.195 A 
ENDBRANCH  12  15
BRANCH  12  18
ATOM     18  O   UNL     1       4.043  -0.413  -0.905  0.00  0.00    -0.379 OA
ATOM     19  H   UNL     1       3.739  -1.296  -0.654  0.00  0.00    +0.211 HD
ENDBRANCH  12  18
ENDBRANCH   1  12
TORSDOF 3
