REMARK  Name = ZINC14733338
REMARK  10 active torsions:
REMARK  status: ('A' for Active; 'I' for Inactive)
REMARK    1  A    between atoms: C_1  and  N_2
REMARK    2  A    between atoms: C_5  and  C_7
REMARK    3  A    between atoms: N_9  and  C_10
REMARK    4  A    between atoms: C_10  and  C_11
REMARK    5  A    between atoms: C_19  and  N_61
REMARK    6  A    between atoms: C_23  and  C_24
REMARK    7  A    between atoms: C_23  and  N_61
REMARK    8  A    between atoms: C_24  and  C_25
REMARK    9  A    between atoms: C_28  and  S_31
REMARK   10  A    between atoms: S_31  and  N_34
REMARK                            x       y       z     vdW  Elec       q    Type
REMARK                         _______ _______ _______ _____ _____    ______ ____
ROOT
ATOM      1  C   UNL     1      -1.923   3.953   8.147  0.00  0.00    +0.172 C 
ATOM      2  N   UNL     1      -1.501   2.680   7.557  0.00  0.00    -0.270 N 
ATOM      3  C   UNL     1      -1.127   2.510   6.278  0.00  0.00    +0.043 A 
ATOM      4  C   UNL     1      -0.815   1.200   6.122  0.00  0.00    +0.004 A 
ATOM      5  C   UNL     1      -1.020   0.602   7.376  0.00  0.00    +0.150 A 
ATOM      6  N   UNL     1      -1.434   1.559   8.189  0.00  0.00    -0.166 NA
ATOM      7  C   UNL     1      -0.349   0.581   4.833  0.00  0.00    +0.023 C 
ATOM      8  C   UNL     1      -0.679   1.548   3.687  0.00  0.00    -0.067 C 
ATOM      9  C   UNL     1      -0.182   2.951   4.044  0.00  0.00    -0.009 C 
ATOM     10  C   UNL     1      -1.043   3.532   5.173  0.00  0.00    +0.054 C 
ENDROOT
BRANCH   5  11
ATOM     11  C   UNL     1      -0.814  -0.820   7.720  0.00  0.00    +0.265 C 
ATOM     12  O   UNL     1      -0.428  -1.600   6.872  0.00  0.00    -0.268 OA
ATOM     13  N   UNL     1      -1.054  -1.251   8.974  0.00  0.00    -0.306 N 
ATOM     14  H   UNL     1      -1.362  -0.628   9.651  0.00  0.00    +0.149 HD
BRANCH  13  15
ATOM     15  C   UNL     1      -0.849  -2.661   9.315  0.00  0.00    +0.140 C 
BRANCH  15  16
ATOM     16  C   UNL     1      -1.185  -2.881  10.768  0.00  0.00    -0.030 A 
ATOM     17  C   UNL     1      -0.203  -2.750  11.732  0.00  0.00    +0.008 A 
ATOM     18  C   UNL     1      -0.512  -2.946  13.064  0.00  0.00    +0.038 A 
ATOM     19  C   UNL     1      -1.803  -3.284  13.433  0.00  0.00    +0.123 A 
ATOM     20  C   UNL     1      -2.784  -3.420  12.466  0.00  0.00    +0.038 A 
ATOM     21  C   UNL     1      -2.475  -3.218  11.134  0.00  0.00    +0.008 A 
ATOM     22  F   UNL     1      -2.104  -3.481  14.735  0.00  0.00    -0.205 F 
ENDBRANCH  15  16
ENDBRANCH  13  15
ENDBRANCH   5  11
BRANCH   8  23
ATOM     23  N   UNL     1      -0.009   1.087   2.457  0.00  0.00    +0.381 N 
ATOM     24  H   UNL     1       0.004   0.060   2.443  0.00  0.00    -0.086 HD
ATOM     25  H   UNL     1       0.954   1.442   2.442  0.00  0.00    -0.086 HD
BRANCH  23  26
ATOM     26  C   UNL     1      -0.729   1.579   1.267  0.00  0.00    -0.078 C 
BRANCH  26  27
ATOM     27  C   UNL     1      -0.013   1.086   0.008  0.00  0.00    +0.016 C 
BRANCH  27  28
ATOM     28  C   UNL     1      -0.742   1.585  -1.213  0.00  0.00    -0.049 A 
ATOM     29  C   UNL     1      -1.750   0.825  -1.775  0.00  0.00    +0.005 A 
ATOM     30  C   UNL     1      -2.421   1.285  -2.892  0.00  0.00    +0.029 A 
ATOM     31  C   UNL     1      -2.079   2.501  -3.453  0.00  0.00    +0.105 A 
ATOM     32  C   UNL     1      -1.067   3.259  -2.894  0.00  0.00    +0.029 A 
ATOM     33  C   UNL     1      -0.398   2.801  -1.774  0.00  0.00    +0.005 A 
BRANCH  31  34
ATOM     34  S   UNL     1      -2.932   3.085  -4.880  0.00  0.00    +0.056 S 
ATOM     35  O   UNL     1      -4.200   2.445  -4.885  0.00  0.00    -0.153 OA
ATOM     36  O   UNL     1      -2.791   4.499  -4.886  0.00  0.00    -0.153 OA
BRANCH  34  37
ATOM     37  N   UNL     1      -2.112   2.522  -6.204  0.00  0.00    -0.204 NA
ATOM     38  H   UNL     1      -1.318   1.978  -6.088  0.00  0.00    +0.144 HD
ATOM     39  H   UNL     1      -2.427   2.737  -7.096  0.00  0.00    +0.144 HD
ENDBRANCH  34  37
ENDBRANCH  31  34
ENDBRANCH  27  28
ENDBRANCH  26  27
ENDBRANCH  23  26
ENDBRANCH   8  23
TORSDOF 9
