REMARK  Name = ZINC05298022
REMARK  4 active torsions:
REMARK  status: ('A' for Active; 'I' for Inactive)
REMARK    1  A    between atoms: C_4  and  C_7
REMARK    2  A    between atoms: C_14  and  C_16
REMARK    3  A    between atoms: C_19  and  O_22
REMARK    4  A    between atoms: O_22  and  C_23
REMARK                            x       y       z     vdW  Elec       q    Type
REMARK                         _______ _______ _______ _____ _____    ______ ____
ROOT
ATOM      1  C   UNL     1       0.736   5.797  -0.634  0.00  0.00    +0.106 A 
ATOM      2  C   UNL     1      -0.520   5.364  -0.341  0.00  0.00    +0.132 A 
ATOM      3  N   UNL     1      -0.427   4.024  -0.098  0.00  0.00    -0.229 N 
ATOM      4  C   UNL     1       0.888   3.668  -0.242  0.00  0.00    +0.192 A 
ATOM      5  N   UNL     1       1.575   4.730  -0.565  0.00  0.00    -0.219 NA
ATOM      6  S   UNL     1       1.479   2.024  -0.014  0.00  0.00    -0.056 S 
ATOM      7  C   UNL     1      -0.048   1.152  -0.011  0.00  0.00    +0.074 C 
ATOM      8  C   UNL     1      -1.229   1.742   0.101  0.00  0.00    +0.061 C 
ATOM      9  N   UNL     1      -1.438   3.118   0.237  0.00  0.00    -0.250 N 
ATOM     10 BR   UNL     1      -2.091   6.415  -0.283  0.00  0.00    -0.027 Br
ATOM     11  H   UNL     1      -2.291   3.446   0.561  0.00  0.00    +0.173 HD
ENDROOT
BRANCH   1  15
ATOM     12  C   UNL     1       1.842   9.787  -1.597  0.00  0.00    +0.000 A 
ATOM     13  C   UNL     1       2.709   8.988  -0.873  0.00  0.00    +0.001 A 
ATOM     14  C   UNL     1       2.355   7.692  -0.558  0.00  0.00    +0.010 A 
ATOM     15  C   UNL     1       1.121   7.189  -0.969  0.00  0.00    +0.003 A 
ATOM     16  C   UNL     1       0.255   7.998  -1.702  0.00  0.00    +0.010 A 
ATOM     17  C   UNL     1       0.617   9.294  -2.008  0.00  0.00    +0.001 A 
ENDBRANCH   1  15
BRANCH   8  18
ATOM     18  C   UNL     1      -2.424   0.874   0.088  0.00  0.00    -0.002 A 
ATOM     19  C   UNL     1      -3.583   1.287  -0.572  0.00  0.00    +0.013 A 
ATOM     20  C   UNL     1      -4.694   0.471  -0.587  0.00  0.00    +0.047 A 
ATOM     21  C   UNL     1      -4.665  -0.756   0.063  0.00  0.00    +0.128 A 
ATOM     22  C   UNL     1      -3.517  -1.169   0.726  0.00  0.00    +0.047 A 
ATOM     23  C   UNL     1      -2.400  -0.361   0.741  0.00  0.00    +0.013 A 
BRANCH  21  24
ATOM     24  O   UNL     1      -5.764  -1.555   0.051  0.00  0.00    -0.456 OA
BRANCH  24  25
ATOM     25  C   UNL     1      -6.822  -1.174  -0.713  0.00  0.00    +0.128 A 
ATOM     26  C   UNL     1      -7.948  -0.626  -0.116  0.00  0.00    +0.046 A 
ATOM     27  C   UNL     1      -9.019  -0.234  -0.895  0.00  0.00    +0.004 A 
ATOM     28  C   UNL     1      -8.975  -0.398  -2.267  0.00  0.00    +0.000 A 
ATOM     29  C   UNL     1      -7.856  -0.949  -2.864  0.00  0.00    +0.004 A 
ATOM     30  C   UNL     1      -6.779  -1.337  -2.090  0.00  0.00    +0.046 A 
ENDBRANCH  24  25
ENDBRANCH  21  24
ENDBRANCH   8  18
TORSDOF 4
