REMARK  Name = ZINC61297784
REMARK  7 active torsions:
REMARK  status: ('A' for Active; 'I' for Inactive)
REMARK    1  A    between atoms: C_1  and  C_2
REMARK    2  A    between atoms: C_2  and  N_3
REMARK    3  A    between atoms: N_3  and  C_4
REMARK    4  A    between atoms: C_4  and  C_5
REMARK    5  A    between atoms: C_4  and  C_6
REMARK    6  A    between atoms: C_4  and  C_7
REMARK    7  A    between atoms: C_17  and  C_19
REMARK                            x       y       z     vdW  Elec       q    Type
REMARK                         _______ _______ _______ _____ _____    ______ ____
ROOT
ATOM      1  C   UNL     1      -2.916  -2.456  -0.013  0.00  0.00    +0.208 C 
ATOM      2  O   UNL     1      -1.853  -1.877  -0.090  0.00  0.00    -0.277 OA
ATOM      3  N   UNL     1      -3.933  -1.908   0.681  0.00  0.00    -0.272 N 
ATOM      4  C   UNL     1      -5.268  -2.520   0.656  0.00  0.00    +0.114 C 
ATOM      5  C   UNL     1      -6.295  -1.397   0.461  0.00  0.00    +0.024 C 
ATOM      6  C   UNL     1      -6.233  -0.458   1.666  0.00  0.00    +0.038 C 
ATOM      7  C   UNL     1      -4.814  -0.024   1.924  0.00  0.00    -0.025 A 
ATOM      8  C   UNL     1      -3.732  -0.753   1.440  0.00  0.00    +0.039 A 
ATOM      9  C   UNL     1      -2.428  -0.337   1.702  0.00  0.00    +0.024 A 
ATOM     10  C   UNL     1      -2.202   0.799   2.444  0.00  0.00    +0.017 A 
ATOM     11  C   UNL     1      -3.288   1.533   2.934  0.00  0.00    +0.064 A 
ATOM     12  C   UNL     1      -4.595   1.112   2.658  0.00  0.00    +0.020 A 
ENDROOT
BRANCH   1  13
ATOM     13  C   UNL     1      -3.099  -3.788  -0.694  0.00  0.00    +0.005 C 
ATOM     14  C   UNL     1      -1.735  -4.340  -1.110  0.00  0.00    -0.001 C 
ATOM     15  C   UNL     1      -3.978  -3.610  -1.934  0.00  0.00    -0.001 C 
BRANCH  13  16
ATOM     16  N   UNL     1      -3.745  -4.726   0.233  0.00  0.00    +0.388 N 
ATOM     17  H   UNL     1      -4.683  -4.412   0.432  0.00  0.00    -0.084 HD
ATOM     18  H   UNL     1      -3.216  -4.769   1.091  0.00  0.00    -0.084 HD
BRANCH  16  20
ATOM     19  C   UNL     1      -4.468  -7.039   0.588  0.00  0.00    -0.017 C 
ATOM     20  C   UNL     1      -3.796  -6.061  -0.378  0.00  0.00    -0.085 C 
ENDBRANCH  16  20
ENDBRANCH  13  16
ENDBRANCH   1  13
BRANCH  11  21
ATOM     21  C   UNL     1      -3.057   2.751   3.728  0.00  0.00    +0.387 C 
ATOM     22  O   UNL     1      -1.915   3.123   3.961  0.00  0.00    -0.241 OA
ATOM     23  O   UNL     1      -4.008   3.391   4.156  0.00  0.00    -0.241 OA
ENDBRANCH  11  21
TORSDOF 4
