REMARK  Name = ZINC09409469
REMARK  14 active torsions:
REMARK  status: ('A' for Active; 'I' for Inactive)
REMARK    1  A    between atoms: C_1  and  C_2
REMARK    2  A    between atoms: C_6  and  O_30
REMARK    3  A    between atoms: C_7  and  C_29
REMARK    4  A    between atoms: C_12  and  C_13
REMARK    5  A    between atoms: C_13  and  C_14
REMARK    6  A    between atoms: C_14  and  C_15
REMARK    7  A    between atoms: N_17  and  C_18
REMARK    8  A    between atoms: C_18  and  C_19
REMARK    9  A    between atoms: C_22  and  S_25
REMARK   10  A    between atoms: S_25  and  N_28
REMARK   11  A    between atoms: O_30  and  C_31
REMARK   12  A    between atoms: C_31  and  C_32
REMARK   13  A    between atoms: C_33  and  C_34
REMARK   14  A    between atoms: C_33  and  C_35
REMARK                            x       y       z     vdW  Elec       q    Type
REMARK                         _______ _______ _______ _____ _____    ______ ____
ROOT
ATOM      1  C   UNL     1      -3.859  -0.587  -5.589  0.00  0.00    +0.045 C 
ATOM      2  C   UNL     1      -3.463   0.806  -6.006  0.00  0.00    -0.030 A 
ATOM      3  C   UNL     1      -3.924   1.371  -7.276  0.00  0.00    +0.021 A 
ATOM      4  C   UNL     1      -4.745   0.634  -8.137  0.00  0.00    +0.015 A 
ATOM      5  C   UNL     1      -5.156   1.183  -9.317  0.00  0.00    +0.047 A 
ATOM      6  C   UNL     1      -4.763   2.472  -9.671  0.00  0.00    +0.127 A 
ATOM      7  C   UNL     1      -3.951   3.216  -8.830  0.00  0.00    +0.034 A 
ATOM      8  C   UNL     1      -3.525   2.674  -7.627  0.00  0.00    +0.146 A 
ATOM      9  O   UNL     1      -2.732   3.382  -6.794  0.00  0.00    -0.422 OA
ATOM     10  C   UNL     1      -2.311   2.872  -5.626  0.00  0.00    +0.341 A 
ATOM     11  O   UNL     1      -1.597   3.548  -4.907  0.00  0.00    -0.245 OA
ATOM     12  C   UNL     1      -2.672   1.574  -5.211  0.00  0.00    +0.041 A 
ATOM     13  C   UNL     1      -3.533   4.610  -9.222  0.00  0.00    +0.051 C 
ENDROOT
BRANCH  12  14
ATOM     14  C   UNL     1      -2.178   1.037  -3.893  0.00  0.00    +0.052 C 
BRANCH  14  15
ATOM     15  C   UNL     1      -3.179   1.390  -2.791  0.00  0.00    +0.100 C 
BRANCH  15  16
ATOM     16  C   UNL     1      -2.684   0.854  -1.472  0.00  0.00    +0.214 C 
ATOM     17  O   UNL     1      -1.635   0.248  -1.419  0.00  0.00    -0.276 OA
ATOM     18  N   UNL     1      -3.408   1.046  -0.352  0.00  0.00    -0.311 N 
ATOM     19  H   UNL     1      -4.248   1.531  -0.395  0.00  0.00    +0.149 HD
BRANCH  18  20
ATOM     20  C   UNL     1      -2.928   0.524   0.930  0.00  0.00    +0.139 C 
BRANCH  20  21
ATOM     21  C   UNL     1      -3.913   0.872   2.015  0.00  0.00    -0.030 A 
ATOM     22  C   UNL     1      -3.780   2.056   2.716  0.00  0.00    +0.007 A 
ATOM     23  C   UNL     1      -4.687   2.377   3.709  0.00  0.00    +0.029 A 
ATOM     24  C   UNL     1      -5.722   1.510   4.007  0.00  0.00    +0.105 A 
ATOM     25  C   UNL     1      -5.852   0.324   3.309  0.00  0.00    +0.029 A 
ATOM     26  C   UNL     1      -4.948   0.005   2.313  0.00  0.00    +0.007 A 
BRANCH  24  27
ATOM     27  S   UNL     1      -6.875   1.918   5.275  0.00  0.00    +0.056 S 
ATOM     28  O   UNL     1      -6.853   3.333   5.405  0.00  0.00    -0.153 OA
ATOM     29  O   UNL     1      -8.066   1.198   4.988  0.00  0.00    -0.153 OA
BRANCH  27  30
ATOM     30  N   UNL     1      -6.280   1.303   6.693  0.00  0.00    -0.204 NA
ATOM     31  H   UNL     1      -6.481   1.743   7.534  0.00  0.00    +0.144 HD
ATOM     32  H   UNL     1      -5.732   0.504   6.683  0.00  0.00    +0.144 HD
ENDBRANCH  27  30
ENDBRANCH  24  27
ENDBRANCH  20  21
ENDBRANCH  18  20
ENDBRANCH  15  16
ENDBRANCH  14  15
ENDBRANCH  12  14
BRANCH   6  33
ATOM     33  O   UNL     1      -5.180   3.004 -10.848  0.00  0.00    -0.488 OA
BRANCH  33  34
ATOM     34  C   UNL     1      -6.016   2.186 -11.669  0.00  0.00    +0.256 C 
BRANCH  34  35
ATOM     35  C   UNL     1      -6.376   2.937 -12.925  0.00  0.00    +0.012 C 
ATOM     36  C   UNL     1      -6.317   2.336 -14.088  0.00  0.00    -0.076 C 
ATOM     37  C   UNL     1      -6.008   0.863 -14.159  0.00  0.00    +0.038 C 
ATOM     38  C   UNL     1      -6.557   3.118 -15.353  0.00  0.00    +0.038 C 
ENDBRANCH  34  35
ENDBRANCH  33  34
ENDBRANCH   6  33
TORSDOF 10
