REMARK  Name = ZINC14406373
REMARK  12 active torsions:
REMARK  status: ('A' for Active; 'I' for Inactive)
REMARK    1  A    between atoms: C_1  and  C_2
REMARK    2  A    between atoms: C_4  and  C_34
REMARK    3  A    between atoms: C_5  and  N_9
REMARK    4  A    between atoms: C_6  and  C_8
REMARK    5  A    between atoms: C_10  and  C_12
REMARK    6  A    between atoms: C_12  and  C_13
REMARK    7  A    between atoms: C_13  and  C_14
REMARK    8  A    between atoms: C_14  and  C_15
REMARK    9  A    between atoms: N_17  and  N_18
REMARK   10  A    between atoms: C_19  and  C_20
REMARK   11  A    between atoms: N_24  and  C_25
REMARK   12  A    between atoms: C_29  and  N_31
REMARK                            x       y       z     vdW  Elec       q    Type
REMARK                         _______ _______ _______ _____ _____    ______ ____
ROOT
ATOM      1  C   UNL     1      -2.294   6.529  -6.569  0.00  0.00    +0.232 C 
ATOM      2  O   UNL     1      -1.802   7.567  -6.943  0.00  0.00    -0.274 OA
ATOM      3  N   UNL     1      -1.535   5.614  -5.934  0.00  0.00    -0.207 N 
ATOM      4  H   UNL     1      -1.930   4.780  -5.633  0.00  0.00    +0.177 HD
ENDROOT
BRANCH   3   5
ATOM      5  N   UNL     1      -0.283   5.845  -5.727  0.00  0.00    -0.186 NA
ATOM      6  C   UNL     1       0.471   4.936  -5.098  0.00  0.00    +0.156 C 
BRANCH   6   7
ATOM      7  C   UNL     1       1.811   5.184  -4.876  0.00  0.00    +0.066 A 
ATOM      8  C   UNL     1       2.563   6.395  -5.265  0.00  0.00    +0.029 A 
ATOM      9  C   UNL     1       3.842   6.199  -4.852  0.00  0.00    +0.020 A 
ATOM     10  C   UNL     1       3.922   4.944  -4.229  0.00  0.00    +0.092 A 
ATOM     11  N   UNL     1       2.718   4.345  -4.241  0.00  0.00    -0.315 N 
BRANCH  11  12
ATOM     12  C   UNL     1       2.429   3.083  -3.707  0.00  0.00    +0.049 A 
ATOM     13  C   UNL     1       1.347   2.920  -2.852  0.00  0.00    +0.026 A 
ATOM     14  C   UNL     1       1.061   1.673  -2.333  0.00  0.00    +0.004 A 
ATOM     15  C   UNL     1       1.857   0.589  -2.654  0.00  0.00    +0.033 A 
ATOM     16  C   UNL     1       2.936   0.748  -3.504  0.00  0.00    +0.128 A 
ATOM     17  C   UNL     1       3.224   1.992  -4.032  0.00  0.00    +0.058 A 
BRANCH  16  18
ATOM     18  N   UNL     1       3.783  -0.416  -3.850  0.00  0.00    +0.056 N 
ATOM     19  O   UNL     1       3.508  -1.602  -3.348  0.00  0.00    -0.126 OA
ATOM     20  O   UNL     1       4.810  -0.266  -4.660  0.00  0.00    -0.126 OA
ENDBRANCH  16  18
ENDBRANCH  11  12
ENDBRANCH   6   7
ENDBRANCH   3   5
BRANCH   1  21
ATOM     21  C   UNL     1      -3.757   6.259  -6.810  0.00  0.00    +0.098 C 
BRANCH  21  22
ATOM     22  C   UNL     1      -4.381   7.448  -7.542  0.00  0.00    +0.018 C 
BRANCH  22  23
ATOM     23  C   UNL     1      -5.866   7.174  -7.788  0.00  0.00    +0.096 C 
BRANCH  23  25
ATOM     24  N   UNL     1      -7.790   8.326  -8.832  0.00  0.00    -0.285 N 
ATOM     25  C   UNL     1      -6.481   8.345  -8.509  0.00  0.00    +0.217 C 
ATOM     26  O   UNL     1      -5.799   9.306  -8.798  0.00  0.00    -0.275 OA
ATOM     27  H   UNL     1      -8.323   7.537  -8.648  0.00  0.00    +0.155 HD
BRANCH  24  32
ATOM     28  C   UNL     1     -10.177  12.859 -11.268  0.00  0.00    +0.044 C 
ATOM     29  C   UNL     1      -9.543  11.655 -10.621  0.00  0.00    -0.050 A 
ATOM     30  C   UNL     1      -9.682  10.407 -11.200  0.00  0.00    +0.008 A 
ATOM     31  C   UNL     1      -9.102   9.302 -10.610  0.00  0.00    -0.029 A 
ATOM     32  C   UNL     1      -8.378   9.444  -9.433  0.00  0.00    +0.039 A 
ATOM     33  C   UNL     1      -8.244  10.698  -8.851  0.00  0.00    -0.029 A 
ATOM     34  C   UNL     1      -8.823  11.800  -9.450  0.00  0.00    +0.008 A 
ATOM     35  C   UNL     1      -7.465  10.857  -7.572  0.00  0.00    +0.045 C 
ATOM     36  C   UNL     1      -9.254   7.942 -11.242  0.00  0.00    +0.045 C 
ENDBRANCH  24  32
ENDBRANCH  23  25
ENDBRANCH  22  23
ENDBRANCH  21  22
ENDBRANCH   1  21
TORSDOF 9
