REMARK  Name = ZINC09374603
REMARK  10 active torsions:
REMARK  status: ('A' for Active; 'I' for Inactive)
REMARK    1  A    between atoms: C_1  and  C_2
REMARK    2  A    between atoms: C_2  and  C_3
REMARK    3  A    between atoms: C_3  and  C_4
REMARK    4  A    between atoms: C_4  and  C_5
REMARK    5  A    between atoms: C_6  and  C_38
REMARK    6  A    between atoms: C_7  and  C_36
REMARK    7  A    between atoms: C_17  and  N_18
REMARK    8  A    between atoms: C_23  and  C_24
REMARK    9  A    between atoms: C_23  and  C_30
REMARK   10  A    between atoms: C_23  and  N_74
REMARK                            x       y       z     vdW  Elec       q    Type
REMARK                         _______ _______ _______ _____ _____    ______ ____
ROOT
ATOM      1  C   UNL     1       4.585  -0.016   0.053  0.00  0.00    -0.005 A 
ATOM      2  C   UNL     1       5.412   1.099   0.032  0.00  0.00    -0.023 A 
ATOM      3  C   UNL     1       4.845   2.372  -0.027  0.00  0.00    +0.098 A 
ATOM      4  C   UNL     1       3.383   2.491  -0.066  0.00  0.00    +0.158 A 
ATOM      5  N   UNL     1       2.591   3.546  -0.123  0.00  0.00    -0.226 NA
ATOM      6  C   UNL     1       1.298   3.146  -0.138  0.00  0.00    +0.090 A 
ATOM      7  C   UNL     1       0.081   3.835  -0.192  0.00  0.00    +0.030 A 
ATOM      8  C   UNL     1      -1.095   3.140  -0.194  0.00  0.00    +0.002 A 
ATOM      9  C   UNL     1      -1.098   1.753  -0.149  0.00  0.00    +0.002 A 
ATOM     10  C   UNL     1       0.089   1.053  -0.090  0.00  0.00    +0.028 A 
ATOM     11  C   UNL     1       1.294   1.741  -0.087  0.00  0.00    +0.075 A 
ATOM     12  N   UNL     1       2.621   1.348  -0.042  0.00  0.00    -0.279 N 
ATOM     13  C   UNL     1       3.215   0.120   0.017  0.00  0.00    +0.111 A 
ATOM     14  C   UNL     1       6.909   0.935   0.072  0.00  0.00    +0.045 C 
ENDROOT
BRANCH  13  15
ATOM     15  N   UNL     1       2.428  -1.006   0.039  0.00  0.00    -0.320 N 
ATOM     16  C   UNL     1       1.625  -1.112  -1.187  0.00  0.00    +0.088 C 
ATOM     17  C   UNL     1       0.825  -2.416  -1.158  0.00  0.00    -0.058 C 
ATOM     18  C   UNL     1       0.768  -2.328   1.260  0.00  0.00    -0.058 C 
ATOM     19  C   UNL     1       1.569  -1.024   1.231  0.00  0.00    +0.088 C 
ATOM     20  N   UNL     1      -0.051  -2.412   0.032  0.00  0.00    +0.389 N 
ATOM     21  H   UNL     1      -0.670  -1.594  -0.012  0.00  0.00    -0.080 HD
BRANCH  20  22
ATOM     22  C   UNL     1      -0.876  -3.638   0.058  0.00  0.00    -0.007 C 
BRANCH  22  23
ATOM     23  C   UNL     1      -1.806  -3.578   1.242  0.00  0.00    -0.057 A 
ATOM     24  C   UNL     1      -2.471  -2.403   1.540  0.00  0.00    +0.002 A 
ATOM     25  C   UNL     1      -3.327  -2.348   2.624  0.00  0.00    +0.000 A 
ATOM     26  C   UNL     1      -3.511  -3.466   3.416  0.00  0.00    +0.000 A 
ATOM     27  C   UNL     1      -2.842  -4.639   3.122  0.00  0.00    +0.000 A 
ATOM     28  C   UNL     1      -1.989  -4.695   2.035  0.00  0.00    +0.002 A 
ENDBRANCH  22  23
BRANCH  22  29
ATOM     29  C   UNL     1      -1.685  -3.711  -1.212  0.00  0.00    -0.057 A 
ATOM     30  C   UNL     1      -2.358  -2.594  -1.668  0.00  0.00    +0.002 A 
ATOM     31  C   UNL     1      -3.096  -2.660  -2.836  0.00  0.00    +0.000 A 
ATOM     32  C   UNL     1      -3.168  -3.846  -3.541  0.00  0.00    +0.000 A 
ATOM     33  C   UNL     1      -2.500  -4.965  -3.082  0.00  0.00    +0.000 A 
ATOM     34  C   UNL     1      -1.758  -4.898  -1.917  0.00  0.00    +0.002 A 
ENDBRANCH  22  29
ENDBRANCH  20  22
ENDBRANCH  13  15
BRANCH   3  35
ATOM     35  C   UNL     1       5.673   3.539  -0.050  0.00  0.00    +0.103 C 
ATOM     36  N   UNL     1       6.331   4.466  -0.069  0.00  0.00    -0.191 NA
ENDBRANCH   3  35
BRANCH   1  37
ATOM     37  C   UNL     1       5.195  -1.393   0.117  0.00  0.00    +0.039 C 
BRANCH  37  38
ATOM     38  C   UNL     1       5.434  -1.911  -1.302  0.00  0.00    +0.004 C 
BRANCH  38  40
ATOM     39  C   UNL     1       6.293  -3.828  -2.656  0.00  0.00    +0.004 C 
ATOM     40  C   UNL     1       6.053  -3.309  -1.237  0.00  0.00    -0.003 C 
ENDBRANCH  38  40
ENDBRANCH  37  38
ENDBRANCH   1  37
TORSDOF 8
