REMARK  Name = ZINC39868320
REMARK  8 active torsions:
REMARK  status: ('A' for Active; 'I' for Inactive)
REMARK    1  A    between atoms: C_1  and  C_2
REMARK    2  A    between atoms: C_5  and  C_9
REMARK    3  A    between atoms: C_9  and  C_11
REMARK    4  A    between atoms: C_12  and  N_20
REMARK    5  A    between atoms: C_21  and  C_23
REMARK    6  A    between atoms: C_25  and  C_30
REMARK    7  A    between atoms: C_27  and  C_28
REMARK    8  A    between atoms: C_27  and  C_29
REMARK                            x       y       z     vdW  Elec       q    Type
REMARK                         _______ _______ _______ _____ _____    ______ ____
ROOT
ATOM      1  C   UNL     1       0.523  -4.967   1.191  0.00  0.00    +0.197 A 
ATOM      2  C   UNL     1       0.344  -6.333   1.300  0.00  0.00    +0.091 A 
ATOM      3  C   UNL     1       0.136  -6.593   2.729  0.00  0.00    +0.042 A 
ATOM      4  C   UNL     1      -0.097  -7.747   3.481  0.00  0.00    +0.013 A 
ATOM      5  C   UNL     1      -0.253  -7.654   4.835  0.00  0.00    +0.001 A 
ATOM      6  C   UNL     1      -0.181  -6.420   5.467  0.00  0.00    +0.004 A 
ATOM      7  C   UNL     1       0.048  -5.270   4.743  0.00  0.00    +0.047 A 
ATOM      8  C   UNL     1       0.210  -5.340   3.363  0.00  0.00    +0.138 A 
ATOM      9  O   UNL     1       0.445  -4.408   2.419  0.00  0.00    -0.450 OA
ENDROOT
BRANCH   2  10
ATOM     10  N   UNL     1       0.356  -7.265   0.272  0.00  0.00    -0.282 N 
ATOM     11  C   UNL     1       0.692  -8.545   0.526  0.00  0.00    +0.221 C 
ATOM     12  O   UNL     1       1.048  -8.868   1.640  0.00  0.00    -0.275 OA
ATOM     13  H   UNL     1       0.124  -6.995  -0.630  0.00  0.00    +0.155 HD
BRANCH  11  14
ATOM     14  C   UNL     1       0.626  -9.574  -0.572  0.00  0.00    +0.089 C 
ATOM     15  C   UNL     1       1.949 -10.149  -1.083  0.00  0.00    +0.033 C 
ATOM     16  C   UNL     1       1.022 -11.010  -0.221  0.00  0.00    -0.016 C 
ATOM     17  C   UNL     1       0.262 -12.142  -0.914  0.00  0.00    +0.012 C 
ATOM     18  C   UNL     1       1.455 -11.290   1.220  0.00  0.00    +0.012 C 
BRANCH  15  19
ATOM     19  C   UNL     1       2.043 -10.482  -2.550  0.00  0.00    +0.010 C 
ATOM     20  C   UNL     1       3.200 -10.816  -3.074  0.00  0.00    +0.103 C 
ATOM     21 CL   UNL     1       4.620 -10.875  -2.078  0.00  0.00    -0.071 Cl
ATOM     22 CL   UNL     1       3.308 -11.200  -4.764  0.00  0.00    -0.071 Cl
ENDBRANCH  15  19
ENDBRANCH  11  14
ENDBRANCH   2  10
BRANCH   1  23
ATOM     23  C   UNL     1       0.757  -4.265  -0.016  0.00  0.00    +0.230 C 
ATOM     24  O   UNL     1       0.721  -4.856  -1.081  0.00  0.00    -0.283 OA
BRANCH  23  29
ATOM     25  C   UNL     1       1.880   1.380   0.102  0.00  0.00    +0.047 C 
ATOM     26  C   UNL     1       1.586  -0.098   0.072  0.00  0.00    -0.015 A 
ATOM     27  C   UNL     1       1.673  -0.793  -1.121  0.00  0.00    +0.007 A 
ATOM     28  C   UNL     1       1.405  -2.146  -1.156  0.00  0.00    +0.012 A 
ATOM     29  C   UNL     1       1.046  -2.814   0.015  0.00  0.00    +0.028 A 
ATOM     30  C   UNL     1       0.959  -2.109   1.216  0.00  0.00    +0.050 A 
ATOM     31  C   UNL     1       1.234  -0.755   1.240  0.00  0.00    +0.127 A 
ATOM     32  F   UNL     1       1.156  -0.071   2.402  0.00  0.00    -0.205 F 
ENDBRANCH  23  29
ENDBRANCH   1  23
TORSDOF 5
