REMARK  Name = ZINC06141961
REMARK  8 active torsions:
REMARK  status: ('A' for Active; 'I' for Inactive)
REMARK    1  A    between atoms: C_1  and  C_2
REMARK    2  A    between atoms: C_2  and  C_4
REMARK    3  A    between atoms: C_2  and  O_15
REMARK    4  A    between atoms: O_15  and  C_16
REMARK    5  A    between atoms: C_16  and  C_18
REMARK    6  A    between atoms: C_23  and  N_24
REMARK    7  A    between atoms: N_24  and  S_25
REMARK    8  A    between atoms: S_25  and  C_28
REMARK                            x       y       z     vdW  Elec       q    Type
REMARK                         _______ _______ _______ _____ _____    ______ ____
ROOT
ATOM      1  C   UNL     1       4.570   0.832   0.619  0.00  0.00    +0.081 A 
ATOM      2  C   UNL     1       4.512  -0.405  -0.030  0.00  0.00    +0.017 A 
ATOM      3  C   UNL     1       5.594  -1.256   0.017  0.00  0.00    +0.001 A 
ATOM      4  C   UNL     1       6.741  -0.894   0.705  0.00  0.00    +0.002 A 
ATOM      5  C   UNL     1       6.814   0.323   1.351  0.00  0.00    +0.025 A 
ATOM      6  C   UNL     1       5.736   1.198   1.310  0.00  0.00    +0.062 A 
ENDROOT
BRANCH   1   7
ATOM      7  C   UNL     1       3.417   1.747   0.572  0.00  0.00    +0.342 C 
ATOM      8  O   UNL     1       3.471   2.822   1.137  0.00  0.00    -0.245 OA
BRANCH   7   9
ATOM      9  O   UNL     1       2.302   1.394  -0.098  0.00  0.00    -0.449 OA
BRANCH   9  11
ATOM     10  C   UNL     1       1.348   3.284  -1.301  0.00  0.00    +0.062 C 
ATOM     11  C   UNL     1       1.205   2.345  -0.101  0.00  0.00    +0.259 C 
BRANCH  11  12
ATOM     12  C   UNL     1      -0.103   1.604  -0.197  0.00  0.00    +0.260 C 
ATOM     13  O   UNL     1      -0.110   0.414  -0.435  0.00  0.00    -0.271 OA
ATOM     14  N   UNL     1      -1.266   2.263  -0.023  0.00  0.00    -0.268 N 
ATOM     15  C   UNL     1      -1.390   3.710   0.173  0.00  0.00    +0.118 C 
ATOM     16  C   UNL     1      -2.898   3.969   0.318  0.00  0.00    +0.056 C 
ATOM     17  C   UNL     1      -3.533   2.602   0.199  0.00  0.00    -0.024 A 
ATOM     18  C   UNL     1      -2.530   1.666   0.004  0.00  0.00    +0.040 A 
ATOM     19  C   UNL     1      -2.876   0.321  -0.135  0.00  0.00    +0.024 A 
ATOM     20  C   UNL     1      -4.198  -0.067  -0.078  0.00  0.00    +0.002 A 
ATOM     21  C   UNL     1      -5.191   0.875   0.117  0.00  0.00    +0.000 A 
ATOM     22  C   UNL     1      -4.856   2.209   0.256  0.00  0.00    +0.005 A 
ENDBRANCH  11  12
ENDBRANCH   9  11
ENDBRANCH   7   9
ENDBRANCH   1   7
BRANCH   6  23
ATOM     23  N   UNL     1       5.808   2.426   1.954  0.00  0.00    -0.215 N 
ATOM     24  H   UNL     1       5.019   2.800   2.376  0.00  0.00    +0.174 HD
BRANCH  23  25
ATOM     25  S   UNL     1       7.243   3.252   2.002  0.00  0.00    +0.072 S 
ATOM     26  O   UNL     1       6.966   4.511   2.599  0.00  0.00    -0.150 OA
ATOM     27  O   UNL     1       8.211   2.355   2.529  0.00  0.00    -0.150 OA
BRANCH  25  28
ATOM     28  C   UNL     1       7.713   3.577   0.335  0.00  0.00    +0.109 A 
ATOM     29  C   UNL     1       8.500   2.671  -0.350  0.00  0.00    +0.031 A 
ATOM     30  C   UNL     1       8.865   2.922  -1.659  0.00  0.00    +0.040 A 
ATOM     31  C   UNL     1       8.450   4.088  -2.281  0.00  0.00    +0.124 A 
ATOM     32  C   UNL     1       7.667   4.998  -1.592  0.00  0.00    +0.040 A 
ATOM     33  C   UNL     1       7.298   4.742  -0.285  0.00  0.00    +0.031 A 
ATOM     34  F   UNL     1       8.811   4.338  -3.559  0.00  0.00    -0.205 F 
ENDBRANCH  25  28
ENDBRANCH  23  25
ENDBRANCH   6  23
TORSDOF 7
