REMARK  Name = ZINC65203431
REMARK  9 active torsions:
REMARK  status: ('A' for Active; 'I' for Inactive)
REMARK    1  A    between atoms: C_1  and  O_2
REMARK    2  A    between atoms: O_2  and  C_3
REMARK    3  A    between atoms: C_6  and  S_23
REMARK    4  A    between atoms: C_8  and  C_9
REMARK    5  A    between atoms: N_11  and  N_12
REMARK    6  A    between atoms: N_15  and  C_16
REMARK    7  A    between atoms: C_16  and  C_17
REMARK    8  A    between atoms: C_17  and  C_18
REMARK    9  A    between atoms: S_23  and  N_26
REMARK                            x       y       z     vdW  Elec       q    Type
REMARK                         _______ _______ _______ _____ _____    ______ ____
ROOT
ATOM      1  C   UNL     1       0.067  -2.830   0.032  0.00  0.00    +0.264 C 
ATOM      2  O   UNL     1      -0.492  -2.287  -0.901  0.00  0.00    -0.269 OA
ATOM      3  N   UNL     1       0.126  -4.175   0.092  0.00  0.00    -0.229 N 
ATOM      4  H   UNL     1       0.572  -4.608   0.837  0.00  0.00    +0.173 HD
ENDROOT
BRANCH   1  10
ATOM      5  C   UNL     1       0.625  -0.617   1.040  0.00  0.00    +0.132 A 
ATOM      6  C   UNL     1       1.202   0.138   2.050  0.00  0.00    +0.048 A 
ATOM      7  C   UNL     1       1.835  -0.488   3.106  0.00  0.00    +0.032 A 
ATOM      8  C   UNL     1       1.899  -1.871   3.164  0.00  0.00    +0.106 A 
ATOM      9  C   UNL     1       1.331  -2.636   2.169  0.00  0.00    +0.045 A 
ATOM     10  C   UNL     1       0.683  -2.016   1.098  0.00  0.00    +0.082 A 
BRANCH   8  11
ATOM     11  S   UNL     1       2.712  -2.654   4.517  0.00  0.00    +0.056 S 
ATOM     12  O   UNL     1       3.112  -3.940   4.062  0.00  0.00    -0.153 OA
ATOM     13  O   UNL     1       3.637  -1.709   5.038  0.00  0.00    -0.153 OA
BRANCH  11  14
ATOM     14  N   UNL     1       1.575  -2.901   5.695  0.00  0.00    -0.204 NA
ATOM     15  H   UNL     1       0.657  -2.622   5.550  0.00  0.00    +0.144 HD
ATOM     16  H   UNL     1       1.826  -3.326   6.530  0.00  0.00    +0.144 HD
ENDBRANCH  11  14
ENDBRANCH   8  11
BRANCH   5  18
ATOM     17  C   UNL     1      -0.017   1.425   0.010  0.00  0.00    +0.277 C 
ATOM     18  O   UNL     1       0.002  -0.004   0.002  0.00  0.00    -0.494 OA
ENDBRANCH   5  18
ENDBRANCH   1  10
BRANCH   3  19
ATOM     19  N   UNL     1      -0.459  -4.947  -0.920  0.00  0.00    -0.218 N 
ATOM     20  C   UNL     1      -0.401  -6.293  -0.860  0.00  0.00    +0.316 C 
ATOM     21  O   UNL     1      -0.908  -6.963  -1.738  0.00  0.00    -0.251 OA
ATOM     22  N   UNL     1       0.220  -6.894   0.175  0.00  0.00    -0.298 N 
ATOM     23  H   UNL     1      -0.905  -4.514  -1.664  0.00  0.00    +0.174 HD
ATOM     24  H   UNL     1       0.624  -6.360   0.875  0.00  0.00    +0.150 HD
BRANCH  22  25
ATOM     25  C   UNL     1       0.283  -8.357   0.240  0.00  0.00    +0.111 C 
BRANCH  25  26
ATOM     26  C   UNL     1       1.036  -8.778   1.504  0.00  0.00    +0.061 C 
BRANCH  26  27
ATOM     27  C   UNL     1       1.101 -10.283   1.571  0.00  0.00    -0.009 A 
ATOM     28  C   UNL     1       2.047 -11.119   1.079  0.00  0.00    +0.011 A 
ATOM     29  C   UNL     1       1.898 -12.481   1.262  0.00  0.00    +0.008 A 
ATOM     30  C   UNL     1       0.811 -12.940   1.927  0.00  0.00    +0.045 A 
ATOM     31  S   UNL     1      -0.045 -11.425   2.326  0.00  0.00    -0.102 S 
ENDBRANCH  26  27
ENDBRANCH  25  26
ENDBRANCH  22  25
ENDBRANCH   3  19
TORSDOF 8
