REMARK  Name = ZINC36066158
REMARK  12 active torsions:
REMARK  status: ('A' for Active; 'I' for Inactive)
REMARK    1  A    between atoms: C_1  and  C_2
REMARK    2  A    between atoms: C_2  and  C_3
REMARK    3  A    between atoms: C_3  and  C_5
REMARK    4  A    between atoms: C_3  and  N_6
REMARK    5  A    between atoms: C_7  and  C_32
REMARK    6  A    between atoms: C_15  and  C_21
REMARK    7  A    between atoms: N_23  and  C_24
REMARK    8  A    between atoms: C_27  and  O_30
REMARK    9  A    between atoms: O_30  and  C_31
REMARK   10  A    between atoms: N_34  and  C_35
REMARK   11  A    between atoms: C_40  and  C_45
REMARK   12  A    between atoms: C_42  and  C_44
REMARK                            x       y       z     vdW  Elec       q    Type
REMARK                         _______ _______ _______ _____ _____    ______ ____
ROOT
ATOM      1  N   UNL     1      -2.720  -0.108  -1.318  0.00  0.00    -0.284 N 
ATOM      2  C   UNL     1      -3.738   0.941  -1.640  0.00  0.00    +0.199 C 
ATOM      3  C   UNL     1      -4.041   0.647  -3.076  0.00  0.00    +0.127 C 
ATOM      4  C   UNL     1      -4.842  -0.630  -3.260  0.00  0.00    +0.009 C 
ATOM      5  C   UNL     1      -5.036  -0.747  -4.565  0.00  0.00    +0.004 C 
ATOM      6  C   UNL     1      -4.292   0.441  -5.186  0.00  0.00    +0.155 C 
ATOM      7  O   UNL     1      -4.465   1.477  -4.132  0.00  0.00    -0.358 OA
ATOM      8  C   UNL     1      -2.782   0.014  -5.014  0.00  0.00    +0.123 C 
ATOM      9  C   UNL     1      -2.555   0.383  -3.548  0.00  0.00    +0.128 C 
ATOM     10  C   UNL     1      -2.088  -0.508  -2.472  0.00  0.00    +0.224 C 
ATOM     11  O   UNL     1      -1.299  -1.421  -2.583  0.00  0.00    -0.275 OA
ENDROOT
BRANCH   8  12
ATOM     12  C   UNL     1      -2.607  -1.464  -5.253  0.00  0.00    +0.224 C 
ATOM     13  O   UNL     1      -2.193  -2.177  -4.363  0.00  0.00    -0.275 OA
ATOM     14  N   UNL     1      -2.911  -1.993  -6.454  0.00  0.00    -0.285 N 
ATOM     15  H   UNL     1      -3.181  -1.414  -7.185  0.00  0.00    +0.155 HD
BRANCH  14  16
ATOM     16  C   UNL     1      -2.836  -3.378  -6.649  0.00  0.00    +0.034 A 
ATOM     17  C   UNL     1      -3.748  -4.013  -7.482  0.00  0.00    +0.027 A 
ATOM     18  C   UNL     1      -3.674  -5.378  -7.673  0.00  0.00    +0.047 A 
ATOM     19  C   UNL     1      -2.688  -6.116  -7.034  0.00  0.00    +0.120 A 
ATOM     20  C   UNL     1      -1.777  -5.483  -6.201  0.00  0.00    +0.047 A 
ATOM     21  C   UNL     1      -1.847  -4.116  -6.013  0.00  0.00    +0.027 A 
BRANCH  19  22
ATOM     22  O   UNL     1      -2.616  -7.461  -7.222  0.00  0.00    -0.495 OA
ATOM     23  C   UNL     1      -1.576  -8.157  -6.533  0.00  0.00    +0.277 C 
ENDBRANCH  19  22
ENDBRANCH  14  16
ENDBRANCH   8  12
BRANCH   2  24
ATOM     24  C   UNL     1      -3.156   2.322  -1.483  0.00  0.00    +0.237 C 
ATOM     25  O   UNL     1      -1.954   2.470  -1.419  0.00  0.00    -0.274 OA
ATOM     26  N   UNL     1      -3.971   3.393  -1.415  0.00  0.00    -0.311 N 
ATOM     27  H   UNL     1      -4.932   3.275  -1.467  0.00  0.00    +0.149 HD
BRANCH  26  28
ATOM     28  C   UNL     1      -3.405   4.736  -1.263  0.00  0.00    +0.076 C 
ATOM     29  C   UNL     1      -3.152   5.018   0.219  0.00  0.00    +0.022 C 
ATOM     30  C   UNL     1      -2.561   6.420   0.378  0.00  0.00    +0.002 C 
ATOM     31  C   UNL     1      -3.543   7.453  -0.177  0.00  0.00    +0.003 C 
ATOM     32  C   UNL     1      -3.796   7.171  -1.659  0.00  0.00    -0.009 C 
ATOM     33  C   UNL     1      -4.387   5.769  -1.818  0.00  0.00    +0.009 C 
ATOM     34  C   UNL     1      -5.708   5.682  -1.050  0.00  0.00    +0.009 C 
ATOM     35  C   UNL     1      -4.779   8.204  -2.215  0.00  0.00    +0.008 C 
ENDBRANCH  26  28
ENDBRANCH   2  24
BRANCH   1  36
ATOM     36  C   UNL     1      -2.436  -0.626   0.022  0.00  0.00    +0.074 C 
ATOM     37  C   UNL     1      -2.120   0.539   0.962  0.00  0.00    +0.028 C 
BRANCH  36  39
ATOM     38  C   UNL     1      -3.895  -2.625  -0.322  0.00  0.00    +0.005 C 
ATOM     39  C   UNL     1      -3.656  -1.387   0.545  0.00  0.00    +0.019 C 
ENDBRANCH  36  39
ENDBRANCH   1  36
TORSDOF 7
