REMARK  Name = ZINC10708184
REMARK  17 active torsions:
REMARK  status: ('A' for Active; 'I' for Inactive)
REMARK    1  A    between atoms: C_1  and  C_2
REMARK    2  A    between atoms: C_2  and  C_3
REMARK    3  A    between atoms: C_5  and  C_9
REMARK    4  A    between atoms: C_7  and  C_8
REMARK    5  A    between atoms: N_11  and  C_12
REMARK    6  A    between atoms: N_11  and  C_13
REMARK    7  A    between atoms: C_13  and  C_14
REMARK    8  A    between atoms: N_16  and  C_17
REMARK    9  A    between atoms: N_16  and  C_21
REMARK   10  A    between atoms: C_17  and  C_18
REMARK   11  A    between atoms: C_18  and  C_19
REMARK   12  A    between atoms: C_18  and  C_20
REMARK   13  A    between atoms: C_22  and  N_34
REMARK   14  A    between atoms: N_23  and  C_30
REMARK   15  A    between atoms: C_30  and  C_31
REMARK   16  A    between atoms: C_31  and  C_32
REMARK   17  A    between atoms: C_31  and  C_33
REMARK                            x       y       z     vdW  Elec       q    Type
REMARK                         _______ _______ _______ _____ _____    ______ ____
ROOT
ATOM      1  C   UNL     1       0.527  -0.792  -7.796  0.00  0.00    +0.237 C 
ATOM      2  O   UNL     1       0.789   0.124  -7.046  0.00  0.00    -0.274 OA
ATOM      3  N   UNL     1       0.220  -0.542  -9.086  0.00  0.00    -0.263 N 
ENDROOT
BRANCH   3   4
ATOM      4  C   UNL     1       0.307   0.774  -9.589  0.00  0.00    +0.140 A 
ATOM      5  C   UNL     1      -0.813   1.412 -10.081  0.00  0.00    +0.127 A 
ATOM      6  N   UNL     1      -0.697   2.695 -10.564  0.00  0.00    -0.280 N 
ATOM      7  C   UNL     1       0.495   3.319 -10.558  0.00  0.00    +0.331 A 
ATOM      8  O   UNL     1       0.577   4.453 -10.989  0.00  0.00    -0.246 OA
ATOM      9  N   UNL     1       1.597   2.713 -10.082  0.00  0.00    -0.273 N 
ATOM     10  H   UNL     1       2.444   3.185 -10.088  0.00  0.00    +0.173 HD
ATOM     11  C   UNL     1       1.536   1.459  -9.593  0.00  0.00    +0.277 A 
ATOM     12  O   UNL     1       2.541   0.920  -9.160  0.00  0.00    -0.266 OA
BRANCH   5  13
ATOM     13  N   UNL     1      -2.030   0.774 -10.088  0.00  0.00    -0.343 N 
ATOM     14  H   UNL     1      -2.122  -0.100  -9.678  0.00  0.00    +0.144 HD
ATOM     15  H   UNL     1      -2.798   1.198 -10.504  0.00  0.00    +0.144 HD
ENDBRANCH   5  13
BRANCH   6  16
ATOM     16  C   UNL     1      -1.878   3.385 -11.090  0.00  0.00    +0.131 C 
BRANCH  16  17
ATOM     17  C   UNL     1      -2.570   4.146  -9.957  0.00  0.00    +0.003 C 
ATOM     18  C   UNL     1      -1.646   5.255  -9.449  0.00  0.00    +0.009 C 
ATOM     19  C   UNL     1      -3.869   4.763 -10.478  0.00  0.00    +0.009 C 
ENDBRANCH  16  17
ENDBRANCH   6  16
ENDBRANCH   3   4
BRANCH   1  20
ATOM     20  C   UNL     1       0.544  -2.211  -7.288  0.00  0.00    +0.204 C 
BRANCH  20  23
ATOM     21  C   UNL     1       0.129  -2.113  -4.889  0.00  0.00    +0.253 C 
ATOM     22  O   UNL     1      -1.062  -2.031  -5.128  0.00  0.00    -0.269 OA
ATOM     23  N   UNL     1       1.013  -2.227  -5.900  0.00  0.00    -0.291 N 
ATOM     24  C   UNL     1       2.442  -2.365  -5.611  0.00  0.00    +0.133 C 
BRANCH  21  27
ATOM     25  C   UNL     1       0.610  -1.891  -1.172  0.00  0.00    -0.037 A 
ATOM     26  C   UNL     1      -0.114  -1.844  -2.339  0.00  0.00    +0.024 A 
ATOM     27  C   UNL     1       0.601  -2.090  -3.501  0.00  0.00    +0.075 A 
ATOM     28  S   UNL     1       2.244  -2.370  -2.869  0.00  0.00    -0.089 S 
ATOM     29  C   UNL     1       1.938  -2.161  -1.230  0.00  0.00    -0.009 A 
ATOM     30  C   UNL     1       2.915  -2.254  -0.087  0.00  0.00    +0.052 C 
BRANCH  25  32
ATOM     31  C   UNL     1       0.102  -0.167   0.537  0.00  0.00    +0.009 C 
ATOM     32  C   UNL     1      -0.060  -1.639   0.154  0.00  0.00    +0.032 C 
ENDBRANCH  25  32
ENDBRANCH  21  27
ENDBRANCH  20  23
ENDBRANCH   1  20
BRANCH   3  33
ATOM     33  C   UNL     1      -0.203  -1.635  -9.964  0.00  0.00    +0.117 C 
BRANCH  33  34
ATOM     34  C   UNL     1       1.030  -2.332 -10.543  0.00  0.00    +0.001 C 
ATOM     35  C   UNL     1       0.594  -3.561 -11.343  0.00  0.00    +0.009 C 
ATOM     36  C   UNL     1       1.779  -1.364 -11.461  0.00  0.00    +0.009 C 
ENDBRANCH  33  34
ENDBRANCH   3  33
TORSDOF 10
