REMARK  Name = ZINC09078301
REMARK  11 active torsions:
REMARK  status: ('A' for Active; 'I' for Inactive)
REMARK    1  A    between atoms: C_1  and  C_2
REMARK    2  A    between atoms: C_2  and  O_3
REMARK    3  A    between atoms: O_3  and  C_4
REMARK    4  A    between atoms: C_4  and  C_6
REMARK    5  A    between atoms: C_6  and  N_7
REMARK    6  A    between atoms: C_11  and  S_29
REMARK    7  A    between atoms: N_16  and  C_17
REMARK    8  A    between atoms: C_17  and  C_19
REMARK    9  A    between atoms: C_20  and  C_21
REMARK   10  A    between atoms: C_24  and  N_26
REMARK   11  A    between atoms: S_29  and  N_32
REMARK                            x       y       z     vdW  Elec       q    Type
REMARK                         _______ _______ _______ _____ _____    ______ ____
ROOT
ATOM      1  N   UNL     1      -2.802   1.768   2.843  0.00  0.00    -0.310 N 
ATOM      2  C   UNL     1      -2.683   1.508   4.197  0.00  0.00    +0.058 A 
ATOM      3  C   UNL     1      -2.016   2.282   5.162  0.00  0.00    +0.029 A 
ATOM      4  C   UNL     1      -1.984   1.893   6.479  0.00  0.00    +0.030 A 
ATOM      5  C   UNL     1      -2.605   0.729   6.900  0.00  0.00    +0.106 A 
ATOM      6  C   UNL     1      -3.269  -0.053   5.973  0.00  0.00    +0.045 A 
ATOM      7  C   UNL     1      -3.302   0.335   4.654  0.00  0.00    +0.041 A 
ATOM      8  S   UNL     1      -4.020  -0.352   3.182  0.00  0.00    -0.052 S 
ATOM      9  C   UNL     1      -3.493   0.912   2.037  0.00  0.00    +0.167 A 
ATOM     10  N   UNL     1      -3.715   0.997   0.732  0.00  0.00    -0.153 NA
ENDROOT
BRANCH   5  11
ATOM     11  S   UNL     1      -2.549   0.251   8.595  0.00  0.00    +0.056 S 
ATOM     12  O   UNL     1      -2.744  -1.156   8.627  0.00  0.00    -0.153 OA
ATOM     13  O   UNL     1      -1.402   0.874   9.156  0.00  0.00    -0.153 OA
BRANCH  11  14
ATOM     14  N   UNL     1      -3.866   0.927   9.338  0.00  0.00    -0.204 NA
ATOM     15  H   UNL     1      -4.275   0.484  10.098  0.00  0.00    +0.144 HD
ATOM     16  H   UNL     1      -4.228   1.767   9.013  0.00  0.00    +0.144 HD
ENDBRANCH  11  14
ENDBRANCH   5  11
BRANCH  10  17
ATOM     17  C   UNL     1      -4.426   0.044   0.109  0.00  0.00    +0.262 C 
ATOM     18  O   UNL     1      -4.869  -0.900   0.744  0.00  0.00    -0.269 OA
BRANCH  17  19
ATOM     19  C   UNL     1      -4.672   0.137  -1.330  0.00  0.00    +0.070 C 
ATOM     20  C   UNL     1      -5.800   0.730  -1.788  0.00  0.00    +0.020 C 
BRANCH  20  21
ATOM     21  C   UNL     1      -6.760   1.229  -0.872  0.00  0.00    +0.015 A 
ATOM     22  C   UNL     1      -8.127   1.404  -1.044  0.00  0.00    +0.018 A 
ATOM     23  C   UNL     1      -8.830   1.912   0.020  0.00  0.00    +0.041 A 
ATOM     24  C   UNL     1      -8.169   2.214   1.168  0.00  0.00    +0.164 A 
ATOM     25  S   UNL     1      -6.528   1.789   0.806  0.00  0.00    -0.065 S 
BRANCH  24  26
ATOM     26  N   UNL     1      -8.720   2.766   2.427  0.00  0.00    +0.063 N 
ATOM     27  O   UNL     1      -9.911   3.005   2.518  0.00  0.00    -0.126 OA
ATOM     28  O   UNL     1      -7.982   2.981   3.372  0.00  0.00    -0.126 OA
ENDBRANCH  24  26
ENDBRANCH  20  21
ENDBRANCH  17  19
ENDBRANCH  10  17
BRANCH   1  29
ATOM     29  C   UNL     1      -2.188   2.971   2.275  0.00  0.00    +0.244 C 
BRANCH  29  30
ATOM     30  C   UNL     1      -3.168   3.645   1.349  0.00  0.00    +0.327 C 
ATOM     31  O   UNL     1      -4.306   3.246   1.280  0.00  0.00    -0.249 OA
BRANCH  30  32
ATOM     32  O   UNL     1      -2.776   4.688   0.601  0.00  0.00    -0.464 OA
BRANCH  32  34
ATOM     33  C   UNL     1      -3.145   6.454  -1.035  0.00  0.00    +0.048 C 
ATOM     34  C   UNL     1      -3.773   5.288  -0.268  0.00  0.00    +0.229 C 
ENDBRANCH  32  34
ENDBRANCH  30  32
ENDBRANCH  29  30
ENDBRANCH   1  29
TORSDOF 10
