REMARK  Name = ZINC04767306
REMARK  14 active torsions:
REMARK  status: ('A' for Active; 'I' for Inactive)
REMARK    1  A    between atoms: C_1  and  C_2
REMARK    2  A    between atoms: C_7  and  C_19
REMARK    3  A    between atoms: C_9  and  C_13
REMARK    4  A    between atoms: C_10  and  C_12
REMARK    5  A    between atoms: C_13  and  O_15
REMARK    6  A    between atoms: O_15  and  C_16
REMARK    7  A    between atoms: C_16  and  C_17
REMARK    8  A    between atoms: C_16  and  C_18
REMARK    9  A    between atoms: C_21  and  O_27
REMARK   10  A    between atoms: C_22  and  O_26
REMARK   11  A    between atoms: O_27  and  C_28
REMARK   12  A    between atoms: C_31  and  C_33
REMARK   13  A    between atoms: C_33  and  O_35
REMARK   14  A    between atoms: O_35  and  C_36
REMARK                            x       y       z     vdW  Elec       q    Type
REMARK                         _______ _______ _______ _____ _____    ______ ____
ROOT
ATOM      1  C   UNL     1       3.860   2.002  -0.010  0.00  0.00    +0.009 C 
ATOM      2  C   UNL     1       2.512   1.317  -0.244  0.00  0.00    +0.013 C 
ATOM      3  C   UNL     1       2.538  -0.088   0.360  0.00  0.00    +0.055 C 
ATOM      4  C   UNL     1       1.193  -0.746   0.172  0.00  0.00    +0.016 C 
ATOM      5  C   UNL     1       0.060  -0.014   0.137  0.00  0.00    +0.025 C 
ATOM      6  C   UNL     1      -1.281  -0.678  -0.048  0.00  0.00    +0.092 C 
ATOM      7  C   UNL     1      -1.199  -2.147   0.247  0.00  0.00    +0.065 C 
ATOM      8  C   UNL     1      -0.018  -2.788   0.275  0.00  0.00    +0.016 C 
ATOM      9  N   UNL     1       1.144  -2.108   0.041  0.00  0.00    -0.321 N 
ATOM     10  C   UNL     1       0.025  -4.266   0.566  0.00  0.00    +0.061 C 
ATOM     11  C   UNL     1       0.095   1.386   0.269  0.00  0.00    +0.176 C 
ATOM     12  O   UNL     1      -0.944   2.014   0.241  0.00  0.00    -0.291 OA
ATOM     13  C   UNL     1       1.398   2.119   0.437  0.00  0.00    +0.171 C 
ATOM     14  H   UNL     1       2.046  -2.665  -0.254  0.00  0.00    +0.152 HD
ENDROOT
BRANCH   6  15
ATOM     15  C   UNL     1      -1.737  -0.486  -1.472  0.00  0.00    -0.030 A 
ATOM     16  C   UNL     1      -2.924   0.173  -1.733  0.00  0.00    +0.054 A 
ATOM     17  C   UNL     1      -3.343   0.356  -3.041  0.00  0.00    +0.163 A 
ATOM     18  C   UNL     1      -2.571  -0.134  -4.090  0.00  0.00    +0.177 A 
ATOM     19  C   UNL     1      -1.385  -0.798  -3.822  0.00  0.00    +0.086 A 
ATOM     20  C   UNL     1      -0.970  -0.973  -2.513  0.00  0.00    +0.028 A 
ATOM     21 CL   UNL     1      -0.419  -1.412  -5.128  0.00  0.00    -0.080 Cl
BRANCH  18  22
ATOM     22  O   UNL     1      -2.980   0.039  -5.376  0.00  0.00    -0.502 OA
ATOM     23  H   UNL     1      -2.369  -0.349  -6.204  0.00  0.00    +0.292 HD
ENDBRANCH  18  22
BRANCH  17  24
ATOM     24  O   UNL     1      -4.508   1.008  -3.299  0.00  0.00    -0.491 OA
ATOM     25  C   UNL     1      -5.248   1.484  -2.172  0.00  0.00    +0.277 C 
ENDBRANCH  17  24
ENDBRANCH   6  15
BRANCH   7  26
ATOM     26  C   UNL     1      -2.388  -2.871   0.500  0.00  0.00    +0.338 C 
ATOM     27  O   UNL     1      -2.966  -2.740   1.563  0.00  0.00    -0.245 OA
BRANCH  26  28
ATOM     28  O   UNL     1      -2.881  -3.708  -0.438  0.00  0.00    -0.459 OA
BRANCH  28  29
ATOM     29  C   UNL     1      -4.085  -4.407  -0.115  0.00  0.00    +0.171 C 
ATOM     30  C   UNL     1      -4.879  -4.673  -1.395  0.00  0.00    +0.052 C 
ATOM     31  C   UNL     1      -3.737  -5.737   0.556  0.00  0.00    +0.052 C 
ENDBRANCH  28  29
ENDBRANCH  26  28
ENDBRANCH   7  26
BRANCH  13  32
ATOM     32  C   UNL     1       1.296   3.482  -0.199  0.00  0.00    +0.318 C 
ATOM     33  O   UNL     1       2.043   3.786  -1.098  0.00  0.00    -0.250 OA
BRANCH  32  34
ATOM     34  O   UNL     1       0.374   4.356   0.233  0.00  0.00    -0.467 OA
ATOM     35  C   UNL     1       0.333   5.650  -0.426  0.00  0.00    +0.280 C 
ENDBRANCH  32  34
ENDBRANCH  13  32
TORSDOF 8
