REMARK  Name = ZINC13077561
REMARK  13 active torsions:
REMARK  status: ('A' for Active; 'I' for Inactive)
REMARK    1  A    between atoms: C_1  and  C_2
REMARK    2  A    between atoms: C_2  and  C_3
REMARK    3  A    between atoms: C_3  and  O_4
REMARK    4  A    between atoms: O_4  and  C_5
REMARK    5  A    between atoms: C_6  and  O_34
REMARK    6  A    between atoms: C_8  and  C_12
REMARK    7  A    between atoms: C_15  and  C_22
REMARK    8  A    between atoms: C_25  and  O_28
REMARK    9  A    between atoms: O_28  and  C_29
REMARK   10  A    between atoms: C_29  and  C_31
REMARK   11  A    between atoms: C_29  and  C_32
REMARK   12  A    between atoms: O_34  and  C_35
REMARK   13  A    between atoms: C_35  and  C_36
REMARK                            x       y       z     vdW  Elec       q    Type
REMARK                         _______ _______ _______ _____ _____    ______ ____
ROOT
ATOM      1  C   UNL     1       3.239   3.488  -7.476  0.00  0.00    +0.167 C 
ATOM      2  C   UNL     1       2.753   3.175  -6.087  0.00  0.00    +0.028 C 
ATOM      3  C   UNL     1       3.499   3.329  -5.001  0.00  0.00    +0.039 C 
ATOM      4  N   UNL     1       4.813   3.814  -5.064  0.00  0.00    -0.282 N 
ATOM      5  C   UNL     1       5.228   4.361  -6.267  0.00  0.00    +0.240 A 
ATOM      6  N   UNL     1       4.495   4.224  -7.403  0.00  0.00    -0.202 N 
ATOM      7  N   UNL     1       5.204   4.910  -8.388  0.00  0.00    -0.042 NA
ATOM      8  N   UNL     1       6.263   5.386  -7.816  0.00  0.00    -0.021 NA
ATOM      9  N   UNL     1       6.282   5.064  -6.567  0.00  0.00    -0.092 NA
ATOM     10  H   UNL     1       5.408   3.765  -4.299  0.00  0.00    +0.155 HD
ENDROOT
BRANCH   1  14
ATOM     11  C   UNL     1       3.855  -0.161  -9.622  0.00  0.00    +0.180 A 
ATOM     12  C   UNL     1       2.944   0.779 -10.094  0.00  0.00    +0.164 A 
ATOM     13  C   UNL     1       2.747   1.960  -9.396  0.00  0.00    +0.055 A 
ATOM     14  C   UNL     1       3.455   2.203  -8.233  0.00  0.00    -0.014 A 
ATOM     15  C   UNL     1       4.364   1.272  -7.767  0.00  0.00    +0.030 A 
ATOM     16  C   UNL     1       4.562   0.088  -8.456  0.00  0.00    +0.087 A 
ATOM     17 CL   UNL     1       5.699  -1.082  -7.863  0.00  0.00    -0.080 Cl
BRANCH  11  18
ATOM     18  O   UNL     1       4.053  -1.321 -10.304  0.00  0.00    -0.487 OA
BRANCH  18  19
ATOM     19  C   UNL     1       5.070  -1.319 -11.307  0.00  0.00    +0.229 C 
BRANCH  19  21
ATOM     20  C   UNL     1       6.235  -2.698 -13.035  0.00  0.00    +0.007 C 
ATOM     21  C   UNL     1       5.145  -2.700 -11.961  0.00  0.00    +0.038 C 
ENDBRANCH  19  21
ENDBRANCH  18  19
ENDBRANCH  11  18
BRANCH  12  22
ATOM     22  O   UNL     1       2.248   0.539 -11.237  0.00  0.00    -0.489 OA
BRANCH  22  23
ATOM     23  C   UNL     1       1.330   1.548 -11.662  0.00  0.00    +0.226 C 
ATOM     24  C   UNL     1       0.646   1.104 -12.956  0.00  0.00    +0.048 C 
ENDBRANCH  22  23
ENDBRANCH  12  22
ENDBRANCH   1  14
BRANCH   3  25
ATOM     25  C   UNL     1       2.924   2.985  -3.681  0.00  0.00    -0.004 A 
ATOM     26  C   UNL     1       3.689   3.138  -2.524  0.00  0.00    +0.013 A 
ATOM     27  C   UNL     1       3.150   2.815  -1.296  0.00  0.00    +0.046 A 
ATOM     28  C   UNL     1       1.849   2.338  -1.211  0.00  0.00    +0.122 A 
ATOM     29  C   UNL     1       1.087   2.179  -2.361  0.00  0.00    +0.046 A 
ATOM     30  C   UNL     1       1.617   2.505  -3.591  0.00  0.00    +0.013 A 
BRANCH  28  31
ATOM     31  O   UNL     1       1.322   2.020   0.000  0.00  0.00    -0.478 OA
BRANCH  31  32
ATOM     32  C   UNL     1       2.198   2.087   1.127  0.00  0.00    +0.282 C 
ATOM     33  C   UNL     1       2.242   3.523   1.654  0.00  0.00    +0.064 C 
BRANCH  32  34
ATOM     34  C   UNL     1       1.695   1.169   2.211  0.00  0.00    +0.395 C 
ATOM     35  O   UNL     1       0.642   0.593   2.073  0.00  0.00    -0.242 OA
ATOM     36  O   UNL     1       2.416   0.992   3.329  0.00  0.00    -0.242 OA
ENDBRANCH  32  34
ENDBRANCH  31  32
ENDBRANCH  28  31
ENDBRANCH   3  25
TORSDOF 10
