REMARK  Name = ZINC35824138
REMARK  14 active torsions:
REMARK  status: ('A' for Active; 'I' for Inactive)
REMARK    1  A    between atoms: C_1  and  C_2
REMARK    2  A    between atoms: C_5  and  C_7
REMARK    3  A    between atoms: C_12  and  C_17
REMARK    4  A    between atoms: C_20  and  O_25
REMARK    5  A    between atoms: C_21  and  O_23
REMARK    6  A    between atoms: O_23  and  C_24
REMARK    7  A    between atoms: O_25  and  C_26
REMARK    8  A    between atoms: C_26  and  C_27
REMARK    9  A    between atoms: C_26  and  C_28
REMARK   10  A    between atoms: C_30  and  C_42
REMARK   11  A    between atoms: C_31  and  C_32
REMARK   12  A    between atoms: C_32  and  O_34
REMARK   13  A    between atoms: O_34  and  C_35
REMARK   14  A    between atoms: C_35  and  C_36
REMARK                            x       y       z     vdW  Elec       q    Type
REMARK                         _______ _______ _______ _____ _____    ______ ____
ROOT
ATOM      1  C   UNL     1       0.513  -3.830  -0.982  0.00  0.00    +0.128 C 
ATOM      2  C   UNL     1       1.533  -3.690  -2.083  0.00  0.00    +0.027 C 
ATOM      3  C   UNL     1       2.805  -3.334  -1.805  0.00  0.00    +0.016 C 
ATOM      4  C   UNL     1       3.832  -3.195  -2.901  0.00  0.00    +0.059 C 
ATOM      5  C   UNL     1       3.144  -2.755  -4.196  0.00  0.00    +0.032 C 
ATOM      6  C   UNL     1       2.079  -3.796  -4.557  0.00  0.00    +0.088 C 
ATOM      7  C   UNL     1       1.122  -3.937  -3.405  0.00  0.00    +0.162 C 
ATOM      8  O   UNL     1      -0.026  -4.270  -3.620  0.00  0.00    -0.292 OA
ATOM      9  N   UNL     1       3.193  -3.095  -0.513  0.00  0.00    -0.321 N 
ATOM     10  C   UNL     1       2.461  -3.580   0.534  0.00  0.00    +0.016 C 
ATOM     11  C   UNL     1       1.181  -3.947   0.357  0.00  0.00    +0.068 C 
ATOM     12  C   UNL     1       3.094  -3.705   1.896  0.00  0.00    +0.061 C 
ATOM     13  H   UNL     1       3.994  -2.577  -0.340  0.00  0.00    +0.152 HD
ENDROOT
BRANCH   1  18
ATOM     14  C   UNL     1      -1.035   0.962  -0.695  0.00  0.00    +0.086 C 
ATOM     15  C   UNL     1      -1.058  -0.536  -0.857  0.00  0.00    +0.102 A 
ATOM     16  C   UNL     1      -2.150  -1.285  -1.092  0.00  0.00    +0.044 A 
ATOM     17  C   UNL     1      -1.716  -2.628  -1.173  0.00  0.00    +0.046 A 
ATOM     18  C   UNL     1      -0.385  -2.620  -0.982  0.00  0.00    +0.117 A 
ATOM     19  O   UNL     1       0.009  -1.349  -0.797  0.00  0.00    -0.464 OA
ENDBRANCH   1  18
BRANCH   5  20
ATOM     20  C   UNL     1       4.162  -2.661  -5.303  0.00  0.00    -0.040 A 
ATOM     21  C   UNL     1       4.880  -3.782  -5.677  0.00  0.00    +0.008 A 
ATOM     22  C   UNL     1       5.815  -3.701  -6.692  0.00  0.00    +0.050 A 
ATOM     23  C   UNL     1       6.034  -2.494  -7.338  0.00  0.00    +0.162 A 
ATOM     24  C   UNL     1       5.311  -1.366  -6.962  0.00  0.00    +0.162 A 
ATOM     25  C   UNL     1       4.372  -1.456  -5.947  0.00  0.00    +0.053 A 
BRANCH  24  26
ATOM     26  O   UNL     1       5.522  -0.180  -7.592  0.00  0.00    -0.491 OA
ATOM     27  C   UNL     1       4.744   0.935  -7.153  0.00  0.00    +0.277 C 
ENDBRANCH  24  26
BRANCH  23  28
ATOM     28  O   UNL     1       6.954  -2.412  -8.336  0.00  0.00    -0.486 OA
BRANCH  28  29
ATOM     29  C   UNL     1       7.743  -3.577  -8.588  0.00  0.00    +0.167 C 
ATOM     30  C   UNL     1       6.981  -4.515  -9.526  0.00  0.00    +0.051 C 
ATOM     31  C   UNL     1       9.064  -3.166  -9.241  0.00  0.00    +0.051 C 
ENDBRANCH  28  29
ENDBRANCH  23  28
ENDBRANCH   5  20
BRANCH  11  32
ATOM     32  C   UNL     1       0.448  -4.454   1.456  0.00  0.00    +0.338 C 
ATOM     33  O   UNL     1       0.978  -4.554   2.546  0.00  0.00    -0.245 OA
BRANCH  32  34
ATOM     34  O   UNL     1      -0.839  -4.827   1.294  0.00  0.00    -0.459 OA
BRANCH  34  35
ATOM     35  C   UNL     1      -1.518  -5.330   2.446  0.00  0.00    +0.264 C 
BRANCH  35  36
ATOM     36  C   UNL     1      -2.955  -5.697   2.070  0.00  0.00    +0.156 C 
ATOM     37  C   UNL     1      -3.733  -6.128   3.333  0.00  0.00    +0.037 C 
ATOM     38  C   UNL     1      -4.591  -7.310   2.805  0.00  0.00    +0.031 C 
ATOM     39  C   UNL     1      -3.629  -7.927   1.758  0.00  0.00    +0.160 C 
ATOM     40  O   UNL     1      -2.952  -6.806   1.163  0.00  0.00    -0.373 OA
ENDBRANCH  35  36
ENDBRANCH  34  35
ENDBRANCH  32  34
ENDBRANCH  11  32
TORSDOF 9
