REMARK  Name = ZINC21222402
REMARK  11 active torsions:
REMARK  status: ('A' for Active; 'I' for Inactive)
REMARK    1  A    between atoms: C_1  and  C_2
REMARK    2  A    between atoms: C_2  and  O_3
REMARK    3  A    between atoms: O_3  and  C_4
REMARK    4  A    between atoms: C_7  and  C_10
REMARK    5  A    between atoms: C_15  and  C_25
REMARK    6  A    between atoms: C_28  and  O_35
REMARK    7  A    between atoms: C_29  and  O_33
REMARK    8  A    between atoms: C_30  and  O_31
REMARK    9  A    between atoms: O_31  and  C_32
REMARK   10  A    between atoms: O_33  and  C_34
REMARK   11  A    between atoms: O_35  and  C_36
REMARK                            x       y       z     vdW  Elec       q    Type
REMARK                         _______ _______ _______ _____ _____    ______ ____
ROOT
ATOM      1  C   UNL     1      -1.794  -6.105   0.432  0.00  0.00    +0.032 C 
ATOM      2  C   UNL     1      -1.213  -6.591  -0.895  0.00  0.00    +0.059 C 
ATOM      3  C   UNL     1      -1.449  -8.084  -1.048  0.00  0.00    +0.017 C 
ATOM      4  C   UNL     1      -1.466  -8.885   0.031  0.00  0.00    +0.037 C 
ATOM      5  C   UNL     1      -1.684 -10.379   0.022  0.00  0.00    +0.140 C 
ATOM      6  N   UNL     1      -1.624 -10.987  -1.290  0.00  0.00    -0.331 N 
ATOM      7  C   UNL     1      -2.567 -10.678  -2.269  0.00  0.00    +0.049 A 
ATOM      8  C   UNL     1      -3.488 -11.615  -2.708  0.00  0.00    +0.025 A 
ATOM      9  C   UNL     1      -4.477 -11.232  -3.597  0.00  0.00    +0.002 A 
ATOM     10  C   UNL     1      -4.546  -9.926  -4.047  0.00  0.00    +0.002 A 
ATOM     11  C   UNL     1      -3.614  -8.992  -3.627  0.00  0.00    +0.025 A 
ATOM     12  C   UNL     1      -2.614  -9.378  -2.751  0.00  0.00    +0.052 A 
ATOM     13  N   UNL     1      -1.619  -8.506  -2.327  0.00  0.00    -0.316 N 
ATOM     14  C   UNL     1      -1.282  -8.342   1.324  0.00  0.00    +0.163 C 
ATOM     15  O   UNL     1      -1.277  -9.093   2.280  0.00  0.00    -0.292 OA
ATOM     16  C   UNL     1      -1.093  -6.873   1.558  0.00  0.00    +0.088 C 
ATOM     17  H   UNL     1      -0.826 -11.706  -1.527  0.00  0.00    +0.147 HD
ATOM     18  H   UNL     1      -0.939  -8.154  -3.117  0.00  0.00    +0.152 HD
ENDROOT
BRANCH   1  22
ATOM     19  C   UNL     1      -1.084  -1.914   0.876  0.00  0.00    +0.121 A 
ATOM     20  C   UNL     1      -0.017  -2.789   0.737  0.00  0.00    +0.046 A 
ATOM     21  C   UNL     1      -0.249  -4.144   0.599  0.00  0.00    +0.007 A 
ATOM     22  C   UNL     1      -1.544  -4.627   0.588  0.00  0.00    -0.043 A 
ATOM     23  C   UNL     1      -2.610  -3.757   0.721  0.00  0.00    +0.007 A 
ATOM     24  C   UNL     1      -2.383  -2.402   0.865  0.00  0.00    +0.046 A 
BRANCH  19  25
ATOM     25  O   UNL     1      -0.859  -0.582   1.017  0.00  0.00    -0.492 OA
BRANCH  25  27
ATOM     26  C   UNL     1       0.558   1.369   1.188  0.00  0.00    +0.048 C 
ATOM     27  C   UNL     1       0.504  -0.151   1.020  0.00  0.00    +0.225 C 
ENDBRANCH  25  27
ENDBRANCH  19  25
ENDBRANCH   1  22
BRANCH   5  28
ATOM     28  C   UNL     1      -3.038 -10.665   0.619  0.00  0.00    +0.023 A 
ATOM     29  C   UNL     1      -4.005  -9.677   0.642  0.00  0.00    +0.013 A 
ATOM     30  C   UNL     1      -5.248  -9.934   1.189  0.00  0.00    +0.050 A 
ATOM     31  C   UNL     1      -5.530 -11.185   1.716  0.00  0.00    +0.165 A 
ATOM     32  C   UNL     1      -4.562 -12.181   1.694  0.00  0.00    +0.204 A 
ATOM     33  C   UNL     1      -3.314 -11.920   1.139  0.00  0.00    +0.170 A 
BRANCH  33  34
ATOM     34  O   UNL     1      -2.365 -12.893   1.111  0.00  0.00    -0.491 OA
ATOM     35  C   UNL     1      -1.565 -13.053   2.285  0.00  0.00    +0.277 C 
ENDBRANCH  33  34
BRANCH  32  36
ATOM     36  O   UNL     1      -4.835 -13.410   2.211  0.00  0.00    -0.488 OA
ATOM     37  C   UNL     1      -5.386 -14.380   1.319  0.00  0.00    +0.277 C 
ENDBRANCH  32  36
BRANCH  31  38
ATOM     38  O   UNL     1      -6.754 -11.437   2.254  0.00  0.00    -0.491 OA
ATOM     39  C   UNL     1      -7.700 -10.366   2.243  0.00  0.00    +0.277 C 
ENDBRANCH  31  38
ENDBRANCH   5  28
TORSDOF 7
