REMARK  Name = ZINC46727848
REMARK  7 active torsions:
REMARK  status: ('A' for Active; 'I' for Inactive)
REMARK    1  A    between atoms: C_1  and  C_2
REMARK    2  A    between atoms: C_2  and  C_3
REMARK    3  A    between atoms: C_10  and  C_14
REMARK    4  A    between atoms: C_18  and  N_20
REMARK    5  A    between atoms: N_23  and  C_24
REMARK    6  A    between atoms: C_24  and  C_25
REMARK    7  A    between atoms: C_24  and  C_26
REMARK                            x       y       z     vdW  Elec       q    Type
REMARK                         _______ _______ _______ _____ _____    ______ ____
ROOT
ATOM      1  C   UNL     1       4.139  -2.765   6.045  0.00  0.00    +0.019 A 
ATOM      2  C   UNL     1       3.846  -2.962   7.396  0.00  0.00    +0.011 A 
ATOM      3  C   UNL     1       4.863  -3.220   8.292  0.00  0.00    +0.002 A 
ATOM      4  C   UNL     1       6.174  -3.284   7.857  0.00  0.00    +0.023 A 
ATOM      5  C   UNL     1       6.476  -3.089   6.515  0.00  0.00    +0.035 A 
ATOM      6  C   UNL     1       5.461  -2.836   5.605  0.00  0.00    +0.035 A 
ENDROOT
BRANCH   1  14
ATOM      7  C   UNL     1       0.608  -1.541   0.956  0.00  0.00    -0.008 A 
ATOM      8  C   UNL     1       0.117  -1.693   2.197  0.00  0.00    +0.026 A 
ATOM      9  C   UNL     1       1.029  -1.972   3.290  0.00  0.00    +0.072 A 
ATOM     10  C   UNL     1       0.744  -2.171   4.680  0.00  0.00    +0.260 A 
ATOM     11  O   UNL     1      -0.402  -2.115   5.090  0.00  0.00    -0.267 OA
ATOM     12  N   UNL     1       1.760  -2.421   5.527  0.00  0.00    -0.306 N 
ATOM     13  H   UNL     1       1.572  -2.557   6.469  0.00  0.00    +0.170 HD
ATOM     14  C   UNL     1       3.052  -2.488   5.083  0.00  0.00    +0.142 A 
ATOM     15  N   UNL     1       3.340  -2.309   3.812  0.00  0.00    -0.222 NA
ATOM     16  C   UNL     1       2.386  -2.059   2.924  0.00  0.00    +0.116 A 
ATOM     17  S   UNL     1       2.362  -1.774   1.173  0.00  0.00    -0.073 S 
BRANCH   7  19
ATOM     18  C   UNL     1      -0.241   0.263  -0.518  0.00  0.00    +0.009 C 
ATOM     19  C   UNL     1      -0.145  -1.251  -0.317  0.00  0.00    +0.039 C 
ENDBRANCH   7  19
ENDBRANCH   1  14
BRANCH   5  20
ATOM     20  N   UNL     1       7.805  -3.155   6.080  0.00  0.00    -0.269 N 
ATOM     21  C   UNL     1       8.220  -2.374   5.062  0.00  0.00    +0.304 C 
ATOM     22  O   UNL     1       7.469  -1.546   4.586  0.00  0.00    -0.253 OA
ATOM     23  N   UNL     1       9.468  -2.513   4.573  0.00  0.00    -0.297 N 
ATOM     24  H   UNL     1       8.427  -3.762   6.511  0.00  0.00    +0.156 HD
ATOM     25  H   UNL     1      10.068  -3.174   4.953  0.00  0.00    +0.151 HD
BRANCH  23  26
ATOM     26  C   UNL     1       9.919  -1.665   3.467  0.00  0.00    +0.068 C 
ATOM     27  C   UNL     1      10.442  -0.339   4.022  0.00  0.00    +0.027 C 
ATOM     28  C   UNL     1      11.039  -2.375   2.704  0.00  0.00    +0.027 C 
ENDBRANCH  23  26
ENDBRANCH   5  20
TORSDOF 4
