REMARK  Name = ZINC67644212
REMARK  8 active torsions:
REMARK  status: ('A' for Active; 'I' for Inactive)
REMARK    1  A    between atoms: C_4  and  O_13
REMARK    2  A    between atoms: C_5  and  O_7
REMARK    3  A    between atoms: O_7  and  C_8
REMARK    4  A    between atoms: C_8  and  C_9
REMARK    5  A    between atoms: O_13  and  C_14
REMARK    6  A    between atoms: C_14  and  C_16
REMARK    7  A    between atoms: C_19  and  N_25
REMARK    8  A    between atoms: C_20  and  N_22
REMARK                            x       y       z     vdW  Elec       q    Type
REMARK                         _______ _______ _______ _____ _____    ______ ____
ROOT
ATOM      1  C   UNL     1       4.642  -0.058  -0.643  0.00  0.00    +0.345 C 
ATOM      2  O   UNL     1       4.516   1.113  -0.944  0.00  0.00    -0.245 OA
ENDROOT
BRANCH   1   3
ATOM      3  C   UNL     1       5.987  -0.645  -0.518  0.00  0.00    +0.062 A 
ATOM      4  C   UNL     1       6.134  -1.994  -0.178  0.00  0.00    +0.017 A 
ATOM      5  C   UNL     1       7.382  -2.538  -0.062  0.00  0.00    +0.026 A 
ATOM      6  C   UNL     1       8.511  -1.754  -0.282  0.00  0.00    +0.055 A 
ATOM      7  C   UNL     1       8.375  -0.411  -0.622  0.00  0.00    +0.147 A 
ATOM      8  C   UNL     1       7.120   0.142  -0.746  0.00  0.00    +0.049 A 
BRANCH   7   9
ATOM      9  N   UNL     1       9.577   0.420  -0.855  0.00  0.00    +0.058 N 
ATOM     10  O   UNL     1       9.593   1.574  -0.496  0.00  0.00    -0.126 OA
ATOM     11  O   UNL     1      10.544  -0.056  -1.404  0.00  0.00    -0.126 OA
ENDBRANCH   7   9
BRANCH   6  12
ATOM     12  N   UNL     1       9.778  -2.314  -0.163  0.00  0.00    -0.356 N 
ATOM     13  H   UNL     1       9.877  -3.274  -0.066  0.00  0.00    +0.142 HD
ATOM     14  H   UNL     1      10.563  -1.745  -0.177  0.00  0.00    +0.142 HD
ENDBRANCH   6  12
ENDBRANCH   1   3
BRANCH   1  15
ATOM     15  O   UNL     1       3.551  -0.818  -0.422  0.00  0.00    -0.419 OA
BRANCH  15  19
ATOM     16  C   UNL     1      -0.156   0.863  -1.119  0.00  0.00    +0.004 A 
ATOM     17  C   UNL     1       0.353   0.815   0.166  0.00  0.00    +0.004 A 
ATOM     18  C   UNL     1       1.593   0.253   0.401  0.00  0.00    +0.050 A 
ATOM     19  C   UNL     1       2.330  -0.265  -0.652  0.00  0.00    +0.173 A 
ATOM     20  C   UNL     1       1.819  -0.217  -1.945  0.00  0.00    +0.163 A 
ATOM     21  C   UNL     1       0.574   0.348  -2.174  0.00  0.00    +0.049 A 
BRANCH  20  22
ATOM     22  O   UNL     1       2.538  -0.723  -2.982  0.00  0.00    -0.479 OA
BRANCH  22  23
ATOM     23  C   UNL     1       1.950  -0.640  -4.282  0.00  0.00    +0.342 C 
BRANCH  23  24
ATOM     24  C   UNL     1       2.898  -1.256  -5.312  0.00  0.00    +0.424 C 
ATOM     25  F   UNL     1       3.128  -2.598  -4.989  0.00  0.00    -0.167 F 
ATOM     26  F   UNL     1       2.322  -1.174  -6.584  0.00  0.00    -0.167 F 
ATOM     27  F   UNL     1       4.112  -0.559  -5.303  0.00  0.00    -0.167 F 
ENDBRANCH  23  24
ENDBRANCH  22  23
ENDBRANCH  20  22
ENDBRANCH  15  19
ENDBRANCH   1  15
TORSDOF 8
