REMARK  Name = ZINC53627426
REMARK  7 active torsions:
REMARK  status: ('A' for Active; 'I' for Inactive)
REMARK    1  A    between atoms: C_1  and  C_2
REMARK    2  A    between atoms: C_13  and  C_15
REMARK    3  A    between atoms: C_15  and  C_16
REMARK    4  A    between atoms: C_16  and  C_17
REMARK    5  A    between atoms: N_19  and  C_20
REMARK    6  A    between atoms: C_20  and  C_21
REMARK    7  A    between atoms: C_21  and  C_22
REMARK                            x       y       z     vdW  Elec       q    Type
REMARK                         _______ _______ _______ _____ _____    ______ ____
ROOT
ATOM      1  C   UNL     1      -0.019   1.526   0.010  0.00  0.00    +0.013 C 
ATOM      2  C   UNL     1       0.002  -0.004   0.002  0.00  0.00    +0.033 C 
ATOM      3  C   UNL     1       0.705  -0.489  -1.242  0.00  0.00    -0.001 A 
ATOM      4  C   UNL     1      -0.001  -0.507  -2.417  0.00  0.00    +0.019 A 
ATOM      5  C   UNL     1       0.606  -0.939  -3.594  0.00  0.00    +0.024 A 
ATOM      6  C   UNL     1       1.948  -1.360  -3.579  0.00  0.00    +0.139 A 
ATOM      7  C   UNL     1       2.649  -1.339  -2.383  0.00  0.00    +0.093 A 
ATOM      8  C   UNL     1       2.029  -0.907  -1.218  0.00  0.00    +0.139 A 
ATOM      9  O   UNL     1       2.755  -0.920  -0.066  0.00  0.00    -0.425 OA
ATOM     10  C   UNL     1       2.222  -0.312   1.013  0.00  0.00    +0.316 C 
ATOM     11  O   UNL     1       2.896   0.359   1.758  0.00  0.00    -0.250 OA
ATOM     12  C   UNL     1       0.740  -0.510   1.245  0.00  0.00    +0.106 C 
ATOM     13  O   UNL     1       2.273  -1.719  -4.839  0.00  0.00    -0.459 OA
ATOM     14  C   UNL     1       1.228  -1.558  -5.668  0.00  0.00    +0.109 A 
ATOM     15  C   UNL     1       0.174  -1.085  -4.983  0.00  0.00    +0.001 A 
ATOM     16  C   UNL     1      -1.174  -0.778  -5.579  0.00  0.00    +0.039 C 
ATOM     17  C   UNL     1      -1.024  -0.700  -7.104  0.00  0.00    +0.005 C 
ATOM     18  C   UNL     1      -0.266  -1.934  -7.601  0.00  0.00    +0.008 C 
ATOM     19  C   UNL     1       1.197  -1.852  -7.151  0.00  0.00    +0.075 C 
ENDROOT
BRANCH  12  20
ATOM     20  C   UNL     1       0.441  -1.995   1.458  0.00  0.00    +0.024 C 
BRANCH  20  21
ATOM     21  C   UNL     1       1.079  -2.461   2.768  0.00  0.00    +0.096 C 
BRANCH  21  22
ATOM     22  C   UNL     1       0.784  -3.925   2.977  0.00  0.00    +0.213 C 
ATOM     23  O   UNL     1       0.129  -4.534   2.159  0.00  0.00    -0.276 OA
ATOM     24  N   UNL     1       1.250  -4.555   4.074  0.00  0.00    -0.315 N 
ATOM     25  H   UNL     1       1.774  -4.068   4.728  0.00  0.00    +0.149 HD
BRANCH  24  26
ATOM     26  C   UNL     1       0.964  -5.978   4.277  0.00  0.00    +0.110 C 
BRANCH  26  27
ATOM     27  C   UNL     1       1.602  -6.444   5.587  0.00  0.00    +0.073 C 
BRANCH  27  28
ATOM     28  C   UNL     1       1.307  -7.907   5.797  0.00  0.00    +0.035 A 
ATOM     29  N   UNL     1       2.113  -8.959   5.453  0.00  0.00    -0.350 N 
ATOM     30  C   UNL     1       1.471 -10.089   5.817  0.00  0.00    +0.171 A 
ATOM     31  N   UNL     1       0.328  -9.766   6.357  0.00  0.00    -0.352 N 
ATOM     32  C   UNL     1       0.204  -8.431   6.363  0.00  0.00    +0.105 A 
ATOM     33  H   UNL     1       2.983  -8.902   5.028  0.00  0.00    +0.166 HD
ATOM     34  H   UNL     1      -0.326 -10.393   6.704  0.00  0.00    +0.166 HD
ENDBRANCH  27  28
ENDBRANCH  26  27
ENDBRANCH  24  26
ENDBRANCH  21  22
ENDBRANCH  20  21
ENDBRANCH  12  20
TORSDOF 6
