REMARK  Name = ZINC65228031
REMARK  6 active torsions:
REMARK  status: ('A' for Active; 'I' for Inactive)
REMARK    1  A    between atoms: C_1  and  C_2
REMARK    2  A    between atoms: C_2  and  C_4
REMARK    3  A    between atoms: C_2  and  N_11
REMARK    4  A    between atoms: C_12  and  C_14
REMARK    5  A    between atoms: C_22  and  C_27
REMARK    6  A    between atoms: C_29  and  C_32
REMARK                            x       y       z     vdW  Elec       q    Type
REMARK                         _______ _______ _______ _____ _____    ______ ____
ROOT
ATOM      1  C   UNL     1       2.775  -1.122   2.369  0.00  0.00    +0.092 C 
ATOM      2  C   UNL     1       2.494  -0.174   3.537  0.00  0.00    +0.016 C 
ATOM      3  C   UNL     1       3.211  -0.681   4.791  0.00  0.00    +0.020 C 
ATOM      4  C   UNL     1       4.721  -0.703   4.537  0.00  0.00    +0.106 C 
ATOM      5  N   UNL     1       4.987  -1.495   3.329  0.00  0.00    -0.315 N 
ATOM      6  C   UNL     1       4.280  -1.150   2.088  0.00  0.00    +0.119 C 
ATOM      7  C   UNL     1       5.887  -2.549   3.359  0.00  0.00    +0.110 A 
ATOM      8  C   UNL     1       7.224  -2.335   2.993  0.00  0.00    +0.060 A 
ATOM      9  C   UNL     1       8.113  -3.409   3.031  0.00  0.00    +0.016 A 
ATOM     10  C   UNL     1       7.634  -4.647   3.430  0.00  0.00    +0.018 A 
ATOM     11  C   UNL     1       6.303  -4.782   3.776  0.00  0.00    +0.084 A 
ATOM     12  N   UNL     1       5.481  -3.750   3.738  0.00  0.00    -0.349 N 
ATOM     13  H   UNL     1       4.553  -3.877   3.991  0.00  0.00    +0.167 HD
ENDROOT
BRANCH   8  14
ATOM     14  C   UNL     1       7.684  -0.990   2.573  0.00  0.00    +0.205 A 
ATOM     15  N   UNL     1       8.906  -0.691   2.097  0.00  0.00    -0.191 NA
ATOM     16  C   UNL     1       8.981   0.580   1.823  0.00  0.00    +0.231 A 
ATOM     17  O   UNL     1       7.803   1.147   2.115  0.00  0.00    -0.337 OA
ATOM     18  N   UNL     1       6.966   0.107   2.599  0.00  0.00    -0.056 NA
BRANCH  16  19
ATOM     19  C   UNL     1      10.188   1.293   1.272  0.00  0.00    +0.078 C 
ATOM     20  C   UNL     1      10.388   2.704   1.849  0.00  0.00    +0.013 C 
ATOM     21  C   UNL     1      10.786   3.143   0.430  0.00  0.00    +0.001 C 
ATOM     22  C   UNL     1       9.937   1.970  -0.086  0.00  0.00    +0.013 C 
ENDBRANCH  16  19
ENDBRANCH   8  14
BRANCH   1  24
ATOM     23  N   UNL     1       0.700  -0.533   1.158  0.00  0.00    -0.308 N 
ATOM     24  C   UNL     1       2.043  -0.640   1.143  0.00  0.00    +0.218 C 
ATOM     25  O   UNL     1       2.663  -0.348   0.142  0.00  0.00    -0.275 OA
ATOM     26  H   UNL     1       0.204  -0.767   1.959  0.00  0.00    +0.149 HD
BRANCH  23  28
ATOM     27  C   UNL     1      -0.037   1.465  -0.044  0.00  0.00    +0.033 C 
ATOM     28  C   UNL     1      -0.012  -0.065  -0.034  0.00  0.00    +0.100 C 
BRANCH  28  29
ATOM     29  C   UNL     1      -1.424  -0.590  -0.015  0.00  0.00    -0.027 A 
ATOM     30  C   UNL     1      -2.133  -0.622   1.172  0.00  0.00    +0.008 A 
ATOM     31  C   UNL     1      -3.429  -1.103   1.190  0.00  0.00    +0.038 A 
ATOM     32  C   UNL     1      -4.016  -1.553   0.020  0.00  0.00    +0.123 A 
ATOM     33  C   UNL     1      -3.305  -1.520  -1.167  0.00  0.00    +0.038 A 
ATOM     34  C   UNL     1      -2.012  -1.034  -1.185  0.00  0.00    +0.008 A 
ATOM     35  F   UNL     1      -5.283  -2.024   0.037  0.00  0.00    -0.205 F 
ENDBRANCH  28  29
ENDBRANCH  23  28
ENDBRANCH   1  24
TORSDOF 5
