REMARK  Name = ZINC22699382
REMARK  5 active torsions:
REMARK  status: ('A' for Active; 'I' for Inactive)
REMARK    1  A    between atoms: C_4  and  N_21
REMARK    2  A    between atoms: C_5  and  C_7
REMARK    3  A    between atoms: C_12  and  C_15
REMARK    4  A    between atoms: N_21  and  S_22
REMARK    5  A    between atoms: S_22  and  C_25
REMARK                            x       y       z     vdW  Elec       q    Type
REMARK                         _______ _______ _______ _____ _____    ______ ____
ROOT
ATOM      1  C   UNL     1       1.711   4.705  -4.092  0.00  0.00    +0.001 A 
ATOM      2  C   UNL     1       1.907   5.108  -2.780  0.00  0.00    +0.002 A 
ATOM      3  C   UNL     1       2.762   4.407  -1.954  0.00  0.00    +0.025 A 
ATOM      4  C   UNL     1       3.434   3.290  -2.435  0.00  0.00    +0.060 A 
ATOM      5  C   UNL     1       3.242   2.883  -3.764  0.00  0.00    +0.059 A 
ATOM      6  C   UNL     1       2.369   3.600  -4.587  0.00  0.00    +0.015 A 
ENDROOT
BRANCH   5   7
ATOM      7  C   UNL     1       3.954   1.704  -4.289  0.00  0.00    +0.252 C 
ATOM      8  O   UNL     1       4.709   1.079  -3.569  0.00  0.00    -0.270 OA
ATOM      9  N   UNL     1       3.767   1.317  -5.566  0.00  0.00    -0.261 N 
ATOM     10  C   UNL     1       4.436   0.205  -6.060  0.00  0.00    +0.165 A 
ATOM     11  N   UNL     1       4.390  -0.329  -7.266  0.00  0.00    -0.223 NA
ATOM     12  C   UNL     1       5.107  -1.408  -7.569  0.00  0.00    +0.096 A 
ATOM     13  C   UNL     1       5.906  -1.971  -6.611  0.00  0.00    +0.078 A 
ATOM     14  S   UNL     1       5.595  -0.875  -5.233  0.00  0.00    -0.060 S 
ATOM     15  H   UNL     1       3.083   1.881  -6.217  0.00  0.00    +0.157 HD
BRANCH  12  16
ATOM     16  C   UNL     1       5.043  -1.992  -8.927  0.00  0.00    +0.066 A 
ATOM     17  C   UNL     1       4.291  -1.529  -9.964  0.00  0.00    +0.029 A 
ATOM     18  C   UNL     1       4.526  -2.373 -11.062  0.00  0.00    +0.019 A 
ATOM     19  C   UNL     1       5.406  -3.319 -10.671  0.00  0.00    +0.083 A 
ATOM     20  N   UNL     1       5.734  -3.092  -9.366  0.00  0.00    -0.359 N 
ATOM     21  H   UNL     1       6.413  -3.623  -8.683  0.00  0.00    +0.165 HD
ENDBRANCH  12  16
ENDBRANCH   5   7
BRANCH   4  22
ATOM     22  N   UNL     1       4.295   2.583  -1.606  0.00  0.00    -0.216 N 
ATOM     23  H   UNL     1       5.213   2.137  -2.018  0.00  0.00    +0.174 HD
BRANCH  22  24
ATOM     24  S   UNL     1       3.942   2.413   0.003  0.00  0.00    +0.072 S 
ATOM     25  O   UNL     1       3.720   3.721   0.511  0.00  0.00    -0.150 OA
ATOM     26  O   UNL     1       4.925   1.542   0.545  0.00  0.00    -0.150 OA
BRANCH  24  27
ATOM     27  C   UNL     1       2.402   1.563   0.111  0.00  0.00    +0.111 A 
ATOM     28  C   UNL     1       1.219   2.281   0.136  0.00  0.00    +0.031 A 
ATOM     29  C   UNL     1       0.007   1.623   0.221  0.00  0.00    +0.030 A 
ATOM     30  C   UNL     1      -0.024   0.238   0.280  0.00  0.00    +0.067 A 
ATOM     31  C   UNL     1       1.170  -0.486   0.254  0.00  0.00    +0.069 A 
ATOM     32  C   UNL     1       2.381   0.183   0.169  0.00  0.00    +0.056 A 
ATOM     33  N   UNL     1       0.825  -1.833   0.327  0.00  0.00    -0.306 N 
ATOM     34  H   UNL     1       1.610  -2.603   0.322  0.00  0.00    +0.170 HD
ATOM     35  C   UNL     1      -0.517  -1.925   0.394  0.00  0.00    +0.325 A 
ATOM     36  O   UNL     1      -1.146  -2.964   0.467  0.00  0.00    -0.247 OA
ATOM     37  N   UNL     1      -1.057  -0.692   0.368  0.00  0.00    -0.306 N 
ATOM     38  H   UNL     1      -2.103  -0.351   0.403  0.00  0.00    +0.170 HD
ENDBRANCH  24  27
ENDBRANCH  22  24
ENDBRANCH   4  22
TORSDOF 5
