REMARK  Name = ZINC36216919
REMARK  12 active torsions:
REMARK  status: ('A' for Active; 'I' for Inactive)
REMARK    1  A    between atoms: C_1  and  C_2
REMARK    2  A    between atoms: C_2  and  C_3
REMARK    3  A    between atoms: C_3  and  C_4
REMARK    4  A    between atoms: N_6  and  C_7
REMARK    5  A    between atoms: C_10  and  C_13
REMARK    6  A    between atoms: C_15  and  C_29
REMARK    7  A    between atoms: N_17  and  C_21
REMARK    8  A    between atoms: C_21  and  C_22
REMARK    9  A    between atoms: C_25  and  C_28
REMARK   10  A    between atoms: N_31  and  C_32
REMARK   11  A    between atoms: C_32  and  C_33
REMARK   12  A    between atoms: C_33  and  C_34
REMARK                            x       y       z     vdW  Elec       q    Type
REMARK                         _______ _______ _______ _____ _____    ______ ____
ROOT
ATOM      1  C   UNL     1       0.970  -8.327  -2.303  0.00  0.00    +0.238 C 
ATOM      2  C   UNL     1       2.251  -8.962  -1.711  0.00  0.00    +0.210 C 
ATOM      3  N   UNL     1       2.434 -10.151  -2.566  0.00  0.00    -0.248 N 
ATOM      4  C   UNL     1       1.648 -10.003  -3.649  0.00  0.00    +0.405 C 
ATOM      5  O   UNL     1       1.555 -10.833  -4.531  0.00  0.00    -0.226 OA
ATOM      6  O   UNL     1       0.976  -8.839  -3.650  0.00  0.00    -0.440 OA
ENDROOT
BRANCH   1  10
ATOM      7  C   UNL     1       1.235  -4.061  -2.289  0.00  0.00    +0.033 A 
ATOM      8  C   UNL     1       0.552  -4.719  -1.275  0.00  0.00    +0.024 A 
ATOM      9  C   UNL     1       0.469  -6.098  -1.282  0.00  0.00    +0.009 A 
ATOM     10  C   UNL     1       1.064  -6.823  -2.298  0.00  0.00    -0.005 A 
ATOM     11  C   UNL     1       1.745  -6.171  -3.310  0.00  0.00    +0.009 A 
ATOM     12  C   UNL     1       1.827  -4.792  -3.312  0.00  0.00    +0.024 A 
BRANCH   7  15
ATOM     13  C   UNL     1       1.300  -1.985  -3.448  0.00  0.00    +0.217 C 
ATOM     14  O   UNL     1       1.289  -2.585  -4.502  0.00  0.00    -0.275 OA
ATOM     15  N   UNL     1       1.322  -2.665  -2.285  0.00  0.00    -0.285 N 
ATOM     16  H   UNL     1       1.398  -2.186  -1.445  0.00  0.00    +0.155 HD
BRANCH  13  17
ATOM     17  C   UNL     1       1.288  -0.478  -3.440  0.00  0.00    +0.096 C 
BRANCH  17  19
ATOM     18  C   UNL     1       1.251   1.570  -4.871  0.00  0.00    +0.004 C 
ATOM     19  C   UNL     1       1.263   0.040  -4.880  0.00  0.00    +0.006 C 
ENDBRANCH  17  19
ENDBRANCH  13  17
ENDBRANCH   7  15
ENDBRANCH   1  10
BRANCH   2  20
ATOM     20  C   UNL     1       3.422  -8.022  -1.835  0.00  0.00    +0.238 C 
ATOM     21  O   UNL     1       4.228  -8.171  -2.729  0.00  0.00    -0.274 OA
ATOM     22  N   UNL     1       3.575  -7.015  -0.952  0.00  0.00    -0.313 N 
ATOM     23  H   UNL     1       2.930  -6.895  -0.237  0.00  0.00    +0.149 HD
BRANCH  22  24
ATOM     24  C   UNL     1       4.713  -6.101  -1.072  0.00  0.00    +0.110 C 
BRANCH  24  25
ATOM     25  C   UNL     1       4.651  -5.058   0.045  0.00  0.00    +0.074 C 
BRANCH  25  26
ATOM     26  C   UNL     1       5.822  -4.118  -0.079  0.00  0.00    +0.043 A 
ATOM     27  C   UNL     1       5.599  -2.756  -0.155  0.00  0.00    +0.023 A 
ATOM     28  C   UNL     1       6.684  -1.899  -0.269  0.00  0.00    +0.003 A 
ATOM     29  C   UNL     1       7.957  -2.448  -0.302  0.00  0.00    +0.020 A 
ATOM     30  C   UNL     1       8.102  -3.820  -0.221  0.00  0.00    +0.111 A 
ATOM     31  N   UNL     1       7.047  -4.604  -0.107  0.00  0.00    -0.260 NA
ENDBRANCH  25  26
ENDBRANCH  24  25
ENDBRANCH  22  24
ENDBRANCH   2  20
BRANCH   3  32
ATOM     32  C   UNL     1       3.313 -11.290  -2.286  0.00  0.00    +0.147 C 
BRANCH  32  33
ATOM     33  C   UNL     1       2.552 -12.333  -1.509  0.00  0.00    -0.030 A 
ATOM     34  C   UNL     1       2.539 -12.292  -0.127  0.00  0.00    +0.005 A 
ATOM     35  C   UNL     1       1.841 -13.249   0.586  0.00  0.00    +0.003 A 
ATOM     36  C   UNL     1       1.155 -14.246  -0.083  0.00  0.00    -0.050 A 
ATOM     37  C   UNL     1       1.167 -14.286  -1.465  0.00  0.00    +0.003 A 
ATOM     38  C   UNL     1       1.862 -13.326  -2.178  0.00  0.00    +0.005 A 
ATOM     39  C   UNL     1       0.395 -15.290   0.694  0.00  0.00    +0.044 C 
ENDBRANCH  32  33
ENDBRANCH   3  32
TORSDOF 10
