REMARK  Name = ZINC50274431
REMARK  9 active torsions:
REMARK  status: ('A' for Active; 'I' for Inactive)
REMARK    1  A    between atoms: C_1  and  C_2
REMARK    2  A    between atoms: C_2  and  C_3
REMARK    3  A    between atoms: C_2  and  C_4
REMARK    4  A    between atoms: C_7  and  C_10
REMARK    5  A    between atoms: C_10  and  C_11
REMARK    6  A    between atoms: C_11  and  N_12
REMARK    7  A    between atoms: C_13  and  C_15
REMARK    8  A    between atoms: C_15  and  N_16
REMARK    9  A    between atoms: C_25  and  C_27
REMARK                            x       y       z     vdW  Elec       q    Type
REMARK                         _______ _______ _______ _____ _____    ______ ____
ROOT
ATOM      1  C   UNL     1       5.877  -1.385  -8.873  0.00  0.00    +0.181 C 
ENDROOT
BRANCH   1   2
ATOM      2  N   UNL     1       6.845  -0.280  -8.865  0.00  0.00    -0.278 NA
ATOM      3  C   UNL     1       6.278   0.920  -9.489  0.00  0.00    +0.121 C 
ATOM      4  C   UNL     1       7.311   2.013  -9.562  0.00  0.00    -0.030 A 
ATOM      5  C   UNL     1       6.881   3.316  -9.770  0.00  0.00    +0.005 A 
ATOM      6  C   UNL     1       7.793   4.348  -9.848  0.00  0.00    +0.000 A 
ATOM      7  C   UNL     1       9.144   4.085  -9.720  0.00  0.00    +0.000 A 
ATOM      8  C   UNL     1       9.574   2.790  -9.512  0.00  0.00    +0.004 A 
ATOM      9  C   UNL     1       8.658   1.752  -9.431  0.00  0.00    -0.041 A 
ATOM     10  C   UNL     1       9.173   0.355  -9.192  0.00  0.00    +0.063 C 
ATOM     11  C   UNL     1       8.092  -0.667  -9.543  0.00  0.00    +0.148 C 
BRANCH  11  12
ATOM     12  C   UNL     1       8.519  -2.035  -9.078  0.00  0.00    +0.228 C 
ATOM     13  O   UNL     1       8.314  -2.377  -7.932  0.00  0.00    -0.274 OA
ATOM     14  N   UNL     1       9.128  -2.879  -9.934  0.00  0.00    -0.328 N 
ATOM     15  H   UNL     1       9.292  -2.606 -10.850  0.00  0.00    +0.145 HD
ATOM     16  H   UNL     1       9.402  -3.760  -9.634  0.00  0.00    +0.145 HD
ENDBRANCH  11  12
ENDBRANCH   1   2
BRANCH   1  18
ATOM     17  N   UNL     1       3.795  -1.999  -7.686  0.00  0.00    -0.314 N 
ATOM     18  C   UNL     1       4.798  -1.115  -7.856  0.00  0.00    +0.227 C 
ATOM     19  O   UNL     1       4.832  -0.102  -7.190  0.00  0.00    -0.274 OA
ATOM     20  H   UNL     1       3.768  -2.809  -8.219  0.00  0.00    +0.149 HD
BRANCH  17  21
ATOM     21  C   UNL     1       2.746  -1.737  -6.698  0.00  0.00    +0.109 C 
BRANCH  21  22
ATOM     22  C   UNL     1       1.738  -2.887  -6.706  0.00  0.00    +0.054 C 
BRANCH  22  26
ATOM     23  C   UNL     1      -1.321  -2.124  -3.824  0.00  0.00    -0.045 A 
ATOM     24  C   UNL     1      -1.469  -1.677  -5.124  0.00  0.00    +0.004 A 
ATOM     25  C   UNL     1      -0.479  -1.924  -6.056  0.00  0.00    +0.004 A 
ATOM     26  C   UNL     1       0.659  -2.617  -5.689  0.00  0.00    -0.046 A 
ATOM     27  C   UNL     1       0.807  -3.064  -4.389  0.00  0.00    +0.004 A 
ATOM     28  C   UNL     1      -0.181  -2.813  -3.456  0.00  0.00    +0.004 A 
BRANCH  23  30
ATOM     29  C   UNL     1      -2.601  -0.345  -2.664  0.00  0.00    +0.012 C 
ATOM     30  C   UNL     1      -2.401  -1.855  -2.807  0.00  0.00    +0.013 C 
ATOM     31  C   UNL     1      -3.708  -2.501  -3.269  0.00  0.00    +0.012 C 
ENDBRANCH  23  30
ENDBRANCH  22  26
ENDBRANCH  21  22
ENDBRANCH  17  21
ENDBRANCH   1  18
TORSDOF 7
