REMARK  Name = ZINC58960976
REMARK  8 active torsions:
REMARK  status: ('A' for Active; 'I' for Inactive)
REMARK    1  A    between atoms: C_1  and  C_2
REMARK    2  A    between atoms: C_2  and  C_4
REMARK    3  A    between atoms: C_2  and  S_15
REMARK    4  A    between atoms: N_6  and  C_7
REMARK    5  A    between atoms: C_12  and  O_13
REMARK    6  A    between atoms: S_15  and  C_16
REMARK    7  A    between atoms: C_18  and  C_26
REMARK    8  A    between atoms: C_20  and  C_22
REMARK                            x       y       z     vdW  Elec       q    Type
REMARK                         _______ _______ _______ _____ _____    ______ ____
ROOT
ATOM      1  C   UNL     1       2.524  -0.002   1.248  0.00  0.00    +0.190 A 
ATOM      2  N   UNL     1       3.437  -0.280   2.166  0.00  0.00    -0.222 NA
ATOM      3  C   UNL     1       4.692   0.141   2.022  0.00  0.00    +0.076 A 
ATOM      4  C   UNL     1       5.032   0.881   0.886  0.00  0.00    +0.060 A 
ATOM      5  C   UNL     1       4.046   1.147  -0.047  0.00  0.00    +0.148 A 
ATOM      6  N   UNL     1       2.820   0.693   0.159  0.00  0.00    -0.218 NA
ENDROOT
BRANCH   3   7
ATOM      7  C   UNL     1       5.713  -0.170   3.051  0.00  0.00    +0.001 A 
ATOM      8  C   UNL     1       7.023   0.280   2.894  0.00  0.00    +0.013 A 
ATOM      9  C   UNL     1       7.970  -0.012   3.854  0.00  0.00    +0.039 A 
ATOM     10  C   UNL     1       7.620  -0.751   4.973  0.00  0.00    +0.123 A 
ATOM     11  C   UNL     1       6.318  -1.201   5.133  0.00  0.00    +0.039 A 
ATOM     12  C   UNL     1       5.364  -0.908   4.181  0.00  0.00    +0.013 A 
ATOM     13  F   UNL     1       8.550  -1.035   5.911  0.00  0.00    -0.205 F 
ENDBRANCH   3   7
BRANCH   5  14
ATOM     14  C   UNL     1       4.366   1.941  -1.288  0.00  0.00    +0.434 C 
ATOM     15  F   UNL     1       4.766   1.071  -2.308  0.00  0.00    -0.164 F 
ATOM     16  F   UNL     1       3.229   2.647  -1.696  0.00  0.00    -0.164 F 
ATOM     17  F   UNL     1       5.400   2.842  -1.011  0.00  0.00    -0.164 F 
ENDBRANCH   5  14
BRANCH   1  18
ATOM     18  S   UNL     1       0.875  -0.578   1.476  0.00  0.00    -0.074 S 
BRANCH  18  20
ATOM     19  C   UNL     1      -0.038   1.544   0.012  0.00  0.00    +0.029 C 
ATOM     20  C   UNL     1      -0.005   0.014   0.005  0.00  0.00    +0.137 C 
BRANCH  20  21
ATOM     21  C   UNL     1      -1.415  -0.519   0.014  0.00  0.00    +0.230 C 
ATOM     22  O   UNL     1      -1.941  -0.824   1.063  0.00  0.00    -0.274 OA
ATOM     23  N   UNL     1      -2.090  -0.657  -1.144  0.00  0.00    -0.282 N 
ATOM     24  H   UNL     1      -1.694  -0.354  -1.976  0.00  0.00    +0.155 HD
BRANCH  23  25
ATOM     25  C   UNL     1      -3.365  -1.240  -1.147  0.00  0.00    +0.077 A 
ATOM     26  C   UNL     1      -4.226  -1.033  -0.079  0.00  0.00    +0.047 A 
ATOM     27  C   UNL     1      -5.483  -1.609  -0.084  0.00  0.00    +0.043 A 
ATOM     28  C   UNL     1      -5.885  -2.390  -1.152  0.00  0.00    +0.023 A 
ATOM     29  C   UNL     1      -5.032  -2.600  -2.220  0.00  0.00    +0.049 A 
ATOM     30  C   UNL     1      -3.773  -2.022  -2.224  0.00  0.00    +0.138 A 
ATOM     31 CL   UNL     1      -6.559  -1.350   1.254  0.00  0.00    -0.083 Cl
BRANCH  30  32
ATOM     32  O   UNL     1      -2.935  -2.223  -3.277  0.00  0.00    -0.505 OA
ATOM     33  H   UNL     1      -2.365  -2.998  -3.184  0.00  0.00    +0.292 HD
ENDBRANCH  30  32
ENDBRANCH  23  25
ENDBRANCH  20  21
ENDBRANCH  18  20
ENDBRANCH   1  18
TORSDOF 7
