REMARK  Name = ZINC00664243
REMARK  7 active torsions:
REMARK  status: ('A' for Active; 'I' for Inactive)
REMARK    1  A    between atoms: C_1  and  C_2
REMARK    2  A    between atoms: C_2  and  N_3
REMARK    3  A    between atoms: C_10  and  C_22
REMARK    4  A    between atoms: C_12  and  C_20
REMARK    5  A    between atoms: C_13  and  N_19
REMARK    6  A    between atoms: C_14  and  C_15
REMARK    7  A    between atoms: C_14  and  C_17
REMARK                            x       y       z     vdW  Elec       q    Type
REMARK                         _______ _______ _______ _____ _____    ______ ____
ROOT
ATOM      1  N   UNL     1       0.690  -0.478  -1.207  0.00  0.00    -0.298 NA
ATOM      2  C   UNL     1      -0.086  -0.156  -2.416  0.00  0.00    +0.111 C 
ATOM      3  C   UNL     1       0.714  -0.588  -3.615  0.00  0.00    -0.009 C 
ATOM      4  C   UNL     1       1.553  -1.580  -3.553  0.00  0.00    -0.028 C 
ATOM      5  C   UNL     1       1.788  -2.394  -2.308  0.00  0.00    +0.045 C 
ATOM      6  C   UNL     1       0.939  -1.920  -1.138  0.00  0.00    +0.093 C 
ATOM      7  C   UNL     1       1.446  -3.856  -2.616  0.00  0.00    +0.076 C 
ATOM      8  C   UNL     1       2.029  -4.278  -3.929  0.00  0.00    +0.057 C 
ATOM      9  C   UNL     1       2.412  -3.450  -4.898  0.00  0.00    +0.054 C 
ATOM     10  C   UNL     1       2.349  -1.953  -4.788  0.00  0.00    +0.202 C 
ENDROOT
BRANCH   7  11
ATOM     11  C   UNL     1       2.001  -4.734  -1.524  0.00  0.00    -0.000 A 
ATOM     12  C   UNL     1       1.344  -5.576  -0.690  0.00  0.00    +0.013 A 
ATOM     13  C   UNL     1       2.066  -6.291   0.247  0.00  0.00    +0.028 A 
ATOM     14  C   UNL     1       3.412  -6.129   0.303  0.00  0.00    +0.078 A 
ATOM     15  S   UNL     1       3.695  -4.942  -1.000  0.00  0.00    -0.081 S 
ATOM     16 CL   UNL     1       4.561  -6.884   1.363  0.00  0.00    -0.076 Cl
ENDBRANCH   7  11
BRANCH   9  17
ATOM     17  N   UNL     1       2.892  -3.994  -6.061  0.00  0.00    -0.358 N 
ATOM     18  H   UNL     1       2.945  -4.958  -6.160  0.00  0.00    +0.142 HD
ATOM     19  H   UNL     1       3.179  -3.416  -6.785  0.00  0.00    +0.142 HD
ENDBRANCH   9  17
BRANCH   1  21
ATOM     20  C   UNL     1      -0.019   1.526   0.010  0.00  0.00    +0.020 C 
ATOM     21  C   UNL     1       0.002  -0.004   0.002  0.00  0.00    +0.081 C 
ENDBRANCH   1  21
BRANCH  10  22
ATOM     22  C   UNL     1       1.692  -1.400  -5.983  0.00  0.00    +0.095 C 
ATOM     23  N   UNL     1       1.185  -0.972  -6.906  0.00  0.00    -0.194 NA
ENDBRANCH  10  22
BRANCH  10  24
ATOM     24  C   UNL     1       3.712  -1.410  -4.678  0.00  0.00    +0.095 C 
ATOM     25  N   UNL     1       4.765  -0.990  -4.593  0.00  0.00    -0.194 NA
ENDBRANCH  10  24
BRANCH   8  26
ATOM     26  C   UNL     1       2.187  -5.683  -4.160  0.00  0.00    +0.097 C 
ATOM     27  N   UNL     1       2.312  -6.797  -4.343  0.00  0.00    -0.191 NA
ENDBRANCH   8  26
TORSDOF 6
