REMARK  Name = ZINC39522018
REMARK  5 active torsions:
REMARK  status: ('A' for Active; 'I' for Inactive)
REMARK    1  A    between atoms: C_1  and  O_2
REMARK    2  A    between atoms: O_2  and  N_3
REMARK    3  A    between atoms: C_4  and  S_17
REMARK    4  A    between atoms: S_17  and  O_20
REMARK    5  A    between atoms: O_20  and  C_21
REMARK                            x       y       z     vdW  Elec       q    Type
REMARK                         _______ _______ _______ _____ _____    ______ ____
ROOT
ATOM      1  N   UNL     1       0.689  -0.596   1.150  0.00  0.00    -0.154 NA
ATOM      2  C   UNL     1       1.884  -1.336   0.724  0.00  0.00    +0.266 C 
ATOM      3  C   UNL     1       2.655  -1.816   1.955  0.00  0.00    +0.048 C 
ATOM      4  C   UNL     1       1.748  -2.717   2.799  0.00  0.00    +0.005 C 
ATOM      5  C   UNL     1       0.489  -1.938   3.189  0.00  0.00    +0.025 C 
ATOM      6  C   UNL     1      -0.219  -1.453   1.922  0.00  0.00    +0.052 C 
ATOM      7  C   UNL     1      -1.466  -0.655   2.311  0.00  0.00    +0.025 C 
ATOM      8  C   UNL     1      -2.411  -1.548   3.118  0.00  0.00    +0.005 C 
ATOM      9  C   UNL     1      -2.821  -2.754   2.270  0.00  0.00    +0.037 C 
ATOM     10  C   UNL     1      -1.574  -3.551   1.881  0.00  0.00    +0.168 C 
ATOM     11  C   UNL     1      -0.629  -2.659   1.075  0.00  0.00    +0.061 C 
ATOM     12  F   UNL     1      -0.924  -3.994   3.038  0.00  0.00    -0.245 F 
ENDROOT
BRANCH   2  13
ATOM     13  S   UNL     1       2.946  -0.249  -0.268  0.00  0.00    +0.139 S 
ATOM     14  O   UNL     1       2.313   0.061  -1.501  0.00  0.00    -0.135 OA
ATOM     15  O   UNL     1       3.489   0.780   0.547  0.00  0.00    -0.135 OA
BRANCH  13  16
ATOM     16  O   UNL     1       4.140  -1.112  -0.650  0.00  0.00    -0.345 OA
BRANCH  16  17
ATOM     17  C   UNL     1       3.875  -2.022  -1.624  0.00  0.00    +0.156 A 
ATOM     18  C   UNL     1       3.421  -3.289  -1.286  0.00  0.00    +0.048 A 
ATOM     19  C   UNL     1       3.152  -4.212  -2.277  0.00  0.00    +0.004 A 
ATOM     20  C   UNL     1       3.335  -3.875  -3.606  0.00  0.00    +0.000 A 
ATOM     21  C   UNL     1       3.787  -2.613  -3.945  0.00  0.00    +0.004 A 
ATOM     22  C   UNL     1       4.052  -1.684  -2.958  0.00  0.00    +0.048 A 
ENDBRANCH  16  17
ENDBRANCH  13  16
ENDBRANCH   2  13
BRANCH   1  24
ATOM     23  C   UNL     1      -0.017   1.425   0.010  0.00  0.00    +0.221 C 
ATOM     24  O   UNL     1       0.002  -0.004   0.002  0.00  0.00    -0.298 OA
ENDBRANCH   1  24
TORSDOF 4
