REMARK  Name = ZINC21048923
REMARK  9 active torsions:
REMARK  status: ('A' for Active; 'I' for Inactive)
REMARK    1  A    between atoms: C_1  and  N_2
REMARK    2  A    between atoms: N_2  and  C_3
REMARK    3  A    between atoms: N_2  and  S_6
REMARK    4  A    between atoms: S_6  and  C_9
REMARK    5  A    between atoms: C_12  and  C_15
REMARK    6  A    between atoms: N_17  and  C_18
REMARK    7  A    between atoms: C_19  and  C_34
REMARK    8  A    between atoms: N_24  and  C_27
REMARK    9  A    between atoms: C_27  and  C_28
REMARK                            x       y       z     vdW  Elec       q    Type
REMARK                         _______ _______ _______ _____ _____    ______ ____
ROOT
ATOM      1  C   UNL     1       1.433   6.225  -8.055  0.00  0.00    +0.249 C 
ATOM      2  O   UNL     1       0.403   5.978  -7.460  0.00  0.00    -0.270 OA
ATOM      3  N   UNL     1       2.616   6.156  -7.413  0.00  0.00    -0.275 N 
ATOM      4  H   UNL     1       3.548   6.380  -7.952  0.00  0.00    +0.156 HD
ENDROOT
BRANCH   3   5
ATOM      5  C   UNL     1       2.658   5.803  -6.073  0.00  0.00    +0.090 A 
ATOM      6  C   UNL     1       3.767   5.678  -5.248  0.00  0.00    +0.084 A 
ATOM      7  C   UNL     1       3.536   5.292  -3.869  0.00  0.00    -0.015 A 
ATOM      8  C   UNL     1       2.241   5.092  -3.535  0.00  0.00    +0.010 A 
ATOM      9  S   UNL     1       1.337   5.410  -5.021  0.00  0.00    -0.076 S 
ATOM     10  C   UNL     1       1.723   4.687  -2.190  0.00  0.00    +0.127 C 
ATOM     11  N   UNL     1       2.859   4.194  -1.388  0.00  0.00    -0.293 NA
ATOM     12  C   UNL     1       3.982   5.141  -1.440  0.00  0.00    +0.090 C 
ATOM     13  C   UNL     1       4.632   5.110  -2.826  0.00  0.00    +0.052 C 
BRANCH   6  14
ATOM     14  C   UNL     1       5.090   5.923  -5.740  0.00  0.00    +0.102 C 
ATOM     15  N   UNL     1       6.139   6.117  -6.130  0.00  0.00    -0.191 NA
ENDBRANCH   6  14
BRANCH  11  16
ATOM     16  C   UNL     1       2.451   3.937  -0.001  0.00  0.00    +0.120 C 
BRANCH  16  17
ATOM     17  C   UNL     1       1.156   3.165   0.008  0.00  0.00    -0.033 A 
ATOM     18  C   UNL     1       1.175   1.783   0.000  0.00  0.00    +0.005 A 
ATOM     19  C   UNL     1      -0.013   1.076   0.008  0.00  0.00    +0.000 A 
ATOM     20  C   UNL     1      -1.219   1.751   0.017  0.00  0.00    +0.000 A 
ATOM     21  C   UNL     1      -1.238   3.133   0.030  0.00  0.00    +0.000 A 
ATOM     22  C   UNL     1      -0.050   3.840   0.023  0.00  0.00    +0.005 A 
ENDBRANCH  16  17
ENDBRANCH  11  16
ENDBRANCH   3   5
BRANCH   1  26
ATOM     23  C   UNL     1       1.305   7.306 -12.161  0.00  0.00    +0.106 A 
ATOM     24  C   UNL     1       0.131   7.025 -11.486  0.00  0.00    +0.029 A 
ATOM     25  C   UNL     1       0.165   6.673 -10.152  0.00  0.00    +0.015 A 
ATOM     26  C   UNL     1       1.389   6.601  -9.484  0.00  0.00    +0.037 A 
ATOM     27  C   UNL     1       2.570   6.891 -10.170  0.00  0.00    +0.015 A 
ATOM     28  C   UNL     1       2.521   7.236 -11.504  0.00  0.00    +0.029 A 
BRANCH  23  29
ATOM     29  S   UNL     1       1.252   7.754 -13.864  0.00  0.00    +0.061 S 
ATOM     30  O   UNL     1       2.526   7.436 -14.407  0.00  0.00    -0.153 OA
ATOM     31  O   UNL     1       0.045   7.218 -14.388  0.00  0.00    -0.153 OA
BRANCH  29  33
ATOM     32  C   UNL     1       2.306  10.243 -13.972  0.00  0.00    +0.132 C 
ATOM     33  N   UNL     1       1.107   9.402 -13.932  0.00  0.00    -0.177 NA
BRANCH  33  34
ATOM     34  C   UNL     1      -0.222  10.020 -13.952  0.00  0.00    +0.080 C 
ATOM     35  C   UNL     1      -0.297  11.525 -14.218  0.00  0.00    +0.022 C 
ATOM     36  C   UNL     1      -0.571  10.981 -12.814  0.00  0.00    +0.022 C 
ENDBRANCH  33  34
ENDBRANCH  29  33
ENDBRANCH  23  29
ENDBRANCH   1  26
TORSDOF 8
