REMARK  Name = ZINC25456866
REMARK  10 active torsions:
REMARK  status: ('A' for Active; 'I' for Inactive)
REMARK    1  A    between atoms: C_1  and  C_2
REMARK    2  A    between atoms: C_5  and  N_9
REMARK    3  A    between atoms: C_6  and  C_8
REMARK    4  A    between atoms: C_10  and  C_12
REMARK    5  A    between atoms: C_12  and  C_14
REMARK    6  A    between atoms: C_12  and  O_15
REMARK    7  A    between atoms: O_15  and  C_16
REMARK    8  A    between atoms: C_19  and  C_23
REMARK    9  A    between atoms: C_23  and  O_25
REMARK   10  A    between atoms: O_25  and  C_26
REMARK                            x       y       z     vdW  Elec       q    Type
REMARK                         _______ _______ _______ _____ _____    ______ ____
ROOT
ATOM      1  C   UNL     1      -0.201   0.259   0.022  0.00  0.00    +0.256 C 
ATOM      2  C   UNL     1      -0.200   1.785  -0.077  0.00  0.00    +0.062 C 
ENDROOT
BRANCH   1   4
ATOM      3  N   UNL     1       0.228  -0.161  -2.377  0.00  0.00    -0.282 N 
ATOM      4  C   UNL     1       0.624  -0.318  -1.099  0.00  0.00    +0.258 C 
ATOM      5  O   UNL     1       1.645  -0.925  -0.851  0.00  0.00    -0.271 OA
ATOM      6  H   UNL     1      -0.661   0.446  -2.607  0.00  0.00    +0.155 HD
BRANCH   3  11
ATOM      7  C   UNL     1       3.142  -2.624  -6.576  0.00  0.00    +0.044 C 
ATOM      8  C   UNL     1       2.368  -1.969  -5.461  0.00  0.00    -0.050 A 
ATOM      9  C   UNL     1       3.032  -1.499  -4.343  0.00  0.00    +0.005 A 
ATOM     10  C   UNL     1       2.326  -0.899  -3.319  0.00  0.00    +0.024 A 
ATOM     11  C   UNL     1       0.946  -0.768  -3.413  0.00  0.00    +0.036 A 
ATOM     12  C   UNL     1       0.281  -1.247  -4.534  0.00  0.00    -0.029 A 
ATOM     13  C   UNL     1       0.994  -1.841  -5.557  0.00  0.00    +0.008 A 
ATOM     14  C   UNL     1      -1.216  -1.113  -4.637  0.00  0.00    +0.045 C 
ENDBRANCH   3  11
ENDBRANCH   1   4
BRANCH   1  15
ATOM     15  O   UNL     1       0.358  -0.137   1.277  0.00  0.00    -0.479 OA
BRANCH  15  16
ATOM     16  C   UNL     1      -0.478  -0.151   2.346  0.00  0.00    +0.136 A 
ATOM     17  C   UNL     1      -1.830   0.122   2.173  0.00  0.00    +0.047 A 
ATOM     18  C   UNL     1      -2.682   0.104   3.255  0.00  0.00    +0.018 A 
ATOM     19  C   UNL     1      -2.184  -0.179   4.530  0.00  0.00    +0.060 A 
ATOM     20  C   UNL     1      -0.823  -0.449   4.701  0.00  0.00    +0.034 A 
ATOM     21  C   UNL     1       0.022  -0.433   3.613  0.00  0.00    +0.060 A 
ATOM     22 BR   UNL     1       1.863  -0.797   3.842  0.00  0.00    -0.046 Br
BRANCH  19  23
ATOM     23  C   UNL     1      -3.092  -0.194   5.691  0.00  0.00    +0.339 C 
ATOM     24  O   UNL     1      -2.658  -0.440   6.799  0.00  0.00    -0.245 OA
BRANCH  23  25
ATOM     25  O   UNL     1      -4.404   0.066   5.525  0.00  0.00    -0.464 OA
ATOM     26  C   UNL     1      -5.239   0.035   6.712  0.00  0.00    +0.280 C 
ENDBRANCH  23  25
ENDBRANCH  19  23
ENDBRANCH  15  16
ENDBRANCH   1  15
TORSDOF 6
