REMARK  Name = ZINC03299122
REMARK  7 active torsions:
REMARK  status: ('A' for Active; 'I' for Inactive)
REMARK    1  A    between atoms: C_1  and  C_2
REMARK    2  A    between atoms: C_5  and  C_9
REMARK    3  A    between atoms: C_6  and  C_8
REMARK    4  A    between atoms: C_11  and  C_19
REMARK    5  A    between atoms: N_21  and  C_22
REMARK    6  A    between atoms: C_27  and  O_28
REMARK    7  A    between atoms: O_28  and  C_29
REMARK                            x       y       z     vdW  Elec       q    Type
REMARK                         _______ _______ _______ _____ _____    ______ ____
ROOT
ATOM      1  C   UNL     1      -3.383   1.581  -1.069  0.00  0.00    +0.122 C 
ATOM      2  C   UNL     1      -2.495   0.960   0.017  0.00  0.00    +0.143 C 
ATOM      3  C   UNL     1      -1.172   1.700   0.004  0.00  0.00    +0.019 C 
ATOM      4  C   UNL     1      -0.022   1.054  -0.005  0.00  0.00    +0.029 C 
ATOM      5  N   UNL     1      -1.223   3.098   0.008  0.00  0.00    -0.273 N 
ATOM      6  C   UNL     1      -2.333   3.713  -0.447  0.00  0.00    +0.304 C 
ATOM      7  O   UNL     1      -2.382   4.928  -0.419  0.00  0.00    -0.253 OA
ATOM      8  N   UNL     1      -3.386   3.036  -0.923  0.00  0.00    -0.291 N 
ATOM      9  H   UNL     1      -0.469   3.617   0.331  0.00  0.00    +0.156 HD
ATOM     10  H   UNL     1      -4.181   3.529  -1.180  0.00  0.00    +0.151 HD
ENDROOT
BRANCH   1  15
ATOM     11  C   UNL     1      -1.322   0.173  -6.281  0.00  0.00    +0.044 C 
ATOM     12  C   UNL     1      -1.860   0.540  -4.922  0.00  0.00    -0.050 A 
ATOM     13  C   UNL     1      -1.504   1.742  -4.339  0.00  0.00    +0.004 A 
ATOM     14  C   UNL     1      -2.001   2.081  -3.095  0.00  0.00    +0.006 A 
ATOM     15  C   UNL     1      -2.846   1.213  -2.428  0.00  0.00    -0.023 A 
ATOM     16  C   UNL     1      -3.202   0.012  -3.010  0.00  0.00    -0.045 A 
ATOM     17  C   UNL     1      -2.709  -0.325  -4.258  0.00  0.00    +0.007 A 
ATOM     18  C   UNL     1      -4.127  -0.932  -2.286  0.00  0.00    +0.044 C 
ENDBRANCH   1  15
BRANCH   2  19
ATOM     19  C   UNL     1      -3.152   1.111   1.364  0.00  0.00    +0.228 C 
ATOM     20  O   UNL     1      -4.245   1.632   1.451  0.00  0.00    -0.275 OA
ATOM     21  N   UNL     1      -2.527   0.669   2.473  0.00  0.00    -0.282 N 
ATOM     22  H   UNL     1      -1.684   0.195   2.398  0.00  0.00    +0.155 HD
BRANCH  21  23
ATOM     23  C   UNL     1      -3.095   0.893   3.734  0.00  0.00    +0.076 A 
ATOM     24  C   UNL     1      -4.473   0.878   3.889  0.00  0.00    +0.027 A 
ATOM     25  C   UNL     1      -5.031   1.099   5.134  0.00  0.00    +0.002 A 
ATOM     26  C   UNL     1      -4.218   1.335   6.228  0.00  0.00    +0.004 A 
ATOM     27  C   UNL     1      -2.844   1.351   6.081  0.00  0.00    +0.047 A 
ATOM     28  C   UNL     1      -2.276   1.125   4.837  0.00  0.00    +0.141 A 
BRANCH  28  29
ATOM     29  O   UNL     1      -0.924   1.135   4.693  0.00  0.00    -0.493 OA
ATOM     30  C   UNL     1      -0.148   1.380   5.867  0.00  0.00    +0.277 C 
ENDBRANCH  28  29
ENDBRANCH  21  23
ENDBRANCH   2  19
TORSDOF 4
