REMARK  Name = ZINC07375726
REMARK  11 active torsions:
REMARK  status: ('A' for Active; 'I' for Inactive)
REMARK    1  A    between atoms: C_1  and  C_2
REMARK    2  A    between atoms: C_3  and  C_26
REMARK    3  A    between atoms: C_4  and  C_25
REMARK    4  A    between atoms: C_5  and  S_10
REMARK    5  A    between atoms: C_6  and  C_9
REMARK    6  A    between atoms: C_7  and  C_8
REMARK    7  A    between atoms: S_10  and  N_13
REMARK    8  A    between atoms: N_13  and  C_14
REMARK    9  A    between atoms: C_14  and  C_15
REMARK   10  A    between atoms: C_18  and  S_21
REMARK   11  A    between atoms: S_21  and  N_24
REMARK                            x       y       z     vdW  Elec       q    Type
REMARK                         _______ _______ _______ _____ _____    ______ ____
ROOT
ATOM      1  N   UNL     1      -2.976   5.005   1.623  0.00  0.00    -0.186 NA
ATOM      2  H   UNL     1      -3.841   4.679   1.914  0.00  0.00    +0.148 HD
ENDROOT
BRANCH   1   3
ATOM      3  S   UNL     1      -2.511   4.825   0.043  0.00  0.00    +0.059 S 
ATOM      4  O   UNL     1      -2.038   6.094  -0.388  0.00  0.00    -0.153 OA
ATOM      5  O   UNL     1      -3.570   4.143  -0.616  0.00  0.00    -0.153 OA
BRANCH   3  10
ATOM      6  C   UNL     1       2.236   1.102  -0.007  0.00  0.00    +0.044 C 
ATOM      7  C   UNL     1       1.050   2.032   0.006  0.00  0.00    -0.044 A 
ATOM      8  C   UNL     1      -0.229   1.522  -0.112  0.00  0.00    -0.043 A 
ATOM      9  C   UNL     1      -1.316   2.376  -0.106  0.00  0.00    -0.021 A 
ATOM     10  C   UNL     1      -1.125   3.738   0.029  0.00  0.00    +0.112 A 
ATOM     11  C   UNL     1       0.154   4.248   0.147  0.00  0.00    -0.021 A 
ATOM     12  C   UNL     1       1.242   3.395   0.136  0.00  0.00    -0.043 A 
ATOM     13  C   UNL     1       2.637   3.951   0.265  0.00  0.00    +0.044 C 
ATOM     14  C   UNL     1       0.363   5.734   0.288  0.00  0.00    +0.046 C 
ATOM     15  C   UNL     1      -2.711   1.820  -0.240  0.00  0.00    +0.046 C 
ATOM     16  C   UNL     1      -0.438   0.036  -0.253  0.00  0.00    +0.044 C 
ENDBRANCH   3  10
ENDBRANCH   1   3
BRANCH   1  17
ATOM     17  C   UNL     1      -2.079   5.657   2.580  0.00  0.00    +0.141 C 
BRANCH  17  18
ATOM     18  C   UNL     1      -2.850   6.026   3.821  0.00  0.00    -0.032 A 
ATOM     19  C   UNL     1      -3.462   7.263   3.913  0.00  0.00    +0.007 A 
ATOM     20  C   UNL     1      -4.173   7.599   5.049  0.00  0.00    +0.029 A 
ATOM     21  C   UNL     1      -4.266   6.703   6.097  0.00  0.00    +0.105 A 
ATOM     22  C   UNL     1      -3.651   5.469   6.008  0.00  0.00    +0.029 A 
ATOM     23  C   UNL     1      -2.942   5.130   4.870  0.00  0.00    +0.007 A 
BRANCH  21  24
ATOM     24  S   UNL     1      -5.170   7.134   7.547  0.00  0.00    +0.056 S 
ATOM     25  O   UNL     1      -6.107   8.130   7.161  0.00  0.00    -0.153 OA
ATOM     26  O   UNL     1      -5.564   5.913   8.158  0.00  0.00    -0.153 OA
BRANCH  24  27
ATOM     27  N   UNL     1      -4.107   7.863   8.588  0.00  0.00    -0.204 NA
ATOM     28  H   UNL     1      -3.178   7.975   8.332  0.00  0.00    +0.144 HD
ATOM     29  H   UNL     1      -4.414   8.177   9.453  0.00  0.00    +0.144 HD
ENDBRANCH  24  27
ENDBRANCH  21  24
ENDBRANCH  17  18
ENDBRANCH   1  17
TORSDOF 6
