REMARK  Name = ZINC39452766
REMARK  8 active torsions:
REMARK  status: ('A' for Active; 'I' for Inactive)
REMARK    1  A    between atoms: C_1  and  C_2
REMARK    2  A    between atoms: C_2  and  C_3
REMARK    3  A    between atoms: C_2  and  S_4
REMARK    4  A    between atoms: S_4  and  N_7
REMARK    5  A    between atoms: C_21  and  S_22
REMARK    6  A    between atoms: S_22  and  C_23
REMARK    7  A    between atoms: C_25  and  C_30
REMARK    8  A    between atoms: C_35  and  O_36
REMARK                            x       y       z     vdW  Elec       q    Type
REMARK                         _______ _______ _______ _____ _____    ______ ____
ROOT
ATOM      1  N   UNL     1      -2.458  -0.180  -1.608  0.00  0.00    -0.174 N 
ATOM      2  C   UNL     1      -3.055   1.076  -1.597  0.00  0.00    +0.134 A 
ATOM      3  C   UNL     1      -3.663   1.582  -2.728  0.00  0.00    +0.083 A 
ATOM      4  C   UNL     1      -3.693   0.784  -3.966  0.00  0.00    +0.100 A 
ATOM      5  C   UNL     1      -3.077  -0.495  -3.948  0.00  0.00    +0.069 A 
ATOM      6  C   UNL     1      -2.441  -0.958  -2.705  0.00  0.00    +0.281 A 
ATOM      7  O   UNL     1      -1.903  -2.049  -2.668  0.00  0.00    -0.265 OA
ATOM      8  C   UNL     1      -3.073  -1.287  -5.089  0.00  0.00    +0.026 A 
ATOM      9  C   UNL     1      -3.692  -0.779  -6.237  0.00  0.00    +0.015 A 
ATOM     10  C   UNL     1      -4.311   0.548  -6.184  0.00  0.00    +0.073 A 
ATOM     11  N   UNL     1      -4.276   1.254  -5.053  0.00  0.00    -0.245 NA
ATOM     12  C   UNL     1      -4.932   1.049  -7.341  0.00  0.00    +0.028 A 
ATOM     13  C   UNL     1      -4.948   0.303  -8.481  0.00  0.00    +0.003 A 
ATOM     14  C   UNL     1      -4.365  -0.955  -8.544  0.00  0.00    +0.015 A 
ATOM     15  C   UNL     1      -3.738  -1.510  -7.445  0.00  0.00    +0.017 A 
ATOM     16  N   UNL     1      -4.238   2.838  -2.698  0.00  0.00    -0.333 N 
ATOM     17  C   UNL     1      -3.715   3.822  -1.737  0.00  0.00    +0.112 C 
ATOM     18  C   UNL     1      -3.719   3.180  -0.345  0.00  0.00    +0.108 C 
ATOM     19  C   UNL     1      -3.031   1.842  -0.409  0.00  0.00    +0.185 C 
ATOM     20  O   UNL     1      -2.450   1.417   0.569  0.00  0.00    -0.290 OA
ATOM     21  H   UNL     1      -4.968   3.066  -3.295  0.00  0.00    +0.147 HD
ENDROOT
BRANCH  17  22
ATOM     22  C   UNL     1      -2.308   4.204  -2.117  0.00  0.00    +0.014 A 
ATOM     23  C   UNL     1      -1.581   3.402  -2.975  0.00  0.00    +0.009 A 
ATOM     24  C   UNL     1      -0.289   3.752  -3.324  0.00  0.00    +0.001 A 
ATOM     25  C   UNL     1       0.278   4.907  -2.815  0.00  0.00    +0.004 A 
ATOM     26  C   UNL     1      -0.445   5.712  -1.957  0.00  0.00    +0.046 A 
ATOM     27  C   UNL     1      -1.743   5.365  -1.610  0.00  0.00    +0.122 A 
BRANCH  27  28
ATOM     28  O   UNL     1      -2.458   6.160  -0.770  0.00  0.00    -0.506 OA
ATOM     29  H   UNL     1      -2.356   5.936   0.165  0.00  0.00    +0.292 HD
ENDBRANCH  27  28
ENDBRANCH  17  22
BRANCH   1  30
ATOM     30  S   UNL     1      -1.736  -0.735  -0.225  0.00  0.00    +0.060 S 
ATOM     31  O   UNL     1      -0.856   0.309   0.169  0.00  0.00    -0.153 OA
ATOM     32  O   UNL     1      -1.231  -2.018  -0.568  0.00  0.00    -0.153 OA
BRANCH  30  34
ATOM     33  C   UNL     1      -4.173  -1.810   0.399  0.00  0.00    +0.033 C 
ATOM     34  C   UNL     1      -3.089  -0.896   0.974  0.00  0.00    +0.148 C 
ATOM     35  C   UNL     1      -2.550  -1.500   2.273  0.00  0.00    +0.033 C 
ENDBRANCH  30  34
ENDBRANCH   1  30
BRANCH  15  36
ATOM     36  S   UNL     1      -3.005  -3.109  -7.549  0.00  0.00    -0.128 S 
ATOM     37  C   UNL     1      -3.319  -3.626  -9.259  0.00  0.00    +0.090 C 
ENDBRANCH  15  36
TORSDOF 5
