REMARK  Name = ZINC14546025
REMARK  4 active torsions:
REMARK  status: ('A' for Active; 'I' for Inactive)
REMARK    1  A    between atoms: C_1  and  O_2
REMARK    2  A    between atoms: O_2  and  C_3
REMARK    3  A    between atoms: C_8  and  C_9
REMARK    4  A    between atoms: C_19  and  N_26
REMARK                            x       y       z     vdW  Elec       q    Type
REMARK                         _______ _______ _______ _____ _____    ______ ____
ROOT
ATOM      1  C   UNL     1      -1.422   6.021  -0.515  0.00  0.00    +0.108 C 
ATOM      2  C   UNL     1      -0.264   5.542   0.364  0.00  0.00    +0.029 C 
ATOM      3  C   UNL     1       1.058   6.060  -0.270  0.00  0.00    +0.033 C 
ATOM      4  C   UNL     1       1.349   5.048  -1.360  0.00  0.00    -0.030 C 
ATOM      5  C   UNL     1       0.726   3.922  -1.120  0.00  0.00    -0.023 C 
ATOM      6  C   UNL     1      -0.076   4.024   0.158  0.00  0.00    +0.051 C 
ATOM      7  C   UNL     1      -1.393   3.320   0.015  0.00  0.00    +0.014 A 
ATOM      8  C   UNL     1      -1.391   1.931  -0.010  0.00  0.00    +0.132 A 
ATOM      9  C   UNL     1      -2.570   1.228  -0.138  0.00  0.00    +0.036 A 
ATOM     10  C   UNL     1      -3.772   1.904  -0.249  0.00  0.00    +0.042 A 
ATOM     11  C   UNL     1      -3.785   3.284  -0.231  0.00  0.00    +0.145 A 
ATOM     12  C   UNL     1      -2.593   3.999  -0.099  0.00  0.00    +0.069 A 
ATOM     13  N   UNL     1      -2.664   5.393  -0.078  0.00  0.00    -0.334 N 
ATOM     14  F   UNL     1      -4.957   3.947  -0.340  0.00  0.00    -0.204 F 
ATOM     15  H   UNL     1      -3.452   5.723  -0.615  0.00  0.00    +0.147 HD
ENDROOT
BRANCH   1  21
ATOM     16  C   UNL     1      -2.081   8.090   0.739  0.00  0.00    +0.125 A 
ATOM     17  C   UNL     1      -2.192   9.470   0.837  0.00  0.00    +0.046 A 
ATOM     18  C   UNL     1      -1.780  10.270  -0.211  0.00  0.00    +0.004 A 
ATOM     19  C   UNL     1      -1.254   9.698  -1.355  0.00  0.00    +0.001 A 
ATOM     20  C   UNL     1      -1.139   8.324  -1.453  0.00  0.00    +0.009 A 
ATOM     21  C   UNL     1      -1.548   7.519  -0.407  0.00  0.00    +0.015 A 
BRANCH  16  23
ATOM     22  C   UNL     1      -3.029   7.957   2.915  0.00  0.00    +0.277 C 
ATOM     23  O   UNL     1      -2.490   7.300   1.766  0.00  0.00    -0.495 OA
ENDBRANCH  16  23
ENDBRANCH   1  21
BRANCH   8  24
ATOM     24  N   UNL     1      -0.111   1.199   0.108  0.00  0.00    +0.057 N 
ATOM     25  O   UNL     1      -0.102  -0.019   0.092  0.00  0.00    -0.126 OA
ATOM     26  O   UNL     1       0.935   1.814   0.217  0.00  0.00    -0.126 OA
ENDBRANCH   8  24
TORSDOF 3
