REMARK  Name = ZINC12797638
REMARK  10 active torsions:
REMARK  status: ('A' for Active; 'I' for Inactive)
REMARK    1  A    between atoms: C_1  and  C_2
REMARK    2  A    between atoms: C_5  and  C_8
REMARK    3  A    between atoms: C_8  and  N_9
REMARK    4  A    between atoms: C_10  and  C_32
REMARK    5  A    between atoms: C_11  and  C_15
REMARK    6  A    between atoms: C_12  and  C_14
REMARK    7  A    between atoms: N_17  and  C_18
REMARK    8  A    between atoms: C_18  and  C_19
REMARK    9  A    between atoms: C_19  and  C_21
REMARK   10  A    between atoms: C_19  and  N_63
REMARK                            x       y       z     vdW  Elec       q    Type
REMARK                         _______ _______ _______ _____ _____    ______ ____
ROOT
ATOM      1  C   UNL     1       0.249   1.303   2.333  0.00  0.00    +0.248 C 
ATOM      2  O   UNL     1       1.345   0.777   2.299  0.00  0.00    -0.270 OA
ATOM      3  N   UNL     1      -0.429   1.522   1.189  0.00  0.00    -0.312 N 
ATOM      4  H   UNL     1      -1.303   1.942   1.216  0.00  0.00    +0.149 HD
ENDROOT
BRANCH   1   7
ATOM      5  N   UNL     1      -1.458   1.663   5.512  0.00  0.00    -0.263 N 
ATOM      6  C   UNL     1      -1.145   0.927   4.433  0.00  0.00    +0.049 A 
ATOM      7  C   UNL     1      -0.337   1.703   3.625  0.00  0.00    +0.080 A 
ATOM      8  C   UNL     1      -0.183   2.952   4.266  0.00  0.00    +0.072 A 
ATOM      9  N   UNL     1      -0.852   2.918   5.385  0.00  0.00    -0.175 NA
ATOM     10  C   UNL     1       0.616   4.120   3.747  0.00  0.00    +0.068 C 
ATOM     11  C   UNL     1      -1.590  -0.485   4.157  0.00  0.00    +0.066 C 
BRANCH   5  12
ATOM     12  C   UNL     1      -2.297   1.227   6.631  0.00  0.00    +0.179 C 
BRANCH  12  17
ATOM     13  C   UNL     1      -7.817   2.525   5.519  0.00  0.00    +0.044 C 
ATOM     14  C   UNL     1      -6.377   2.186   5.809  0.00  0.00    -0.050 A 
ATOM     15  C   UNL     1      -5.862   0.965   5.417  0.00  0.00    +0.004 A 
ATOM     16  C   UNL     1      -4.542   0.654   5.683  0.00  0.00    +0.006 A 
ATOM     17  C   UNL     1      -3.736   1.565   6.341  0.00  0.00    -0.026 A 
ATOM     18  C   UNL     1      -4.253   2.785   6.737  0.00  0.00    +0.006 A 
ATOM     19  C   UNL     1      -5.572   3.097   6.468  0.00  0.00    +0.004 A 
ENDBRANCH  12  17
ENDBRANCH   5  12
ENDBRANCH   1   7
BRANCH   3  20
ATOM     20  C   UNL     1       0.154   1.125  -0.096  0.00  0.00    +0.094 C 
BRANCH  20  21
ATOM     21  C   UNL     1      -0.864   1.363  -1.213  0.00  0.00    -0.019 C 
BRANCH  21  22
ATOM     22  C   UNL     1      -2.048   0.452  -1.016  0.00  0.00    -0.041 A 
ATOM     23  C   UNL     1      -3.205   0.938  -0.435  0.00  0.00    +0.003 A 
ATOM     24  C   UNL     1      -4.293   0.103  -0.259  0.00  0.00    +0.000 A 
ATOM     25  C   UNL     1      -4.221  -1.220  -0.654  0.00  0.00    +0.001 A 
ATOM     26  C   UNL     1      -3.064  -1.708  -1.230  0.00  0.00    +0.020 A 
ATOM     27  C   UNL     1      -1.976  -0.872  -1.411  0.00  0.00    +0.043 A 
ATOM     28 CL   UNL     1      -0.521  -1.484  -2.134  0.00  0.00    -0.083 Cl
ENDBRANCH  21  22
BRANCH  21  33
ATOM     29  C   UNL     1      -0.155   3.692  -1.240  0.00  0.00    -0.078 C 
ATOM     30  C   UNL     1      -0.793   5.020  -1.718  0.00  0.00    -0.020 C 
ATOM     31  C   UNL     1      -1.861   4.546  -2.730  0.00  0.00    -0.020 C 
ATOM     32  C   UNL     1      -2.148   3.080  -2.354  0.00  0.00    -0.078 C 
ATOM     33  N   UNL     1      -1.314   2.787  -1.188  0.00  0.00    +0.385 N 
ATOM     34  H   UNL     1      -1.849   2.957  -0.328  0.00  0.00    -0.081 HD
ENDBRANCH  21  33
ENDBRANCH  20  21
ENDBRANCH   3  20
TORSDOF 7
