REMARK  Name = ZINC41332148
REMARK  5 active torsions:
REMARK  status: ('A' for Active; 'I' for Inactive)
REMARK    1  A    between atoms: C_1  and  C_2
REMARK    2  A    between atoms: C_9  and  N_22
REMARK    3  A    between atoms: C_10  and  C_11
REMARK    4  A    between atoms: N_13  and  C_14
REMARK    5  A    between atoms: C_23  and  C_25
REMARK                            x       y       z     vdW  Elec       q    Type
REMARK                         _______ _______ _______ _____ _____    ______ ____
ROOT
ATOM      1  C   UNL     1      -0.019   1.526   0.010  0.00  0.00    +0.008 C 
ATOM      2  C   UNL     1       0.002  -0.004   0.002  0.00  0.00    -0.009 C 
ATOM      3  C   UNL     1       0.724  -0.500  -1.254  0.00  0.00    +0.008 C 
ATOM      4  C   UNL     1       0.537  -2.012  -1.399  0.00  0.00    +0.037 C 
ATOM      5  C   UNL     1       0.935  -2.680  -0.091  0.00  0.00    -0.023 A 
ATOM      6  C   UNL     1       1.019  -1.977   1.059  0.00  0.00    -0.004 A 
ATOM      7  S   UNL     1       1.507  -3.164   2.276  0.00  0.00    -0.077 S 
ATOM      8  C   UNL     1       1.599  -4.539   1.315  0.00  0.00    +0.085 A 
ATOM      9  C   UNL     1       1.254  -4.090   0.050  0.00  0.00    +0.069 A 
ATOM     10  C   UNL     1       0.750  -0.515   1.242  0.00  0.00    +0.046 C 
ENDROOT
BRANCH   9  11
ATOM     11  C   UNL     1       1.212  -5.001  -1.098  0.00  0.00    +0.247 C 
ATOM     12  O   UNL     1       2.207  -5.171  -1.777  0.00  0.00    -0.270 OA
ATOM     13  N   UNL     1       0.070  -5.651  -1.402  0.00  0.00    -0.307 N 
ATOM     14  H   UNL     1      -0.723  -5.516  -0.860  0.00  0.00    +0.149 HD
BRANCH  13  15
ATOM     15  C   UNL     1       0.029  -6.561  -2.549  0.00  0.00    +0.096 C 
ATOM     16  C   UNL     1       0.520  -7.952  -2.115  0.00  0.00    +0.046 C 
ATOM     17  C   UNL     1       0.173  -8.963  -3.245  0.00  0.00    +0.168 C 
ATOM     18  S   UNL     1      -1.510  -8.378  -3.716  0.00  0.00    -0.029 S 
ATOM     19  O   UNL     1      -2.476  -9.101  -2.966  0.00  0.00    -0.174 OA
ATOM     20  O   UNL     1      -1.607  -8.342  -5.133  0.00  0.00    -0.174 OA
ATOM     21  C   UNL     1      -1.424  -6.657  -3.076  0.00  0.00    +0.188 C 
ENDBRANCH  13  15
ENDBRANCH   9  11
BRANCH   8  22
ATOM     22  N   UNL     1       1.940  -5.825   1.700  0.00  0.00    -0.273 N 
ATOM     23  C   UNL     1       2.250  -6.084   2.985  0.00  0.00    +0.284 C 
ATOM     24  O   UNL     1       2.230  -5.189   3.808  0.00  0.00    -0.266 OA
ATOM     25  H   UNL     1       1.957  -6.539   1.043  0.00  0.00    +0.156 HD
BRANCH  23  26
ATOM     26  C   UNL     1       2.613  -7.449   3.393  0.00  0.00    +0.191 A 
ATOM     27  C   UNL     1       2.937  -7.827   4.656  0.00  0.00    +0.063 A 
ATOM     28  C   UNL     1       3.221  -9.260   4.590  0.00  0.00    +0.024 A 
ATOM     29  C   UNL     1       3.603 -10.222   5.529  0.00  0.00    +0.012 A 
ATOM     30  C   UNL     1       3.795 -11.516   5.135  0.00  0.00    +0.004 A 
ATOM     31  C   UNL     1       3.612 -11.882   3.808  0.00  0.00    +0.042 A 
ATOM     32  C   UNL     1       3.235 -10.948   2.865  0.00  0.00    +0.166 A 
ATOM     33  C   UNL     1       3.034  -9.624   3.244  0.00  0.00    +0.171 A 
ATOM     34  O   UNL     1       2.668  -8.516   2.569  0.00  0.00    -0.447 OA
ATOM     35  F   UNL     1       3.062 -11.319   1.577  0.00  0.00    -0.202 F 
ENDBRANCH  23  26
ENDBRANCH   8  22
TORSDOF 4
