REMARK  Name = ZINC12497868
REMARK  10 active torsions:
REMARK  status: ('A' for Active; 'I' for Inactive)
REMARK    1  A    between atoms: C_1  and  C_2
REMARK    2  A    between atoms: N_11  and  C_12
REMARK    3  A    between atoms: C_12  and  C_13
REMARK    4  A    between atoms: C_13  and  N_52
REMARK    5  A    between atoms: C_14  and  N_52
REMARK    6  A    between atoms: C_15  and  N_52
REMARK    7  A    between atoms: C_16  and  C_18
REMARK    8  A    between atoms: C_18  and  C_19
REMARK    9  A    between atoms: C_19  and  S_20
REMARK   10  A    between atoms: S_20  and  C_21
REMARK                            x       y       z     vdW  Elec       q    Type
REMARK                         _______ _______ _______ _____ _____    ______ ____
ROOT
ATOM      1  C   UNL     1      -1.288  -0.783   0.011  0.00  0.00    +0.044 C 
ATOM      2  C   UNL     1       0.002  -0.004   0.002  0.00  0.00    -0.049 A 
ATOM      3  C   UNL     1      -0.017   1.383   0.010  0.00  0.00    +0.005 A 
ATOM      4  C   UNL     1       1.142   2.115   0.003  0.00  0.00    +0.029 A 
ATOM      5  C   UNL     1       2.402   1.474  -0.013  0.00  0.00    +0.080 A 
ATOM      6  C   UNL     1       2.382   0.060  -0.020  0.00  0.00    +0.041 A 
ATOM      7  C   UNL     1       1.217  -0.665  -0.013  0.00  0.00    +0.020 A 
ATOM      8  S   UNL     1       4.113  -0.342  -0.039  0.00  0.00    -0.052 S 
ATOM      9  C   UNL     1       4.733   1.335  -0.036  0.00  0.00    +0.168 A 
ATOM     10  N   UNL     1       3.627   2.042  -0.021  0.00  0.00    -0.224 NA
ATOM     11  N   UNL     1       6.046   1.775  -0.046  0.00  0.00    -0.252 N 
ATOM     12  C   UNL     1       7.056   0.883  -0.060  0.00  0.00    +0.222 C 
ATOM     13  O   UNL     1       6.815  -0.305  -0.064  0.00  0.00    -0.275 OA
ENDROOT
BRANCH  11  14
ATOM     14  C   UNL     1       6.337   3.211  -0.042  0.00  0.00    +0.097 C 
BRANCH  14  15
ATOM     15  C   UNL     1       6.452   3.704   1.402  0.00  0.00    -0.060 C 
BRANCH  15  18
ATOM     16  C   UNL     1       6.627   5.700   2.761  0.00  0.00    -0.097 C 
ATOM     17  C   UNL     1       8.071   5.414   0.839  0.00  0.00    -0.097 C 
ATOM     18  N   UNL     1       6.724   5.157   1.390  0.00  0.00    +0.377 N 
ATOM     19  H   UNL     1       6.026   5.622   0.797  0.00  0.00    -0.083 HD
ENDBRANCH  15  18
ENDBRANCH  14  15
ENDBRANCH  11  14
BRANCH  12  20
ATOM     20  C   UNL     1       8.485   1.363  -0.071  0.00  0.00    +0.107 C 
BRANCH  20  21
ATOM     21  C   UNL     1       9.427   0.157  -0.086  0.00  0.00    +0.083 C 
BRANCH  21  22
ATOM     22  S   UNL     1      11.147   0.735  -0.099  0.00  0.00    -0.125 S 
BRANCH  22  23
ATOM     23  C   UNL     1      12.095  -0.750  -0.115  0.00  0.00    +0.008 A 
ATOM     24  C   UNL     1      11.456  -1.984  -0.110  0.00  0.00    +0.016 A 
ATOM     25  C   UNL     1      12.201  -3.147  -0.128  0.00  0.00    +0.021 A 
ATOM     26  C   UNL     1      13.584  -3.083  -0.140  0.00  0.00    +0.041 A 
ATOM     27  C   UNL     1      14.223  -1.856  -0.140  0.00  0.00    +0.021 A 
ATOM     28  C   UNL     1      13.483  -0.690  -0.128  0.00  0.00    +0.016 A 
ATOM     29 CL   UNL     1      14.518  -4.547  -0.157  0.00  0.00    -0.084 Cl
ENDBRANCH  22  23
ENDBRANCH  21  22
ENDBRANCH  20  21
ENDBRANCH  12  20
TORSDOF 7
