REMARK  Name = ZINC35266738
REMARK  6 active torsions:
REMARK  status: ('A' for Active; 'I' for Inactive)
REMARK    1  A    between atoms: C_4  and  C_7
REMARK    2  A    between atoms: C_7  and  C_8
REMARK    3  A    between atoms: C_8  and  C_10
REMARK    4  A    between atoms: C_8  and  N_25
REMARK    5  A    between atoms: C_16  and  C_18
REMARK    6  A    between atoms: C_26  and  C_28
REMARK                            x       y       z     vdW  Elec       q    Type
REMARK                         _______ _______ _______ _____ _____    ______ ____
ROOT
ATOM      1  C   UNL     1       4.171  -0.963   1.399  0.00  0.00    +0.163 C 
ENDROOT
BRANCH   1   2
ATOM      2  C   UNL     1       5.422  -1.804   1.383  0.00  0.00    +0.239 C 
ATOM      3  O   UNL     1       6.446  -1.378   1.874  0.00  0.00    -0.273 OA
ATOM      4  N   UNL     1       5.402  -3.031   0.824  0.00  0.00    -0.262 N 
ATOM      5  C   UNL     1       6.555  -3.806   0.810  0.00  0.00    +0.188 A 
ATOM      6  N   UNL     1       7.765  -3.544   1.288  0.00  0.00    -0.125 NA
ATOM      7  N   UNL     1       8.713  -4.370   1.190  0.00  0.00    -0.140 NA
ATOM      8  C   UNL     1       8.557  -5.550   0.604  0.00  0.00    +0.134 A 
ATOM      9  S   UNL     1       6.829  -5.448   0.149  0.00  0.00    -0.030 S 
ATOM     10  H   UNL     1       4.583  -3.372   0.432  0.00  0.00    +0.157 HD
BRANCH   8  11
ATOM     11  C   UNL     1       9.532  -6.642   0.392  0.00  0.00    +0.009 A 
ATOM     12  C   UNL     1       9.143  -7.811  -0.264  0.00  0.00    +0.012 A 
ATOM     13  C   UNL     1      10.057  -8.825  -0.459  0.00  0.00    +0.020 A 
ATOM     14  C   UNL     1      11.357  -8.687  -0.004  0.00  0.00    +0.041 A 
ATOM     15  C   UNL     1      11.749  -7.529   0.648  0.00  0.00    +0.020 A 
ATOM     16  C   UNL     1      10.846  -6.505   0.843  0.00  0.00    +0.012 A 
ATOM     17 CL   UNL     1      12.502  -9.968  -0.252  0.00  0.00    -0.084 Cl
ENDBRANCH   8  11
ENDBRANCH   1   2
BRANCH   1  18
ATOM     18  N   UNL     1       4.451   0.315   2.057  0.00  0.00    -0.303 N 
ATOM     19  C   UNL     1       3.451   1.007   2.638  0.00  0.00    +0.217 C 
ATOM     20  O   UNL     1       2.319   0.571   2.616  0.00  0.00    -0.275 OA
ATOM     21  H   UNL     1       5.356   0.664   2.075  0.00  0.00    +0.149 HD
BRANCH  19  22
ATOM     22  C   UNL     1       3.739   2.322   3.316  0.00  0.00    +0.075 C 
ATOM     23  C   UNL     1       4.743   2.103   4.449  0.00  0.00    +0.013 C 
ATOM     24  C   UNL     1       5.035   3.438   5.136  0.00  0.00    +0.001 C 
ATOM     25  C   UNL     1       3.738   4.012   5.709  0.00  0.00    +0.000 C 
ATOM     26  C   UNL     1       2.733   4.231   4.576  0.00  0.00    +0.001 C 
ATOM     27  C   UNL     1       2.441   2.896   3.888  0.00  0.00    +0.013 C 
ENDBRANCH  19  22
ENDBRANCH   1  18
BRANCH   1  28
ATOM     28  C   UNL     1       3.711  -0.707  -0.038  0.00  0.00    +0.067 C 
BRANCH  28  32
ATOM     29  C   UNL     1      -0.017   1.378   0.010  0.00  0.00    +0.000 A 
ATOM     30  C   UNL     1       1.171   2.086   0.002  0.00  0.00    +0.000 A 
ATOM     31  C   UNL     1       2.377   1.411  -0.013  0.00  0.00    +0.004 A 
ATOM     32  C   UNL     1       2.396   0.029  -0.020  0.00  0.00    -0.045 A 
ATOM     33  C   UNL     1       1.208  -0.679  -0.012  0.00  0.00    +0.004 A 
ATOM     34  C   UNL     1       0.002  -0.004   0.002  0.00  0.00    +0.000 A 
ENDBRANCH  28  32
ENDBRANCH   1  28
TORSDOF 6
