REMARK  Name = ZINC64988698
REMARK  6 active torsions:
REMARK  status: ('A' for Active; 'I' for Inactive)
REMARK    1  A    between atoms: C_1  and  C_2
REMARK    2  A    between atoms: N_8  and  S_29
REMARK    3  A    between atoms: C_11  and  C_14
REMARK    4  A    between atoms: N_16  and  C_17
REMARK    5  A    between atoms: C_22  and  C_23
REMARK    6  A    between atoms: S_29  and  C_32
REMARK                            x       y       z     vdW  Elec       q    Type
REMARK                         _______ _______ _______ _____ _____    ______ ____
ROOT
ATOM      1  C   UNL     1      -0.038   1.508  -0.042  0.00  0.00    +0.044 C 
ATOM      2  C   UNL     1      -0.014   0.001  -0.040  0.00  0.00    -0.048 A 
ATOM      3  C   UNL     1      -0.005  -0.690  -1.237  0.00  0.00    +0.007 A 
ATOM      4  C   UNL     1       0.022  -2.073  -1.245  0.00  0.00    +0.048 A 
ATOM      5  C   UNL     1       0.037  -2.766  -0.048  0.00  0.00    +0.144 A 
ATOM      6  C   UNL     1       0.021  -2.071   1.157  0.00  0.00    +0.093 A 
ATOM      7  C   UNL     1       0.005  -0.686   1.161  0.00  0.00    +0.031 A 
ATOM      8  N   UNL     1       0.017  -2.793   2.360  0.00  0.00    -0.204 N 
ATOM      9  C   UNL     1      -1.159  -3.620   2.666  0.00  0.00    +0.135 C 
ATOM     10  C   UNL     1      -1.070  -4.952   1.945  0.00  0.00    +0.075 C 
ATOM     11  C   UNL     1      -1.094  -4.797   0.430  0.00  0.00    +0.260 C 
ATOM     12  O   UNL     1       0.077  -4.132  -0.039  0.00  0.00    -0.478 OA
ENDROOT
BRANCH  11  13
ATOM     13  C   UNL     1      -1.174  -6.161  -0.204  0.00  0.00    +0.258 C 
ATOM     14  O   UNL     1      -0.255  -6.569  -0.882  0.00  0.00    -0.271 OA
ATOM     15  N   UNL     1      -2.267  -6.928  -0.019  0.00  0.00    -0.282 N 
ATOM     16  H   UNL     1      -2.966  -6.637   0.587  0.00  0.00    +0.155 HD
BRANCH  15  17
ATOM     17  C   UNL     1      -2.392  -8.142  -0.699  0.00  0.00    +0.041 A 
ATOM     18  C   UNL     1      -1.722  -8.342  -1.897  0.00  0.00    +0.024 A 
ATOM     19  C   UNL     1      -1.848  -9.543  -2.568  0.00  0.00    +0.002 A 
ATOM     20  C   UNL     1      -2.639 -10.553  -2.050  0.00  0.00    +0.001 A 
ATOM     21  C   UNL     1      -3.311 -10.369  -0.858  0.00  0.00    +0.010 A 
ATOM     22  C   UNL     1      -3.188  -9.164  -0.170  0.00  0.00    +0.003 A 
BRANCH  22  23
ATOM     23  C   UNL     1      -3.903  -8.963   1.114  0.00  0.00    -0.016 A 
ATOM     24  C   UNL     1      -3.219  -8.480   2.227  0.00  0.00    +0.008 A 
ATOM     25  C   UNL     1      -3.889  -8.294   3.419  0.00  0.00    +0.001 A 
ATOM     26  C   UNL     1      -5.238  -8.588   3.510  0.00  0.00    +0.000 A 
ATOM     27  C   UNL     1      -5.922  -9.069   2.408  0.00  0.00    +0.001 A 
ATOM     28  C   UNL     1      -5.263  -9.252   1.210  0.00  0.00    +0.008 A 
ENDBRANCH  22  23
ENDBRANCH  15  17
ENDBRANCH  11  13
BRANCH   8  29
ATOM     29  S   UNL     1       1.299  -2.716   3.405  0.00  0.00    +0.043 S 
ATOM     30  O   UNL     1       1.258  -3.942   4.121  0.00  0.00    -0.155 OA
ATOM     31  O   UNL     1       2.415  -2.392   2.586  0.00  0.00    -0.155 OA
ATOM     32  C   UNL     1       0.915  -1.332   4.513  0.00  0.00    +0.218 C 
ENDBRANCH   8  29
TORSDOF 4
