REMARK  Name = ZINC10129701
REMARK  11 active torsions:
REMARK  status: ('A' for Active; 'I' for Inactive)
REMARK    1  A    between atoms: C_1  and  C_2
REMARK    2  A    between atoms: C_6  and  N_9
REMARK    3  A    between atoms: C_7  and  C_8
REMARK    4  A    between atoms: C_10  and  C_12
REMARK    5  A    between atoms: N_14  and  C_15
REMARK    6  A    between atoms: C_15  and  C_16
REMARK    7  A    between atoms: C_16  and  C_18
REMARK    8  A    between atoms: C_16  and  N_69
REMARK    9  A    between atoms: C_21  and  N_24
REMARK   10  A    between atoms: N_24  and  C_25
REMARK   11  A    between atoms: N_24  and  C_26
REMARK                            x       y       z     vdW  Elec       q    Type
REMARK                         _______ _______ _______ _____ _____    ______ ____
ROOT
ATOM      1  C   UNL     1      -2.571   8.537   0.267  0.00  0.00    -0.020 C 
ENDROOT
BRANCH   1  11
ATOM      2  C   UNL     1      -3.186   6.436   1.306  0.00  0.00    -0.073 C 
ATOM      3  C   UNL     1      -3.624   5.851   2.648  0.00  0.00    +0.017 C 
ATOM      4  C   UNL     1      -4.957   6.428   3.050  0.00  0.00    -0.048 A 
ATOM      5  C   UNL     1      -5.688   5.783   4.036  0.00  0.00    +0.004 A 
ATOM      6  C   UNL     1      -6.909   6.283   4.440  0.00  0.00    +0.000 A 
ATOM      7  C   UNL     1      -7.407   7.434   3.858  0.00  0.00    +0.000 A 
ATOM      8  C   UNL     1      -6.681   8.077   2.875  0.00  0.00    +0.002 A 
ATOM      9  C   UNL     1      -5.454   7.574   2.467  0.00  0.00    -0.061 A 
ATOM     10  C   UNL     1      -4.702   8.308   1.388  0.00  0.00    -0.042 C 
ATOM     11  N   UNL     1      -3.285   7.906   1.400  0.00  0.00    +0.388 N 
ATOM     12  H   UNL     1      -2.856   8.215   2.280  0.00  0.00    -0.080 HD
ENDBRANCH   1  11
BRANCH   1  13
ATOM     13  C   UNL     1      -2.661  10.035   0.402  0.00  0.00    -0.059 A 
ATOM     14  C   UNL     1      -2.561  10.623   1.649  0.00  0.00    +0.004 A 
ATOM     15  C   UNL     1      -2.638  11.996   1.775  0.00  0.00    +0.023 A 
ATOM     16  C   UNL     1      -2.827  12.786   0.648  0.00  0.00    +0.029 A 
ATOM     17  C   UNL     1      -2.932  12.192  -0.603  0.00  0.00    +0.023 A 
ATOM     18  C   UNL     1      -2.849  10.819  -0.722  0.00  0.00    +0.004 A 
BRANCH  16  19
ATOM     19  N   UNL     1      -2.911  14.175   0.773  0.00  0.00    -0.336 N 
ATOM     20  C   UNL     1      -3.231  14.997  -0.397  0.00  0.00    +0.129 C 
ATOM     21  C   UNL     1      -2.679  14.809   2.073  0.00  0.00    +0.129 C 
ENDBRANCH  16  19
ENDBRANCH   1  13
BRANCH   1  22
ATOM     22  C   UNL     1      -1.102   8.109   0.303  0.00  0.00    +0.094 C 
BRANCH  22  25
ATOM     23  C   UNL     1       0.881   8.326  -1.096  0.00  0.00    +0.299 C 
ATOM     24  O   UNL     1       1.462   7.577  -0.339  0.00  0.00    -0.265 OA
ATOM     25  N   UNL     1      -0.405   8.656  -0.864  0.00  0.00    -0.309 N 
ATOM     26  H   UNL     1      -0.870   9.255  -1.469  0.00  0.00    +0.149 HD
BRANCH  23  28
ATOM     27  N   UNL     1       2.877   8.554  -2.519  0.00  0.00    -0.278 N 
ATOM     28  C   UNL     1       1.591   8.883  -2.286  0.00  0.00    +0.303 C 
ATOM     29  O   UNL     1       1.010   9.633  -3.044  0.00  0.00    -0.265 OA
ATOM     30  H   UNL     1       3.318   7.898  -1.957  0.00  0.00    +0.155 HD
BRANCH  27  36
ATOM     31  C   UNL     1       6.537   8.419  -5.797  0.00  0.00    +0.044 C 
ATOM     32  C   UNL     1       5.352   9.115  -5.177  0.00  0.00    -0.046 A 
ATOM     33  C   UNL     1       4.955  10.353  -5.647  0.00  0.00    +0.004 A 
ATOM     34  C   UNL     1       3.869  10.995  -5.081  0.00  0.00    +0.002 A 
ATOM     35  C   UNL     1       3.177  10.401  -4.043  0.00  0.00    +0.023 A 
ATOM     36  C   UNL     1       3.574   9.157  -3.569  0.00  0.00    +0.037 A 
ATOM     37  C   UNL     1       4.665   8.515  -4.140  0.00  0.00    -0.026 A 
ATOM     38  C   UNL     1       5.099   7.165  -3.629  0.00  0.00    +0.046 C 
ENDBRANCH  27  36
ENDBRANCH  23  28
ENDBRANCH  22  25
ENDBRANCH   1  22
TORSDOF 7
