REMARK  Name = ZINC15859405
REMARK  5 active torsions:
REMARK  status: ('A' for Active; 'I' for Inactive)
REMARK    1  A    between atoms: C_7  and  N_24
REMARK    2  A    between atoms: C_8  and  C_10
REMARK    3  A    between atoms: C_10  and  C_12
REMARK    4  A    between atoms: C_10  and  N_54
REMARK    5  A    between atoms: C_25  and  C_27
REMARK                            x       y       z     vdW  Elec       q    Type
REMARK                         _______ _______ _______ _____ _____    ______ ____
ROOT
ATOM      1  C   UNL     1       3.973  -0.455  -0.413  0.00  0.00    +0.001 A 
ATOM      2  C   UNL     1       4.927   0.519  -0.669  0.00  0.00    +0.004 A 
ATOM      3  C   UNL     1       4.562   1.842  -0.803  0.00  0.00    +0.047 A 
ATOM      4  C   UNL     1       3.228   2.208  -0.670  0.00  0.00    +0.137 A 
ATOM      5  C   UNL     1       2.268   1.217  -0.408  0.00  0.00    +0.042 A 
ATOM      6  C   UNL     1       2.654  -0.116  -0.283  0.00  0.00    +0.013 A 
ATOM      7  C   UNL     1       0.982   1.926  -0.331  0.00  0.00    +0.082 A 
ATOM      8  C   UNL     1       1.260   3.226  -0.534  0.00  0.00    +0.118 A 
ATOM      9  O   UNL     1       2.582   3.389  -0.733  0.00  0.00    -0.459 OA
ENDROOT
BRANCH   7  10
ATOM     10  N   UNL     1      -0.281   1.360  -0.089  0.00  0.00    -0.278 N 
ATOM     11  C   UNL     1      -0.516   0.073  -0.413  0.00  0.00    +0.255 C 
ATOM     12  O   UNL     1       0.344  -0.580  -0.975  0.00  0.00    -0.269 OA
ATOM     13  H   UNL     1      -0.985   1.896   0.307  0.00  0.00    +0.155 HD
BRANCH  11  14
ATOM     14  C   UNL     1      -1.807  -0.541  -0.087  0.00  0.00    +0.074 A 
ATOM     15  C   UNL     1      -2.246  -1.833  -0.330  0.00  0.00    +0.021 A 
ATOM     16  C   UNL     1      -3.516  -2.150   0.084  0.00  0.00    +0.008 A 
ATOM     17  C   UNL     1      -4.269  -1.201   0.700  0.00  0.00    +0.046 A 
ATOM     18  S   UNL     1      -3.220   0.179   0.730  0.00  0.00    -0.092 S 
ENDBRANCH  11  14
ENDBRANCH   7  10
BRANCH   8  19
ATOM     19  C   UNL     1       0.241   4.337  -0.538  0.00  0.00    +0.032 C 
BRANCH  19  20
ATOM     20  C   UNL     1       0.360   5.131   0.737  0.00  0.00    -0.051 A 
ATOM     21  C   UNL     1      -0.591   4.989   1.731  0.00  0.00    +0.002 A 
ATOM     22  C   UNL     1      -0.483   5.716   2.901  0.00  0.00    +0.003 A 
ATOM     23  C   UNL     1       0.575   6.588   3.079  0.00  0.00    +0.038 A 
ATOM     24  C   UNL     1       1.528   6.731   2.085  0.00  0.00    +0.124 A 
ATOM     25  C   UNL     1       1.422   5.997   0.915  0.00  0.00    +0.040 A 
ATOM     26  F   UNL     1       2.563   7.582   2.258  0.00  0.00    -0.205 F 
ENDBRANCH  19  20
BRANCH  19  32
ATOM     27  C   UNL     1      -0.490   6.318  -1.721  0.00  0.00    -0.077 C 
ATOM     28  C   UNL     1      -0.122   7.293  -2.842  0.00  0.00    -0.019 C 
ATOM     29  C   UNL     1      -0.120   6.548  -4.180  0.00  0.00    -0.004 C 
ATOM     30  C   UNL     1       0.866   5.379  -4.102  0.00  0.00    -0.019 C 
ATOM     31  C   UNL     1       0.469   4.459  -2.945  0.00  0.00    -0.077 C 
ATOM     32  N   UNL     1       0.510   5.230  -1.684  0.00  0.00    +0.389 N 
ATOM     33  H   UNL     1       1.445   5.640  -1.575  0.00  0.00    -0.080 HD
ENDBRANCH  19  32
ENDBRANCH   8  19
TORSDOF 5
