REMARK  Name = ZINC36510686
REMARK  21 active torsions:
REMARK  status: ('A' for Active; 'I' for Inactive)
REMARK    1  A    between atoms: C_1  and  C_2
REMARK    2  A    between atoms: C_2  and  C_3
REMARK    3  A    between atoms: C_3  and  C_4
REMARK    4  A    between atoms: C_4  and  C_5
REMARK    5  A    between atoms: C_5  and  C_6
REMARK    6  A    between atoms: C_6  and  N_7
REMARK    7  A    between atoms: N_7  and  C_8
REMARK    8  A    between atoms: C_8  and  C_10
REMARK    9  A    between atoms: C_8  and  C_13
REMARK   10  A    between atoms: C_11  and  C_12
REMARK   11  A    between atoms: N_15  and  C_16
REMARK   12  A    between atoms: C_16  and  S_17
REMARK   13  A    between atoms: S_17  and  C_20
REMARK   14  A    between atoms: C_23  and  C_26
REMARK   15  A    between atoms: C_27  and  C_29
REMARK   16  A    between atoms: C_29  and  C_31
REMARK   17  A    between atoms: C_29  and  C_33
REMARK   18  A    between atoms: C_31  and  C_32
REMARK   19  A    between atoms: C_33  and  C_34
REMARK   20  A    between atoms: C_34  and  C_35
REMARK   21  A    between atoms: C_35  and  C_36
REMARK                            x       y       z     vdW  Elec       q    Type
REMARK                         _______ _______ _______ _____ _____    ______ ____
ROOT
ATOM      1  C   UNL     1       2.807  -4.392  -3.920  0.00  0.00    +0.185 C 
ENDROOT
BRANCH   1   2
ATOM      2  C   UNL     1       3.237  -5.084  -5.188  0.00  0.00    +0.239 C 
ATOM      3  O   UNL     1       2.409  -5.406  -6.014  0.00  0.00    -0.273 OA
ATOM      4  N   UNL     1       4.541  -5.346  -5.404  0.00  0.00    -0.294 N 
ATOM      5  H   UNL     1       5.204  -5.089  -4.744  0.00  0.00    +0.150 HD
BRANCH   4   6
ATOM      6  C   UNL     1       4.959  -6.019  -6.637  0.00  0.00    +0.278 C 
BRANCH   6   7
ATOM      7  S   UNL     1       5.450  -4.779  -7.866  0.00  0.00    +0.013 S 
ATOM      8  O   UNL     1       5.918  -5.418  -9.046  0.00  0.00    -0.168 OA
ATOM      9  O   UNL     1       4.474  -3.749  -7.939  0.00  0.00    -0.168 OA
BRANCH   7  10
ATOM     10  C   UNL     1       6.875  -4.001  -7.181  0.00  0.00    +0.090 A 
ATOM     11  C   UNL     1       6.733  -2.890  -6.371  0.00  0.00    +0.027 A 
ATOM     12  C   UNL     1       7.851  -2.280  -5.833  0.00  0.00    +0.005 A 
ATOM     13  C   UNL     1       9.110  -2.781  -6.105  0.00  0.00    -0.050 A 
ATOM     14  C   UNL     1       9.252  -3.893  -6.915  0.00  0.00    +0.005 A 
ATOM     15  C   UNL     1       8.134  -4.505  -7.449  0.00  0.00    +0.027 A 
ATOM     16  C   UNL     1      10.329  -2.115  -5.520  0.00  0.00    +0.044 C 
ENDBRANCH   7  10
ENDBRANCH   6   7
ENDBRANCH   4   6
ENDBRANCH   1   2
BRANCH   1  17
ATOM     17  N   UNL     1       1.349  -4.454  -3.800  0.00  0.00    -0.286 N 
ATOM     18  C   UNL     1       0.571  -3.805  -4.689  0.00  0.00    +0.219 C 
ATOM     19  O   UNL     1       1.076  -3.081  -5.521  0.00  0.00    -0.275 OA
BRANCH  17  20
ATOM     20  C   UNL     1       0.735  -5.221  -2.714  0.00  0.00    +0.109 C 
BRANCH  20  21
ATOM     21  C   UNL     1       0.677  -4.360  -1.450  0.00  0.00    +0.019 C 
BRANCH  21  22
ATOM     22  C   UNL     1      -0.084  -5.111  -0.356  0.00  0.00    +0.002 C 
BRANCH  22  23
ATOM     23  C   UNL     1      -0.141  -4.250   0.908  0.00  0.00    -0.000 C 
BRANCH  23  25
ATOM     24  C   UNL     1      -0.960  -4.140   3.266  0.00  0.00    +0.004 C 
ATOM     25  C   UNL     1      -0.902  -5.001   2.002  0.00  0.00    -0.003 C 
ENDBRANCH  23  25
ENDBRANCH  22  23
ENDBRANCH  21  22
ENDBRANCH  20  21
ENDBRANCH  17  20
BRANCH  18  26
ATOM     26  C   UNL     1      -0.925  -3.979  -4.650  0.00  0.00    +0.075 C 
BRANCH  26  27
ATOM     27  C   UNL     1      -1.527  -2.993  -3.647  0.00  0.00    +0.009 C 
ATOM     28  C   UNL     1      -1.074  -1.573  -3.993  0.00  0.00    +0.004 C 
ENDBRANCH  26  27
BRANCH  26  29
ATOM     29  C   UNL     1      -1.507  -3.711  -6.040  0.00  0.00    +0.013 C 
BRANCH  29  30
ATOM     30  C   UNL     1      -3.014  -3.975  -6.021  0.00  0.00    +0.000 C 
BRANCH  30  31
ATOM     31  C   UNL     1      -3.572  -3.839  -7.439  0.00  0.00    -0.003 C 
ATOM     32  C   UNL     1      -5.079  -4.104  -7.421  0.00  0.00    +0.004 C 
ENDBRANCH  30  31
ENDBRANCH  29  30
ENDBRANCH  26  29
ENDBRANCH  18  26
ENDBRANCH   1  17
BRANCH   1  33
ATOM     33  C   UNL     1       3.247  -2.951  -3.961  0.00  0.00    +0.000 C 
ATOM     34  C   UNL     1       4.041  -2.482  -3.030  0.00  0.00    -0.032 C 
ATOM     35  C   UNL     1       4.601  -3.408  -1.981  0.00  0.00    +0.035 C 
ENDBRANCH   1  33
TORSDOF 16
