REMARK  Name = ZINC15885205
REMARK  5 active torsions:
REMARK  status: ('A' for Active; 'I' for Inactive)
REMARK    1  A    between atoms: C_1  and  C_2
REMARK    2  A    between atoms: C_5  and  C_9
REMARK    3  A    between atoms: C_9  and  C_19
REMARK    4  A    between atoms: N_10  and  N_11
REMARK    5  A    between atoms: C_12  and  C_14
REMARK                            x       y       z     vdW  Elec       q    Type
REMARK                         _______ _______ _______ _____ _____    ______ ____
ROOT
ATOM      1  C   UNL     1       0.122  -4.224  -0.021  0.00  0.00    +0.074 C 
ATOM      2  N   UNL     1       1.267  -4.829  -0.133  0.00  0.00    -0.184 NA
ATOM      3  C   UNL     1      -1.147  -5.028   0.095  0.00  0.00    +0.068 C 
ENDROOT
BRANCH   1   8
ATOM      4  C   UNL     1      -0.098   1.500  -0.051  0.00  0.00    +0.086 C 
ATOM      5  C   UNL     1      -0.040  -0.005  -0.026  0.00  0.00    +0.110 A 
ATOM      6  C   UNL     1      -0.003  -0.643   1.161  0.00  0.00    +0.093 A 
ATOM      7  C   UNL     1       0.051  -2.050   1.202  0.00  0.00    +0.198 A 
ATOM      8  C   UNL     1       0.066  -2.755  -0.008  0.00  0.00    +0.128 A 
ATOM      9  C   UNL     1       0.025  -2.021  -1.218  0.00  0.00    +0.350 A 
ATOM     10  O   UNL     1       0.037  -2.606  -2.287  0.00  0.00    -0.244 OA
ATOM     11  O   UNL     1      -0.031  -0.679  -1.185  0.00  0.00    -0.427 OA
ATOM     12  O   UNL     1       0.089  -2.706   2.385  0.00  0.00    -0.287 OA
ENDBRANCH   1   8
BRANCH   2  13
ATOM     13  N   UNL     1       1.321  -6.229  -0.146  0.00  0.00    -0.202 N 
ATOM     14  C   UNL     1       2.508  -6.856  -0.262  0.00  0.00    +0.270 C 
ATOM     15  O   UNL     1       3.534  -6.207  -0.356  0.00  0.00    -0.268 OA
ATOM     16  H   UNL     1       0.504  -6.746  -0.071  0.00  0.00    +0.178 HD
BRANCH  14  17
ATOM     17  C   UNL     1       2.565  -8.321  -0.275  0.00  0.00    +0.075 A 
ATOM     18  C   UNL     1       3.670  -9.152  -0.379  0.00  0.00    +0.021 A 
ATOM     19  C   UNL     1       3.406 -10.501  -0.363  0.00  0.00    +0.008 A 
ATOM     20  C   UNL     1       2.121 -10.919  -0.250  0.00  0.00    +0.046 A 
ATOM     21  S   UNL     1       1.232  -9.498  -0.154  0.00  0.00    -0.092 S 
ENDBRANCH  14  17
ENDBRANCH   2  13
TORSDOF 3
