REMARK  Name = ZINC39547789
REMARK  7 active torsions:
REMARK  status: ('A' for Active; 'I' for Inactive)
REMARK    1  A    between atoms: C_3  and  C_9
REMARK    2  A    between atoms: N_11  and  C_12
REMARK    3  A    between atoms: C_12  and  C_13
REMARK    4  A    between atoms: N_15  and  C_16
REMARK    5  A    between atoms: C_16  and  C_17
REMARK    6  A    between atoms: N_19  and  C_20
REMARK    7  A    between atoms: C_25  and  C_28
REMARK                            x       y       z     vdW  Elec       q    Type
REMARK                         _______ _______ _______ _____ _____    ______ ____
ROOT
ATOM      1  C   UNL     1       4.606   5.737  -0.013  0.00  0.00    +0.231 C 
ATOM      2  O   UNL     1       3.458   6.127   0.000  0.00  0.00    -0.274 OA
ATOM      3  N   UNL     1       5.620   6.625  -0.018  0.00  0.00    -0.305 N 
ATOM      4  H   UNL     1       6.538   6.312  -0.029  0.00  0.00    +0.149 HD
ENDROOT
BRANCH   1   5
ATOM      5  C   UNL     1       4.899   4.259  -0.023  0.00  0.00    +0.200 C 
BRANCH   5   8
ATOM      6  C   UNL     1       3.655   2.163  -0.022  0.00  0.00    +0.246 C 
ATOM      7  O   UNL     1       4.715   1.568  -0.035  0.00  0.00    -0.270 OA
ATOM      8  N   UNL     1       3.639   3.511  -0.015  0.00  0.00    -0.303 N 
ATOM      9  H   UNL     1       2.793   3.986  -0.004  0.00  0.00    +0.150 HD
BRANCH   6  12
ATOM     10  C   UNL     1      -0.017   1.381   0.010  0.00  0.00    +0.021 A 
ATOM     11  C   UNL     1       1.166   2.090   0.002  0.00  0.00    +0.016 A 
ATOM     12  C   UNL     1       2.385   1.410  -0.013  0.00  0.00    +0.055 A 
ATOM     13  C   UNL     1       2.398   0.012  -0.021  0.00  0.00    +0.054 A 
ATOM     14  C   UNL     1       1.207  -0.686  -0.013  0.00  0.00    +0.040 A 
ATOM     15  C   UNL     1       0.002  -0.004   0.002  0.00  0.00    +0.042 A 
ATOM     16 CL   UNL     1      -1.492  -0.889   0.011  0.00  0.00    -0.083 Cl
ATOM     17 CL   UNL     1       3.908  -0.844  -0.040  0.00  0.00    -0.083 Cl
ENDBRANCH   6  12
ENDBRANCH   5   8
ENDBRANCH   1   5
BRANCH   3  18
ATOM     18  C   UNL     1       5.335   8.062  -0.009  0.00  0.00    +0.200 C 
BRANCH  18  19
ATOM     19  C   UNL     1       6.631   8.831  -0.017  0.00  0.00    +0.230 C 
ATOM     20  O   UNL     1       7.688   8.237  -0.030  0.00  0.00    -0.274 OA
ATOM     21  N   UNL     1       6.615  10.179  -0.010  0.00  0.00    -0.311 N 
ATOM     22  H   UNL     1       5.769  10.653   0.000  0.00  0.00    +0.149 HD
BRANCH  21  23
ATOM     23  C   UNL     1       7.875  10.926  -0.019  0.00  0.00    +0.074 C 
ATOM     24  C   UNL     1       8.391  11.071   1.414  0.00  0.00    +0.022 C 
ATOM     25  C   UNL     1       7.358  11.823   2.255  0.00  0.00    +0.002 C 
ATOM     26  C   UNL     1       7.123  13.211   1.655  0.00  0.00    +0.012 C 
ATOM     27  C   UNL     1       6.607  13.066   0.222  0.00  0.00    +0.095 C 
ATOM     28  C   UNL     1       7.640  12.314  -0.619  0.00  0.00    +0.034 C 
BRANCH  27  29
ATOM     29  C   UNL     1       6.372  14.453  -0.379  0.00  0.00    +0.393 C 
ATOM     30  F   UNL     1       7.575  15.167  -0.387  0.00  0.00    -0.170 F 
ATOM     31  F   UNL     1       5.900  14.321  -1.689  0.00  0.00    -0.170 F 
ATOM     32  F   UNL     1       5.427  15.141   0.391  0.00  0.00    -0.170 F 
ENDBRANCH  27  29
ENDBRANCH  21  23
ENDBRANCH  18  19
ENDBRANCH   3  18
TORSDOF 7
