REMARK  Name = ZINC35135835
REMARK  14 active torsions:
REMARK  status: ('A' for Active; 'I' for Inactive)
REMARK    1  A    between atoms: C_1  and  C_2
REMARK    2  A    between atoms: C_2  and  N_3
REMARK    3  A    between atoms: N_3  and  C_4
REMARK    4  A    between atoms: C_4  and  C_5
REMARK    5  A    between atoms: N_7  and  C_8
REMARK    6  A    between atoms: C_10  and  C_19
REMARK    7  A    between atoms: N_12  and  C_13
REMARK    8  A    between atoms: C_19  and  C_20
REMARK    9  A    between atoms: C_19  and  C_21
REMARK   10  A    between atoms: C_19  and  C_22
REMARK   11  A    between atoms: C_23  and  C_25
REMARK   12  A    between atoms: C_25  and  C_26
REMARK   13  A    between atoms: C_26  and  C_27
REMARK   14  A    between atoms: C_26  and  C_28
REMARK                            x       y       z     vdW  Elec       q    Type
REMARK                         _______ _______ _______ _____ _____    ______ ____
ROOT
ATOM      1  C   UNL     1       3.950  -3.875  -0.299  0.00  0.00    +0.129 A 
ATOM      2  C   UNL     1       3.022  -4.824   0.005  0.00  0.00    +0.069 A 
ATOM      3  C   UNL     1       3.704  -6.000   0.334  0.00  0.00    +0.071 A 
ATOM      4  N   UNL     1       4.989  -5.776   0.235  0.00  0.00    -0.169 NA
ATOM      5  N   UNL     1       5.177  -4.447  -0.168  0.00  0.00    -0.218 N 
ENDROOT
BRANCH   5   6
ATOM      6  C   UNL     1       6.410  -3.819  -0.393  0.00  0.00    +0.067 A 
ATOM      7  C   UNL     1       6.532  -2.865  -1.394  0.00  0.00    +0.028 A 
ATOM      8  C   UNL     1       7.747  -2.247  -1.613  0.00  0.00    +0.002 A 
ATOM      9  C   UNL     1       8.843  -2.579  -0.837  0.00  0.00    +0.000 A 
ATOM     10  C   UNL     1       8.725  -3.529   0.161  0.00  0.00    +0.002 A 
ATOM     11  C   UNL     1       7.510  -4.146   0.389  0.00  0.00    +0.028 A 
ENDBRANCH   5   6
BRANCH   1  14
ATOM     12  C   UNL     1       2.417  -2.123  -0.770  0.00  0.00    +0.236 C 
ATOM     13  O   UNL     1       1.499  -2.875  -0.518  0.00  0.00    -0.274 OA
ATOM     14  N   UNL     1       3.689  -2.559  -0.680  0.00  0.00    -0.269 N 
ATOM     15  H   UNL     1       4.423  -1.958  -0.881  0.00  0.00    +0.156 HD
BRANCH  12  16
ATOM     16  C   UNL     1       2.135  -0.701  -1.182  0.00  0.00    +0.203 C 
BRANCH  16  17
ATOM     17  N   UNL     1       0.688  -0.476  -1.203  0.00  0.00    -0.293 N 
ATOM     18  C   UNL     1      -0.013  -0.705  -2.332  0.00  0.00    +0.216 C 
ATOM     19  O   UNL     1       0.555  -1.096  -3.330  0.00  0.00    -0.276 OA
BRANCH  17  21
ATOM     20  C   UNL     1      -0.019   1.526   0.010  0.00  0.00    +0.024 C 
ATOM     21  C   UNL     1       0.002  -0.004   0.002  0.00  0.00    +0.105 C 
ENDBRANCH  17  21
BRANCH  18  22
ATOM     22  C   UNL     1      -1.502  -0.473  -2.354  0.00  0.00    +0.099 C 
BRANCH  22  23
ATOM     23  C   UNL     1      -2.049  -0.805  -3.744  0.00  0.00    -0.008 C 
ATOM     24  C   UNL     1      -1.867  -2.298  -4.021  0.00  0.00    +0.008 C 
ATOM     25  C   UNL     1      -3.537  -0.452  -3.803  0.00  0.00    +0.008 C 
ENDBRANCH  22  23
ENDBRANCH  18  22
ENDBRANCH  16  17
ENDBRANCH  12  16
ENDBRANCH   1  14
BRANCH   3  26
ATOM     26  C   UNL     1       3.065  -7.304   0.736  0.00  0.00    +0.006 C 
ATOM     27  C   UNL     1       2.476  -7.986  -0.500  0.00  0.00    +0.017 C 
ATOM     28  C   UNL     1       4.120  -8.215   1.367  0.00  0.00    +0.017 C 
ATOM     29  C   UNL     1       1.951  -7.036   1.750  0.00  0.00    +0.017 C 
ENDBRANCH   3  26
TORSDOF 8
