REMARK  Name = ZINC06395292
REMARK  7 active torsions:
REMARK  status: ('A' for Active; 'I' for Inactive)
REMARK    1  A    between atoms: C_1  and  C_2
REMARK    2  A    between atoms: C_2  and  C_3
REMARK    3  A    between atoms: C_8  and  N_9
REMARK    4  A    between atoms: C_10  and  C_15
REMARK    5  A    between atoms: C_13  and  S_14
REMARK    6  A    between atoms: C_15  and  O_16
REMARK    7  A    between atoms: O_16  and  C_17
REMARK                            x       y       z     vdW  Elec       q    Type
REMARK                         _______ _______ _______ _____ _____    ______ ____
ROOT
ATOM      1  N   UNL     1      -1.720  -1.035   2.358  0.00  0.00    -0.272 N 
ATOM      2  C   UNL     1      -1.340  -1.060   3.674  0.00  0.00    +0.164 A 
ATOM      3  N   UNL     1      -0.285  -1.821   3.757  0.00  0.00    -0.131 NA
ATOM      4  N   UNL     1       0.030  -2.270   2.595  0.00  0.00    -0.122 NA
ATOM      5  C   UNL     1      -0.816  -1.820   1.697  0.00  0.00    +0.193 A 
ENDROOT
BRANCH   1  11
ATOM      6  C   UNL     1      -2.680   0.998   1.468  0.00  0.00    -0.024 A 
ATOM      7  C   UNL     1      -3.750   1.674   0.915  0.00  0.00    +0.005 A 
ATOM      8  C   UNL     1      -4.949   1.019   0.703  0.00  0.00    +0.000 A 
ATOM      9  C   UNL     1      -5.080  -0.316   1.041  0.00  0.00    +0.002 A 
ATOM     10  C   UNL     1      -4.013  -0.997   1.593  0.00  0.00    +0.026 A 
ATOM     11  C   UNL     1      -2.807  -0.343   1.803  0.00  0.00    +0.053 A 
BRANCH   6  13
ATOM     12  C   UNL     1      -0.452   1.493   0.498  0.00  0.00    +0.009 C 
ATOM     13  C   UNL     1      -1.374   1.713   1.699  0.00  0.00    +0.034 C 
ENDBRANCH   6  13
ENDBRANCH   1  11
BRANCH   5  14
ATOM     14  S   UNL     1      -0.790  -2.163  -0.031  0.00  0.00    -0.103 S 
ATOM     15  H   UNL     1       0.096  -1.157  -0.467  0.00  0.00    +0.110 HD
ENDBRANCH   5  14
BRANCH   2  16
ATOM     16  C   UNL     1      -2.016  -0.342   4.813  0.00  0.00    +0.236 C 
BRANCH  16  17
ATOM     17  O   UNL     1      -3.018  -1.188   5.381  0.00  0.00    -0.375 OA
ATOM     18  C   UNL     1      -3.724  -0.600   6.475  0.00  0.00    +0.194 C 
ENDBRANCH  16  17
ENDBRANCH   2  16
TORSDOF 5
