REMARK  Name = ZINC66600448
REMARK  7 active torsions:
REMARK  status: ('A' for Active; 'I' for Inactive)
REMARK    1  A    between atoms: C_1  and  C_2
REMARK    2  A    between atoms: C_2  and  C_7
REMARK    3  A    between atoms: C_7  and  N_8
REMARK    4  A    between atoms: N_11  and  C_12
REMARK    5  A    between atoms: C_12  and  C_13
REMARK    6  A    between atoms: C_13  and  N_14
REMARK    7  A    between atoms: C_15  and  C_17
REMARK                            x       y       z     vdW  Elec       q    Type
REMARK                         _______ _______ _______ _____ _____    ______ ____
ROOT
ATOM      1  N   UNL     1      -2.117  -0.054  -1.217  0.00  0.00    -0.299 N 
ATOM      2  C   UNL     1      -3.397  -0.406  -1.450  0.00  0.00    +0.300 C 
ATOM      3  O   UNL     1      -3.980  -1.132  -0.668  0.00  0.00    -0.253 OA
ATOM      4  N   UNL     1      -4.032   0.047  -2.549  0.00  0.00    -0.298 N 
ATOM      5  H   UNL     1      -1.653   0.525  -1.841  0.00  0.00    +0.150 HD
ATOM      6  H   UNL     1      -3.567   0.627  -3.173  0.00  0.00    +0.150 HD
ENDROOT
BRANCH   1   7
ATOM      7  C   UNL     1      -1.428  -0.547  -0.022  0.00  0.00    +0.112 C 
BRANCH   7   9
ATOM      8  C   UNL     1      -0.019   1.526   0.010  0.00  0.00    +0.013 C 
ATOM      9  C   UNL     1       0.002  -0.004   0.002  0.00  0.00    -0.016 C 
ATOM     10  C   UNL     1       0.783  -0.515  -1.226  0.00  0.00    +0.008 C 
ATOM     11  C   UNL     1       2.213  -0.768  -0.688  0.00  0.00    +0.001 C 
ATOM     12  C   UNL     1       1.950  -1.339   0.728  0.00  0.00    +0.001 C 
ATOM     13  C   UNL     1       0.744  -0.528   1.244  0.00  0.00    +0.008 C 
ENDBRANCH   7   9
ENDBRANCH   1   7
BRANCH   4  14
ATOM     14  C   UNL     1      -5.423  -0.335  -2.802  0.00  0.00    +0.124 C 
BRANCH  14  15
ATOM     15  C   UNL     1      -5.900   0.310  -4.105  0.00  0.00    +0.123 C 
BRANCH  15  16
ATOM     16  N   UNL     1      -7.292  -0.072  -4.358  0.00  0.00    -0.310 N 
ATOM     17  C   UNL     1      -7.926   0.381  -5.458  0.00  0.00    +0.247 C 
ATOM     18  O   UNL     1      -7.343   1.107  -6.240  0.00  0.00    -0.270 OA
ATOM     19  H   UNL     1      -7.757  -0.652  -3.734  0.00  0.00    +0.149 HD
BRANCH  17  20
ATOM     20  C   UNL     1      -9.329  -0.004  -5.713  0.00  0.00    +0.072 A 
ATOM     21  C   UNL     1     -10.003  -0.834  -4.814  0.00  0.00    +0.016 A 
ATOM     22  C   UNL     1     -11.313  -1.189  -5.057  0.00  0.00    +0.001 A 
ATOM     23  C   UNL     1     -11.961  -0.727  -6.190  0.00  0.00    +0.003 A 
ATOM     24  C   UNL     1     -11.302   0.093  -7.086  0.00  0.00    +0.039 A 
ATOM     25  C   UNL     1      -9.990   0.464  -6.852  0.00  0.00    +0.135 A 
ATOM     26  F   UNL     1      -9.348   1.270  -7.725  0.00  0.00    -0.205 F 
ENDBRANCH  17  20
ENDBRANCH  15  16
ENDBRANCH  14  15
ENDBRANCH   4  14
TORSDOF 6
