REMARK  Name = ZINC13100418
REMARK  10 active torsions:
REMARK  status: ('A' for Active; 'I' for Inactive)
REMARK    1  A    between atoms: C_1  and  C_2
REMARK    2  A    between atoms: C_2  and  N_3
REMARK    3  A    between atoms: N_3  and  C_4
REMARK    4  A    between atoms: N_3  and  S_10
REMARK    5  A    between atoms: S_10  and  C_13
REMARK    6  A    between atoms: C_17  and  C_19
REMARK    7  A    between atoms: N_21  and  C_22
REMARK    8  A    between atoms: N_26  and  C_27
REMARK    9  A    between atoms: C_27  and  C_29
REMARK   10  A    between atoms: C_27  and  C_30
REMARK                            x       y       z     vdW  Elec       q    Type
REMARK                         _______ _______ _______ _____ _____    ______ ____
ROOT
ATOM      1  C   UNL     1      -4.753   0.604  -0.327  0.00  0.00    +0.109 A 
ATOM      2  C   UNL     1      -4.857  -0.775  -0.379  0.00  0.00    +0.029 A 
ATOM      3  C   UNL     1      -3.733  -1.552  -0.594  0.00  0.00    +0.003 A 
ATOM      4  C   UNL     1      -2.500  -0.956  -0.762  0.00  0.00    +0.013 A 
ATOM      5  C   UNL     1      -2.387   0.434  -0.706  0.00  0.00    +0.039 A 
ATOM      6  C   UNL     1      -3.526   1.213  -0.489  0.00  0.00    +0.042 A 
ENDROOT
BRANCH   5   7
ATOM      7  C   UNL     1      -1.069   1.079  -0.881  0.00  0.00    +0.249 C 
ATOM      8  O   UNL     1      -0.974   2.291  -0.837  0.00  0.00    -0.270 OA
ATOM      9  N   UNL     1       0.028   0.325  -1.091  0.00  0.00    -0.267 N 
ATOM     10  H   UNL     1      -0.047  -0.641  -1.126  0.00  0.00    +0.157 HD
BRANCH   9  11
ATOM     11  C   UNL     1       1.270   0.934  -1.262  0.00  0.00    +0.124 A 
ATOM     12  C   UNL     1       1.522   2.271  -1.236  0.00  0.00    +0.065 A 
ATOM     13  C   UNL     1       2.891   2.454  -1.448  0.00  0.00    +0.136 A 
ATOM     14  N   UNL     1       3.447   1.279  -1.597  0.00  0.00    -0.178 NA
ATOM     15  N   UNL     1       2.452   0.301  -1.479  0.00  0.00    -0.247 N 
BRANCH  15  16
ATOM     16  C   UNL     1       2.650  -1.148  -1.576  0.00  0.00    +0.109 C 
ATOM     17  C   UNL     1       3.621  -1.604  -0.485  0.00  0.00    +0.033 C 
BRANCH  16  18
ATOM     18  C   UNL     1       3.228  -1.492  -2.950  0.00  0.00    +0.013 C 
ATOM     19  C   UNL     1       2.329  -2.257  -3.923  0.00  0.00    +0.006 C 
ATOM     20  C   UNL     1       3.506  -2.967  -3.250  0.00  0.00    +0.006 C 
ENDBRANCH  16  18
ENDBRANCH  15  16
ENDBRANCH   9  11
ENDBRANCH   5   7
BRANCH   1  21
ATOM     21  S   UNL     1      -6.191   1.585  -0.053  0.00  0.00    +0.075 S 
ATOM     22  O   UNL     1      -7.130   0.751   0.611  0.00  0.00    -0.150 OA
ATOM     23  O   UNL     1      -5.744   2.817   0.495  0.00  0.00    -0.150 OA
BRANCH  21  24
ATOM     24  N   UNL     1      -6.835   1.934  -1.538  0.00  0.00    -0.203 N 
BRANCH  24  25
ATOM     25  C   UNL     1      -6.522   3.140  -2.169  0.00  0.00    +0.051 A 
ATOM     26  C   UNL     1      -5.891   3.136  -3.407  0.00  0.00    +0.025 A 
ATOM     27  C   UNL     1      -5.588   4.330  -4.030  0.00  0.00    +0.002 A 
ATOM     28  C   UNL     1      -5.902   5.530  -3.418  0.00  0.00    +0.000 A 
ATOM     29  C   UNL     1      -6.525   5.539  -2.184  0.00  0.00    +0.002 A 
ATOM     30  C   UNL     1      -6.836   4.348  -1.558  0.00  0.00    +0.025 A 
ENDBRANCH  24  25
BRANCH  24  32
ATOM     31  C   UNL     1      -9.184   1.348  -1.880  0.00  0.00    +0.026 C 
ATOM     32  C   UNL     1      -7.733   0.978  -2.190  0.00  0.00    +0.128 C 
ENDBRANCH  24  32
ENDBRANCH  21  24
ENDBRANCH   1  21
TORSDOF 8
