REMARK  Name = ZINC12747274
REMARK  11 active torsions:
REMARK  status: ('A' for Active; 'I' for Inactive)
REMARK    1  A    between atoms: C_1  and  O_2
REMARK    2  A    between atoms: O_2  and  C_3
REMARK    3  A    between atoms: C_8  and  C_9
REMARK    4  A    between atoms: C_10  and  C_20
REMARK    5  A    between atoms: N_12  and  C_14
REMARK    6  A    between atoms: N_22  and  C_23
REMARK    7  A    between atoms: C_23  and  C_24
REMARK    8  A    between atoms: C_24  and  C_26
REMARK    9  A    between atoms: C_24  and  N_69
REMARK   10  A    between atoms: C_31  and  O_32
REMARK   11  A    between atoms: O_32  and  C_33
REMARK                            x       y       z     vdW  Elec       q    Type
REMARK                         _______ _______ _______ _____ _____    ______ ____
ROOT
ATOM      1  C   UNL     1       4.200   2.019   0.129  0.00  0.00    +0.248 C 
ATOM      2  O   UNL     1       3.301   1.200   0.161  0.00  0.00    -0.270 OA
ATOM      3  N   UNL     1       5.477   1.625   0.300  0.00  0.00    -0.312 N 
ATOM      4  H   UNL     1       6.194   2.278   0.275  0.00  0.00    +0.149 HD
ENDROOT
BRANCH   1   6
ATOM      5  C   UNL     1       2.564   4.034  -0.285  0.00  0.00    +0.109 A 
ATOM      6  C   UNL     1       3.892   3.441  -0.096  0.00  0.00    +0.082 A 
ATOM      7  C   UNL     1       4.797   4.480  -0.175  0.00  0.00    +0.128 A 
ATOM      8  N   UNL     1       4.105   5.614  -0.383  0.00  0.00    -0.239 N 
ATOM      9  N   UNL     1       2.739   5.326  -0.448  0.00  0.00    -0.165 NA
BRANCH   5  15
ATOM     10  C   UNL     1       0.224   3.745   0.538  0.00  0.00    +0.129 A 
ATOM     11  C   UNL     1      -0.983   3.065   0.531  0.00  0.00    +0.046 A 
ATOM     12  C   UNL     1      -1.154   1.967  -0.290  0.00  0.00    +0.004 A 
ATOM     13  C   UNL     1      -0.120   1.534  -1.101  0.00  0.00    +0.001 A 
ATOM     14  C   UNL     1       1.087   2.201  -1.105  0.00  0.00    +0.014 A 
ATOM     15  C   UNL     1       1.269   3.313  -0.285  0.00  0.00    +0.044 A 
BRANCH  10  17
ATOM     16  C   UNL     1      -0.719   5.211   2.154  0.00  0.00    +0.277 C 
ATOM     17  O   UNL     1       0.393   4.828   1.341  0.00  0.00    -0.494 OA
ENDBRANCH  10  17
ENDBRANCH   5  15
BRANCH   8  18
ATOM     18  C   UNL     1       4.668   6.890  -0.514  0.00  0.00    +0.065 A 
ATOM     19  C   UNL     1       6.044   7.056  -0.425  0.00  0.00    +0.028 A 
ATOM     20  C   UNL     1       6.596   8.315  -0.559  0.00  0.00    +0.002 A 
ATOM     21  C   UNL     1       5.780   9.411  -0.771  0.00  0.00    +0.000 A 
ATOM     22  C   UNL     1       4.409   9.249  -0.856  0.00  0.00    +0.002 A 
ATOM     23  C   UNL     1       3.851   7.993  -0.727  0.00  0.00    +0.028 A 
ENDBRANCH   8  18
ENDBRANCH   1   6
BRANCH   3  24
ATOM     24  C   UNL     1       5.783   0.210   0.524  0.00  0.00    +0.094 C 
BRANCH  24  25
ATOM     25  C   UNL     1       7.276   0.052   0.823  0.00  0.00    -0.017 C 
BRANCH  25  26
ATOM     26  C   UNL     1       7.601   0.731   2.129  0.00  0.00    -0.018 A 
ATOM     27  C   UNL     1       8.075   2.029   2.133  0.00  0.00    +0.005 A 
ATOM     28  C   UNL     1       8.373   2.653   3.330  0.00  0.00    +0.000 A 
ATOM     29  C   UNL     1       8.199   1.980   4.526  0.00  0.00    +0.004 A 
ATOM     30  C   UNL     1       7.726   0.682   4.526  0.00  0.00    +0.046 A 
ATOM     31  C   UNL     1       7.420   0.056   3.327  0.00  0.00    +0.122 A 
BRANCH  31  32
ATOM     32  O   UNL     1       6.949  -1.219   3.325  0.00  0.00    -0.495 OA
ATOM     33  C   UNL     1       6.788  -1.853   4.596  0.00  0.00    +0.277 C 
ENDBRANCH  31  32
ENDBRANCH  25  26
BRANCH  25  38
ATOM     34  C   UNL     1       9.516   0.508  -0.014  0.00  0.00    -0.078 C 
ATOM     35  C   UNL     1      10.134   0.709  -1.421  0.00  0.00    -0.020 C 
ATOM     36  C   UNL     1       9.107   0.022  -2.350  0.00  0.00    -0.020 C 
ATOM     37  C   UNL     1       7.792  -0.000  -1.550  0.00  0.00    -0.078 C 
ATOM     38  N   UNL     1       8.077   0.665  -0.278  0.00  0.00    +0.385 N 
ATOM     39  H   UNL     1       7.844   1.663  -0.349  0.00  0.00    -0.081 HD
ENDBRANCH  25  38
ENDBRANCH  24  25
ENDBRANCH   3  24
TORSDOF 9
