REMARK  Name = ZINC09685927
REMARK  8 active torsions:
REMARK  status: ('A' for Active; 'I' for Inactive)
REMARK    1  A    between atoms: C_1  and  C_2
REMARK    2  A    between atoms: C_2  and  C_3
REMARK    3  A    between atoms: C_8  and  S_9
REMARK    4  A    between atoms: S_9  and  N_12
REMARK    5  A    between atoms: N_12  and  C_13
REMARK    6  A    between atoms: C_14  and  C_21
REMARK    7  A    between atoms: C_16  and  C_20
REMARK    8  A    between atoms: C_18  and  C_19
REMARK                            x       y       z     vdW  Elec       q    Type
REMARK                         _______ _______ _______ _____ _____    ______ ____
ROOT
ATOM      1  C   UNL     1       4.366   1.880   1.370  0.00  0.00    -0.020 A 
ATOM      2  C   UNL     1       4.431   2.658   2.505  0.00  0.00    +0.016 A 
ATOM      3  C   UNL     1       5.510   2.524   3.376  0.00  0.00    +0.011 A 
ATOM      4  C   UNL     1       6.526   1.591   3.096  0.00  0.00    +0.049 A 
ATOM      5  C   UNL     1       6.438   0.812   1.948  0.00  0.00    +0.055 A 
ATOM      6  C   UNL     1       5.364   0.957   1.096  0.00  0.00    +0.114 A 
ATOM      7  N   UNL     1       7.461   1.667   4.112  0.00  0.00    -0.357 N 
ATOM      8  H   UNL     1       8.265   1.127   4.163  0.00  0.00    +0.166 HD
ATOM      9  C   UNL     1       7.105   2.590   5.015  0.00  0.00    +0.028 A 
ATOM     10  C   UNL     1       5.902   3.164   4.633  0.00  0.00    +0.046 A 
ATOM     11  C   UNL     1       5.261   4.173   5.393  0.00  0.00    +0.165 C 
ATOM     12  O   UNL     1       4.227   4.684   5.014  0.00  0.00    -0.292 OA
ATOM     13  C   UNL     1       5.912   4.590   6.694  0.00  0.00    +0.080 C 
ATOM     14  C   UNL     1       7.431   4.460   6.585  0.00  0.00    +0.014 C 
ATOM     15  C   UNL     1       7.826   3.012   6.274  0.00  0.00    +0.054 C 
ENDROOT
BRANCH   6  16
ATOM     16  S   UNL     1       5.263  -0.035  -0.357  0.00  0.00    +0.073 S 
ATOM     17  O   UNL     1       6.357  -0.939  -0.309  0.00  0.00    -0.150 OA
ATOM     18  O   UNL     1       5.058   0.857  -1.444  0.00  0.00    -0.150 OA
BRANCH  16  19
ATOM     19  N   UNL     1       3.888  -0.949  -0.230  0.00  0.00    -0.216 N 
ATOM     20  H   UNL     1       3.038  -0.592  -0.534  0.00  0.00    +0.174 HD
BRANCH  19  21
ATOM     21  C   UNL     1       3.951  -2.234   0.314  0.00  0.00    +0.054 A 
ATOM     22  C   UNL     1       4.243  -2.406   1.661  0.00  0.00    -0.028 A 
ATOM     23  C   UNL     1       4.304  -3.678   2.195  0.00  0.00    +0.008 A 
ATOM     24  C   UNL     1       4.076  -4.779   1.391  0.00  0.00    -0.050 A 
ATOM     25  C   UNL     1       3.784  -4.612   0.050  0.00  0.00    +0.008 A 
ATOM     26  C   UNL     1       3.721  -3.343  -0.491  0.00  0.00    -0.028 A 
ATOM     27  C   UNL     1       3.404  -3.161  -1.953  0.00  0.00    +0.046 C 
ATOM     28  C   UNL     1       4.150  -6.166   1.977  0.00  0.00    +0.044 C 
ATOM     29  C   UNL     1       4.492  -1.206   2.538  0.00  0.00    +0.046 C 
ENDBRANCH  19  21
ENDBRANCH  16  19
ENDBRANCH   6  16
BRANCH   1  31
ATOM     30  C   UNL     1       2.051   1.135   0.887  0.00  0.00    +0.009 C 
ATOM     31  C   UNL     1       3.203   2.029   0.424  0.00  0.00    +0.034 C 
ENDBRANCH   1  31
TORSDOF 4
