REMARK  Name = ZINC14156235
REMARK  9 active torsions:
REMARK  status: ('A' for Active; 'I' for Inactive)
REMARK    1  A    between atoms: C_1  and  C_2
REMARK    2  A    between atoms: C_4  and  C_27
REMARK    3  A    between atoms: N_10  and  C_11
REMARK    4  A    between atoms: C_11  and  N_13
REMARK    5  A    between atoms: N_13  and  C_14
REMARK    6  A    between atoms: N_22  and  C_23
REMARK    7  A    between atoms: C_23  and  C_24
REMARK    8  A    between atoms: C_24  and  C_25
REMARK    9  A    between atoms: C_24  and  C_26
REMARK                            x       y       z     vdW  Elec       q    Type
REMARK                         _______ _______ _______ _____ _____    ______ ____
ROOT
ATOM      1  C   UNL     1       0.913   1.501  -0.619  0.00  0.00    +0.066 C 
ATOM      2  C   UNL     1       0.722   0.008  -0.553  0.00  0.00    +0.044 A 
ATOM      3  C   UNL     1       0.612  -0.738  -1.717  0.00  0.00    +0.046 A 
ATOM      4  C   UNL     1       0.437  -2.108  -1.611  0.00  0.00    +0.044 A 
ATOM      5  N   UNL     1       0.381  -2.661  -0.410  0.00  0.00    -0.217 NA
ATOM      6  C   UNL     1       0.489  -1.920   0.682  0.00  0.00    +0.231 A 
ATOM      7  N   UNL     1       0.663  -0.609   0.616  0.00  0.00    -0.217 NA
ATOM      8  N   UNL     1       0.426  -2.533   1.926  0.00  0.00    -0.297 N 
ATOM      9  C   UNL     1       0.607  -1.794   3.063  0.00  0.00    +0.195 C 
ATOM     10  N   UNL     1       0.675  -2.395   4.239  0.00  0.00    -0.159 NA
ATOM     11  N   UNL     1       0.718  -0.435   2.984  0.00  0.00    -0.357 N 
ATOM     12  C   UNL     1       0.312  -2.959  -2.849  0.00  0.00    +0.066 C 
ATOM     13  H   UNL     1       0.253  -3.486   1.989  0.00  0.00    +0.171 HD
ATOM     14  H   UNL     1       0.561   0.015   2.140  0.00  0.00    +0.162 HD
ENDROOT
BRANCH  10  15
ATOM     15  C   UNL     1       0.374  -1.718   5.356  0.00  0.00    +0.162 C 
ATOM     16  S   UNL     1      -1.215  -1.131   5.601  0.00  0.00    -0.016 S 
BRANCH  15  17
ATOM     17  N   UNL     1       1.324  -1.500   6.288  0.00  0.00    -0.294 N 
ATOM     18  H   UNL     1       2.241  -1.763   6.116  0.00  0.00    +0.154 HD
BRANCH  17  19
ATOM     19  C   UNL     1       0.986  -0.894   7.503  0.00  0.00    +0.051 A 
ATOM     20  C   UNL     1      -0.170  -1.275   8.172  0.00  0.00    +0.026 A 
ATOM     21  C   UNL     1      -0.501  -0.676   9.372  0.00  0.00    +0.022 A 
ATOM     22  C   UNL     1       0.317   0.304   9.908  0.00  0.00    +0.042 A 
ATOM     23  C   UNL     1       1.469   0.685   9.244  0.00  0.00    +0.041 A 
ATOM     24  C   UNL     1       1.809   0.085   8.046  0.00  0.00    +0.063 A 
ATOM     25 CL   UNL     1       3.259   0.559   7.217  0.00  0.00    -0.082 Cl
ATOM     26 CL   UNL     1      -0.104   1.055  11.415  0.00  0.00    -0.083 Cl
ENDBRANCH  17  19
ENDBRANCH  15  17
ENDBRANCH  10  15
BRANCH  11  27
ATOM     27  C   UNL     1       1.073   0.341   4.175  0.00  0.00    +0.118 C 
BRANCH  27  28
ATOM     28  C   UNL     1       1.342   1.793   3.775  0.00  0.00    +0.002 C 
ATOM     29  C   UNL     1       1.591   2.630   5.031  0.00  0.00    +0.009 C 
ATOM     30  C   UNL     1       2.575   1.852   2.870  0.00  0.00    +0.009 C 
ENDBRANCH  27  28
ENDBRANCH  11  27
TORSDOF 5
