REMARK  Name = ZINC57930227
REMARK  9 active torsions:
REMARK  status: ('A' for Active; 'I' for Inactive)
REMARK    1  A    between atoms: C_1  and  C_2
REMARK    2  A    between atoms: C_2  and  CA_3
REMARK    3  A    between atoms: CA_3  and  C_5
REMARK    4  A    between atoms: CA_3  and  N_8
REMARK    5  A    between atoms: C_11  and  C_24
REMARK    6  A    between atoms: C_12  and  C_23
REMARK    7  A    between atoms: CA_16  and  CB_20
REMARK    8  A    between atoms: CB_20  and  CG1_21
REMARK    9  A    between atoms: CB_20  and  CG2_22
REMARK                            x       y       z     vdW  Elec       q    Type
REMARK                         _______ _______ _______ _____ _____    ______ ____
ROOT
ATOM      1  N   VAL A   1      -0.055  -0.114  -2.441  0.00  0.00    -0.254 N 
ATOM      2  C   UNK A   0       0.490   0.790  -3.361  0.00  0.00    +0.058 A 
ATOM      3  C   UNK A   0       1.604   1.546  -3.036  0.00  0.00    +0.029 A 
ATOM      4  C   UNK A   0       2.130   2.430  -3.961  0.00  0.00    -0.046 A 
ATOM      5  C   UNK A   0       1.549   2.563  -5.209  0.00  0.00    -0.046 A 
ATOM      6  C   UNK A   0       0.434   1.813  -5.541  0.00  0.00    +0.028 A 
ATOM      7  C   UNK A   0      -0.097   0.929  -4.620  0.00  0.00    +0.050 A 
ATOM      8  N   VAL A   1      -1.233   0.164  -4.922  0.00  0.00    -0.331 N 
ATOM      9  CA  VAL A   1      -2.121  -0.217  -3.813  0.00  0.00    +0.160 C 
ATOM     10  C   VAL A   1      -1.280  -0.638  -2.635  0.00  0.00    +0.241 C 
ATOM     11  O   VAL A   1      -1.713  -1.456  -1.851  0.00  0.00    -0.273 OA
ATOM     12  C   UNK A   0       2.132   3.527  -6.210  0.00  0.00    +0.044 C 
ATOM     13  C   UNK A   0       3.342   3.252  -3.607  0.00  0.00    +0.044 C 
ATOM     14  H   VAL A   1      -1.426  -0.106  -5.833  0.00  0.00    +0.147 HD
ENDROOT
BRANCH   9  15
ATOM     15  CB  VAL A   1      -2.996   0.977  -3.425  0.00  0.00    +0.012 C 
ATOM     16  CG1 VAL A   1      -3.838   1.404  -4.629  0.00  0.00    +0.009 C 
ATOM     17  CG2 VAL A   1      -3.919   0.579  -2.272  0.00  0.00    +0.009 C 
ENDBRANCH   9  15
BRANCH   1  18
ATOM     18  CA  VAL A   1       0.718  -0.497  -1.257  0.00  0.00    +0.194 C 
BRANCH  18  19
ATOM     19  C   VAL A   1       1.071  -1.960  -1.340  0.00  0.00    +0.376 C 
ATOM     20  O   VAL A   1       0.331  -2.734  -1.923  0.00  0.00    -0.244 OA
ATOM     21  OXT VAL A   1       2.098  -2.370  -0.824  0.00  0.00    -0.244 OA
ENDBRANCH  18  19
BRANCH  18  23
ATOM     22  C   VAL A   1      -0.369   1.256   0.152  0.00  0.00    +0.006 C 
ATOM     23  C   VAL A   1      -0.116  -0.245   0.001  0.00  0.00    +0.031 C 
ENDBRANCH  18  23
ENDBRANCH   1  18
TORSDOF 4
