REMARK  Name = ZINC39633523
REMARK  4 active torsions:
REMARK  status: ('A' for Active; 'I' for Inactive)
REMARK    1  A    between atoms: C_1  and  C_2
REMARK    2  A    between atoms: C_2  and  C_8
REMARK    3  A    between atoms: C_12  and  C_21
REMARK    4  A    between atoms: N_23  and  C_24
REMARK                            x       y       z     vdW  Elec       q    Type
REMARK                         _______ _______ _______ _____ _____    ______ ____
ROOT
ATOM      1  C   UNL     1      -1.039  -0.034  -0.196  0.00  0.00    +0.222 C 
ATOM      2  O   UNL     1      -1.361  -0.615   0.819  0.00  0.00    -0.275 OA
ATOM      3  N   UNL     1      -1.941   0.154  -1.180  0.00  0.00    -0.300 N 
ATOM      4  C   UNL     1      -1.711   0.735  -2.524  0.00  0.00    +0.121 C 
ATOM      5  C   UNL     1      -2.579  -0.123  -3.473  0.00  0.00    +0.100 C 
ATOM      6  C   UNL     1      -3.677  -0.713  -2.574  0.00  0.00    -0.004 C 
ATOM      7  C   UNL     1      -3.386  -0.178  -1.164  0.00  0.00    +0.115 C 
ATOM      8  C   UNL     1      -3.602  -2.237  -2.579  0.00  0.00    -0.010 C 
ATOM      9  C   UNL     1      -4.739  -2.803  -1.723  0.00  0.00    -0.082 C 
ATOM     10  N   UNL     1      -6.029  -2.355  -2.263  0.00  0.00    +0.379 N 
ATOM     11  C   UNL     1      -6.131  -0.893  -2.169  0.00  0.00    -0.082 C 
ATOM     12  C   UNL     1      -5.052  -0.247  -3.043  0.00  0.00    -0.010 C 
ATOM     13  H   UNL     1      -6.103  -2.634  -3.230  0.00  0.00    -0.086 HD
ATOM     14  H   UNL     1      -6.778  -2.777  -1.735  0.00  0.00    -0.086 HD
ENDROOT
BRANCH   1  16
ATOM     15  C   UNL     1       1.075  -0.313  -1.461  0.00  0.00    +0.021 C 
ATOM     16  C   UNL     1       0.369   0.477  -0.357  0.00  0.00    +0.044 C 
ATOM     17  C   UNL     1       1.129   0.303   0.959  0.00  0.00    +0.016 C 
ATOM     18  C   UNL     1       0.423   1.093   2.063  0.00  0.00    +0.001 C 
ATOM     19  C   UNL     1       0.388   2.576   1.686  0.00  0.00    +0.000 C 
ATOM     20  C   UNL     1      -0.372   2.749   0.369  0.00  0.00    +0.001 C 
ATOM     21  C   UNL     1       0.334   1.959  -0.734  0.00  0.00    +0.016 C 
ENDBRANCH   1  16
BRANCH   5  22
ATOM     22  C   UNL     1      -1.753  -1.223  -4.088  0.00  0.00    +0.218 C 
ATOM     23  O   UNL     1      -0.865  -1.745  -3.449  0.00  0.00    -0.275 OA
ATOM     24  N   UNL     1      -2.002  -1.627  -5.350  0.00  0.00    -0.312 N 
ATOM     25  H   UNL     1      -2.712  -1.210  -5.862  0.00  0.00    +0.149 HD
BRANCH  24  26
ATOM     26  C   UNL     1      -1.199  -2.697  -5.948  0.00  0.00    +0.073 C 
ATOM     27  C   UNL     1      -1.786  -4.033  -5.582  0.00  0.00    +0.022 C 
ATOM     28  C   UNL     1      -0.709  -5.121  -5.405  0.00  0.00    +0.002 C 
ATOM     29  C   UNL     1       0.392  -5.053  -6.480  0.00  0.00    +0.000 C 
ATOM     30  C   UNL     1      -0.161  -4.786  -7.854  0.00  0.00    +0.000 C 
ATOM     31  C   UNL     1      -0.111  -3.267  -8.116  0.00  0.00    +0.002 C 
ATOM     32  C   UNL     1      -1.215  -2.559  -7.484  0.00  0.00    +0.022 C 
ENDBRANCH  24  26
ENDBRANCH   5  22
TORSDOF 3
