REMARK  Name = ZINC29803229
REMARK  12 active torsions:
REMARK  status: ('A' for Active; 'I' for Inactive)
REMARK    1  A    between atoms: C_1  and  C_2
REMARK    2  A    between atoms: C_2  and  C_3
REMARK    3  A    between atoms: C_2  and  C_4
REMARK    4  A    between atoms: C_7  and  S_12
REMARK    5  A    between atoms: N_8  and  C_9
REMARK    6  A    between atoms: S_12  and  C_13
REMARK    7  A    between atoms: C_13  and  C_14
REMARK    8  A    between atoms: N_16  and  C_17
REMARK    9  A    between atoms: C_17  and  C_19
REMARK   10  A    between atoms: C_17  and  C_30
REMARK   11  A    between atoms: C_30  and  C_31
REMARK   12  A    between atoms: C_30  and  C_32
REMARK                            x       y       z     vdW  Elec       q    Type
REMARK                         _______ _______ _______ _____ _____    ______ ____
ROOT
ATOM      1  C   UNL     1       0.794   6.771   1.819  0.00  0.00    +0.224 C 
ATOM      2  O   UNL     1      -0.402   6.674   1.998  0.00  0.00    -0.275 OA
ATOM      3  N   UNL     1       1.427   7.926   2.104  0.00  0.00    -0.308 N 
ATOM      4  H   UNL     1       2.511   8.014   1.942  0.00  0.00    +0.149 HD
ENDROOT
BRANCH   1   5
ATOM      5  C   UNL     1       1.572   5.599   1.278  0.00  0.00    +0.173 C 
BRANCH   5   6
ATOM      6  S   UNL     1       0.450   4.207   0.999  0.00  0.00    -0.077 S 
BRANCH   6  10
ATOM      7  C   UNL     1       2.490   1.188  -0.393  0.00  0.00    +0.137 A 
ATOM      8  N   UNL     1       3.406   2.103  -0.247  0.00  0.00    -0.133 NA
ATOM      9  N   UNL     1       2.882   3.181   0.216  0.00  0.00    -0.122 NA
ATOM     10  C   UNL     1       1.591   3.012   0.386  0.00  0.00    +0.192 A 
ATOM     11  N   UNL     1       1.300   1.736  -0.001  0.00  0.00    -0.303 N 
BRANCH   7  13
ATOM     12  C   UNL     1       3.275  -0.160  -2.321  0.00  0.00    +0.015 C 
ATOM     13  C   UNL     1       2.703  -0.215  -0.903  0.00  0.00    +0.051 C 
ATOM     14  C   UNL     1       3.682  -0.948   0.014  0.00  0.00    +0.015 C 
ENDBRANCH   7  13
BRANCH  11  15
ATOM     15  C   UNL     1      -0.013   1.086   0.008  0.00  0.00    +0.091 C 
ATOM     16  C   UNL     1      -1.116   1.734   0.847  0.00  0.00    +0.027 C 
ATOM     17  C   UNL     1      -1.167   1.816  -0.681  0.00  0.00    +0.027 C 
ENDBRANCH  11  15
ENDBRANCH   6  10
ENDBRANCH   5   6
ENDBRANCH   1   5
BRANCH   3  18
ATOM     18  C   UNL     1       0.670   9.065   2.630  0.00  0.00    +0.106 C 
BRANCH  18  19
ATOM     19  C   UNL     1       1.393  10.345   2.297  0.00  0.00    -0.023 A 
ATOM     20  C   UNL     1       2.771  10.402   2.393  0.00  0.00    +0.009 A 
ATOM     21  C   UNL     1       3.442  11.572   2.084  0.00  0.00    +0.050 A 
ATOM     22  C   UNL     1       2.727  12.690   1.689  0.00  0.00    +0.162 A 
ATOM     23  C   UNL     1       1.344  12.634   1.598  0.00  0.00    +0.162 A 
ATOM     24  C   UNL     1       0.676  11.460   1.903  0.00  0.00    +0.055 A 
ATOM     25  O   UNL     1       0.648  13.741   1.207  0.00  0.00    -0.488 OA
ATOM     26  C   UNL     1       0.648  14.836   2.125  0.00  0.00    +0.232 C 
ATOM     27  C   UNL     1       1.893  15.691   1.945  0.00  0.00    +0.082 C 
ATOM     28  C   UNL     1       3.168  14.938   2.291  0.00  0.00    +0.232 C 
ATOM     29  O   UNL     1       3.377  13.851   1.387  0.00  0.00    -0.488 OA
ENDBRANCH  18  19
BRANCH  18  30
ATOM     30  C   UNL     1       0.539   8.933   4.148  0.00  0.00    +0.008 C 
ATOM     31  C   UNL     1       1.923   9.036   4.791  0.00  0.00    +0.009 C 
ATOM     32  C   UNL     1      -0.356  10.054   4.682  0.00  0.00    +0.009 C 
ENDBRANCH  18  30
ENDBRANCH   3  18
TORSDOF 8
