REMARK  Name = ZINC35848554
REMARK  14 active torsions:
REMARK  status: ('A' for Active; 'I' for Inactive)
REMARK    1  A    between atoms: C_1  and  C_2
REMARK    2  A    between atoms: C_2  and  C_3
REMARK    3  A    between atoms: C_3  and  C_4
REMARK    4  A    between atoms: C_4  and  N_5
REMARK    5  A    between atoms: C_6  and  C_8
REMARK    6  A    between atoms: C_8  and  N_9
REMARK    7  A    between atoms: C_12  and  C_23
REMARK    8  A    between atoms: N_14  and  C_15
REMARK    9  A    between atoms: C_18  and  C_22
REMARK   10  A    between atoms: C_20  and  C_21
REMARK   11  A    between atoms: C_23  and  C_24
REMARK   12  A    between atoms: C_23  and  C_25
REMARK   13  A    between atoms: C_23  and  C_26
REMARK   14  A    between atoms: C_27  and  C_33
REMARK                            x       y       z     vdW  Elec       q    Type
REMARK                         _______ _______ _______ _____ _____    ______ ____
ROOT
ATOM      1  N   UNL     1       2.959  -4.345  -0.271  0.00  0.00    -0.246 N 
ATOM      2  C   UNL     1       3.764  -5.316  -0.884  0.00  0.00    +0.136 A 
ATOM      3  C   UNL     1       3.607  -6.648  -0.705  0.00  0.00    +0.034 A 
ATOM      4  C   UNL     1       4.575  -7.300  -1.471  0.00  0.00    +0.075 A 
ATOM      5  N   UNL     1       5.292  -6.391  -2.088  0.00  0.00    -0.169 NA
ATOM      6  N   UNL     1       4.802  -5.124  -1.733  0.00  0.00    -0.217 N 
ATOM      7  C   UNL     1       2.563  -7.280   0.179  0.00  0.00    +0.115 C 
ATOM      8  S   UNL     1       0.935  -7.124  -0.639  0.00  0.00    -0.138 S 
ATOM      9  C   UNL     1       1.014  -5.432  -1.315  0.00  0.00    +0.166 C 
ATOM     10  C   UNL     1       1.631  -4.495  -0.319  0.00  0.00    +0.231 C 
ATOM     11  O   UNL     1       0.924  -3.870   0.443  0.00  0.00    -0.274 OA
ENDROOT
BRANCH   6  12
ATOM     12  C   UNL     1       5.296  -3.890  -2.175  0.00  0.00    +0.070 A 
ATOM     13  C   UNL     1       4.452  -2.990  -2.811  0.00  0.00    +0.028 A 
ATOM     14  C   UNL     1       4.942  -1.774  -3.246  0.00  0.00    +0.005 A 
ATOM     15  C   UNL     1       6.272  -1.452  -3.048  0.00  0.00    -0.050 A 
ATOM     16  C   UNL     1       7.116  -2.346  -2.415  0.00  0.00    +0.008 A 
ATOM     17  C   UNL     1       6.630  -3.561  -1.973  0.00  0.00    -0.025 A 
ATOM     18  C   UNL     1       7.549  -4.533  -1.277  0.00  0.00    +0.046 C 
ATOM     19  C   UNL     1       6.804  -0.125  -3.524  0.00  0.00    +0.044 C 
ENDBRANCH   6  12
BRANCH   7  20
ATOM     20  C   UNL     1       2.892  -8.736   0.387  0.00  0.00    +0.005 A 
ATOM     21  C   UNL     1       3.685  -9.120   1.452  0.00  0.00    +0.008 A 
ATOM     22  C   UNL     1       3.986 -10.456   1.644  0.00  0.00    +0.000 A 
ATOM     23  C   UNL     1       3.494 -11.409   0.771  0.00  0.00    +0.003 A 
ATOM     24  C   UNL     1       2.701 -11.027  -0.294  0.00  0.00    +0.038 A 
ATOM     25  C   UNL     1       2.394  -9.690  -0.484  0.00  0.00    +0.128 A 
ATOM     26  F   UNL     1       1.615  -9.316  -1.522  0.00  0.00    -0.205 F 
ENDBRANCH   7  20
BRANCH   4  27
ATOM     27  C   UNL     1       4.763  -8.792  -1.572  0.00  0.00    +0.007 C 
ATOM     28  C   UNL     1       3.562  -9.410  -2.290  0.00  0.00    +0.017 C 
ATOM     29  C   UNL     1       6.040  -9.092  -2.361  0.00  0.00    +0.017 C 
ATOM     30  C   UNL     1       4.880  -9.387  -0.167  0.00  0.00    +0.017 C 
ENDBRANCH   4  27
BRANCH   1  31
ATOM     31  C   UNL     1       3.558  -3.195   0.411  0.00  0.00    +0.210 C 
BRANCH  31  33
ATOM     32  N   UNL     1       4.220  -2.578   2.713  0.00  0.00    -0.314 N 
ATOM     33  C   UNL     1       3.690  -3.497   1.882  0.00  0.00    +0.231 C 
ATOM     34  O   UNL     1       3.320  -4.566   2.317  0.00  0.00    -0.274 OA
ATOM     35  H   UNL     1       4.516  -1.722   2.365  0.00  0.00    +0.149 HD
BRANCH  32  36
ATOM     36  C   UNL     1       4.348  -2.871   4.143  0.00  0.00    +0.104 C 
BRANCH  36  37
ATOM     37  C   UNL     1       4.974  -1.670   4.856  0.00  0.00    +0.018 C 
BRANCH  37  39
ATOM     38  C   UNL     1       5.734  -0.776   7.061  0.00  0.00    +0.004 C 
ATOM     39  C   UNL     1       5.107  -1.976   6.349  0.00  0.00    -0.002 C 
ENDBRANCH  37  39
ENDBRANCH  36  37
ENDBRANCH  32  36
ENDBRANCH  31  33
ENDBRANCH   1  31
TORSDOF 8
