REMARK  Name = ZINC50016645
REMARK  4 active torsions:
REMARK  status: ('A' for Active; 'I' for Inactive)
REMARK    1  A    between atoms: C_2  and  C_10
REMARK    2  A    between atoms: C_3  and  N_9
REMARK    3  A    between atoms: N_12  and  C_13
REMARK    4  A    between atoms: C_13  and  C_14
REMARK                            x       y       z     vdW  Elec       q    Type
REMARK                         _______ _______ _______ _____ _____    ______ ____
ROOT
ATOM      1  C   UNL     1      -0.073   1.262   0.013  0.00  0.00    +0.056 A 
ATOM      2  C   UNL     1       1.060   2.081  -0.017  0.00  0.00    +0.060 A 
ATOM      3  C   UNL     1       2.337   1.499  -0.036  0.00  0.00    +0.040 A 
ATOM      4  C   UNL     1       2.464   0.117  -0.024  0.00  0.00    +0.064 A 
ATOM      5  C   UNL     1       1.337  -0.682   0.005  0.00  0.00    +0.160 A 
ATOM      6  C   UNL     1       0.070  -0.109   0.024  0.00  0.00    +0.159 A 
ATOM      7  F   UNL     1      -1.026  -0.899   0.053  0.00  0.00    -0.202 F 
ATOM      8  F   UNL     1       1.466  -2.027   0.016  0.00  0.00    -0.202 F 
ENDROOT
BRANCH   2   9
ATOM      9  C   UNL     1       0.914   3.547  -0.030  0.00  0.00    +0.246 C 
ATOM     10  O   UNL     1       1.898   4.257   0.053  0.00  0.00    -0.270 OA
ATOM     11  N   UNL     1      -0.310   4.101  -0.134  0.00  0.00    -0.311 N 
ATOM     12  H   UNL     1      -1.095   3.535  -0.200  0.00  0.00    +0.149 HD
BRANCH  11  13
ATOM     13  C   UNL     1      -0.456   5.559  -0.147  0.00  0.00    +0.108 C 
BRANCH  13  14
ATOM     14  C   UNL     1      -1.937   5.922  -0.272  0.00  0.00    +0.006 C 
ATOM     15  C   UNL     1      -2.465   5.516  -1.663  0.00  0.00    +0.005 C 
ATOM     16  C   UNL     1      -3.451   6.649  -2.040  0.00  0.00    +0.000 C 
ATOM     17  C   UNL     1      -2.747   7.914  -1.489  0.00  0.00    +0.000 C 
ATOM     18  C   UNL     1      -2.116   7.447  -0.161  0.00  0.00    +0.005 C 
ENDBRANCH  13  14
ENDBRANCH  11  13
ENDBRANCH   2   9
BRANCH   3  19
ATOM     19  N   UNL     1       3.470   2.304  -0.066  0.00  0.00    -0.357 N 
ATOM     20  H   UNL     1       3.383   3.267   0.006  0.00  0.00    +0.142 HD
ATOM     21  H   UNL     1       4.348   1.902  -0.159  0.00  0.00    +0.142 HD
ENDBRANCH   3  19
TORSDOF 4
