REMARK  Name = ZINC21244207
REMARK  8 active torsions:
REMARK  status: ('A' for Active; 'I' for Inactive)
REMARK    1  A    between atoms: C_1  and  C_2
REMARK    2  A    between atoms: C_8  and  N_10
REMARK    3  A    between atoms: C_11  and  C_13
REMARK    4  A    between atoms: C_13  and  C_15
REMARK    5  A    between atoms: C_13  and  O_16
REMARK    6  A    between atoms: O_16  and  C_17
REMARK    7  A    between atoms: C_17  and  C_19
REMARK    8  A    between atoms: C_28  and  C_31
REMARK                            x       y       z     vdW  Elec       q    Type
REMARK                         _______ _______ _______ _____ _____    ______ ____
ROOT
ATOM      1  C   UNL     1       0.998  -2.797   5.006  0.00  0.00    +0.340 C 
ATOM      2  O   UNL     1       2.085  -2.339   5.300  0.00  0.00    -0.245 OA
ENDROOT
BRANCH   1   3
ATOM      3  C   UNL     1       0.692  -4.210   5.294  0.00  0.00    +0.061 A 
ATOM      4  C   UNL     1      -0.561  -4.734   4.961  0.00  0.00    +0.016 A 
ATOM      5  C   UNL     1      -0.841  -6.056   5.226  0.00  0.00    +0.017 A 
ATOM      6  C   UNL     1       0.114  -6.863   5.831  0.00  0.00    +0.030 A 
ATOM      7  C   UNL     1       1.369  -6.349   6.177  0.00  0.00    +0.048 A 
ATOM      8  C   UNL     1       1.652  -5.020   5.905  0.00  0.00    +0.039 A 
ATOM      9  N   UNL     1       2.336  -7.141   6.792  0.00  0.00    -0.284 N 
ATOM     10  C   UNL     1       2.398  -8.470   6.765  0.00  0.00    +0.230 C 
ATOM     11  O   UNL     1       3.314  -9.012   7.347  0.00  0.00    -0.274 OA
ATOM     12  C   UNL     1       1.396  -9.337   6.054  0.00  0.00    +0.134 C 
ATOM     13  S   UNL     1      -0.242  -8.557   6.174  0.00  0.00    -0.111 S 
ATOM     14  C   UNL     1       1.791  -9.477   4.583  0.00  0.00    +0.029 C 
ATOM     15  H   UNL     1       3.148  -6.672   7.366  0.00  0.00    +0.155 HD
ENDBRANCH   1   3
BRANCH   1  16
ATOM     16  O   UNL     1       0.073  -2.014   4.416  0.00  0.00    -0.449 OA
BRANCH  16  17
ATOM     17  C   UNL     1       0.444  -0.634   4.162  0.00  0.00    +0.259 C 
ATOM     18  C   UNL     1       0.065   0.227   5.369  0.00  0.00    +0.062 C 
BRANCH  17  20
ATOM     19  N   UNL     1      -0.020   1.094   2.454  0.00  0.00    -0.309 N 
ATOM     20  C   UNL     1      -0.285  -0.134   2.941  0.00  0.00    +0.254 C 
ATOM     21  O   UNL     1      -1.109  -0.838   2.397  0.00  0.00    -0.272 OA
ATOM     22  H   UNL     1       0.728   1.732   2.947  0.00  0.00    +0.149 HD
BRANCH  19  29
ATOM     23  C   UNL     1      -1.466   3.603   2.534  0.00  0.00    +0.009 C 
ATOM     24  C   UNL     1      -0.750   3.109   1.275  0.00  0.00    +0.006 C 
ATOM     25  C   UNL     1      -1.490   3.616   0.036  0.00  0.00    +0.005 C 
ATOM     26  C   UNL     1      -0.773   3.123  -1.223  0.00  0.00    +0.000 C 
ATOM     27  C   UNL     1      -0.753   1.593  -1.232  0.00  0.00    +0.002 C 
ATOM     28  C   UNL     1      -0.013   1.086   0.008  0.00  0.00    +0.022 C 
ATOM     29  C   UNL     1      -0.729   1.579   1.267  0.00  0.00    +0.076 C 
ENDBRANCH  19  29
ENDBRANCH  17  20
ENDBRANCH  16  17
ENDBRANCH   1  16
TORSDOF 5
