REMARK  Name = ZINC63245144
REMARK  10 active torsions:
REMARK  status: ('A' for Active; 'I' for Inactive)
REMARK    1  A    between atoms: C_1  and  C_2
REMARK    2  A    between atoms: C_5  and  C_8
REMARK    3  A    between atoms: C_8  and  C_10
REMARK    4  A    between atoms: C_14  and  N_15
REMARK    5  A    between atoms: C_16  and  C_18
REMARK    6  A    between atoms: C_18  and  O_19
REMARK    7  A    between atoms: O_19  and  C_20
REMARK    8  A    between atoms: C_20  and  C_22
REMARK    9  A    between atoms: C_22  and  C_23
REMARK   10  A    between atoms: C_23  and  C_24
REMARK                            x       y       z     vdW  Elec       q    Type
REMARK                         _______ _______ _______ _____ _____    ______ ____
ROOT
ATOM      1  N   UNL     1      -0.051  -2.770   2.595  0.00  0.00    -0.277 N 
ATOM      2  C   UNL     1       0.006  -2.204   3.817  0.00  0.00    +0.255 C 
ATOM      3  O   UNL     1       0.123  -2.901   4.803  0.00  0.00    -0.272 OA
ATOM      4  H   UNL     1      -0.144  -2.213   1.806  0.00  0.00    +0.155 HD
ENDROOT
BRANCH   1   9
ATOM      5  C   UNL     1       0.088  -4.893   1.295  0.00  0.00    +0.054 A 
ATOM      6  C   UNL     1       0.166  -6.337   1.433  0.00  0.00    -0.024 A 
ATOM      7  C   UNL     1       0.160  -6.771   2.712  0.00  0.00    -0.005 A 
ATOM      8  S   UNL     1       0.054  -5.299   3.687  0.00  0.00    -0.077 S 
ATOM      9  C   UNL     1       0.024  -4.147   2.465  0.00  0.00    +0.083 A 
ATOM     10  C   UNL     1       0.227  -8.192   3.179  0.00  0.00    +0.043 C 
ATOM     11  C   UNL     1      -0.075  -9.108   1.984  0.00  0.00    +0.005 C 
ATOM     12  C   UNL     1       0.766  -8.655   0.787  0.00  0.00    +0.005 C 
ATOM     13  C   UNL     1       0.250  -7.311   0.268  0.00  0.00    +0.037 C 
BRANCH   5  14
ATOM     14  C   UNL     1       0.083  -4.251  -0.021  0.00  0.00    +0.196 C 
ATOM     15  O   UNL     1       1.135  -4.008  -0.584  0.00  0.00    -0.287 OA
BRANCH  14  20
ATOM     16  C   UNL     1      -4.910  -2.875  -2.533  0.00  0.00    +0.044 C 
ATOM     17  C   UNL     1      -3.602  -3.235  -1.875  0.00  0.00    -0.050 A 
ATOM     18  C   UNL     1      -2.408  -2.861  -2.465  0.00  0.00    +0.004 A 
ATOM     19  C   UNL     1      -1.208  -3.187  -1.868  0.00  0.00    +0.012 A 
ATOM     20  C   UNL     1      -1.200  -3.897  -0.666  0.00  0.00    +0.022 A 
ATOM     21  C   UNL     1      -2.409  -4.271  -0.076  0.00  0.00    +0.012 A 
ATOM     22  C   UNL     1      -3.602  -3.934  -0.681  0.00  0.00    +0.004 A 
ENDBRANCH  14  20
ENDBRANCH   5  14
ENDBRANCH   1   9
BRANCH   2  23
ATOM     23  C   UNL     1      -0.075  -0.706   3.958  0.00  0.00    +0.328 C 
BRANCH  23  24
ATOM     24  O   UNL     1       0.007  -0.353   5.340  0.00  0.00    -0.455 OA
BRANCH  24  25
ATOM     25  C   UNL     1      -0.050   0.955   5.639  0.00  0.00    +0.308 C 
ATOM     26  O   UNL     1      -0.166   1.772   4.757  0.00  0.00    -0.251 OA
BRANCH  25  27
ATOM     27  C   UNL     1       0.030   1.403   7.075  0.00  0.00    +0.125 C 
BRANCH  27  28
ATOM     28  C   UNL     1      -0.058   2.929   7.139  0.00  0.00    +0.044 C 
BRANCH  28  29
ATOM     29  C   UNL     1       0.022   3.378   8.575  0.00  0.00    -0.041 C 
ATOM     30  C   UNL     1       1.129   3.780   9.241  0.00  0.00    -0.001 A 
ATOM     31  C   UNL     1       2.535   3.915   8.843  0.00  0.00    +0.010 A 
ATOM     32  C   UNL     1       3.435   4.353   9.752  0.00  0.00    +0.001 A 
ATOM     33  C   UNL     1       3.060   4.680  11.062  0.00  0.00    +0.002 A 
ATOM     34  C   UNL     1       1.788   4.583  11.502  0.00  0.00    +0.026 A 
ATOM     35  C   UNL     1       0.758   4.133  10.630  0.00  0.00    +0.043 A 
ATOM     36  N   UNL     1      -0.527   3.956  10.816  0.00  0.00    -0.380 N 
ATOM     37  C   UNL     1      -1.119   3.475   9.563  0.00  0.00    +0.144 C 
ATOM     38  H   UNL     1      -1.008   4.119  11.643  0.00  0.00    +0.160 HD
ENDBRANCH  28  29
ENDBRANCH  27  28
ENDBRANCH  25  27
ENDBRANCH  24  25
ENDBRANCH  23  24
ENDBRANCH   2  23
TORSDOF 9
