REMARK  Name = ZINC49541602
REMARK  7 active torsions:
REMARK  status: ('A' for Active; 'I' for Inactive)
REMARK    1  A    between atoms: C_1  and  C_2
REMARK    2  A    between atoms: C_2  and  C_3
REMARK    3  A    between atoms: C_3  and  C_4
REMARK    4  A    between atoms: C_7  and  N_10
REMARK    5  A    between atoms: N_10  and  S_11
REMARK    6  A    between atoms: S_11  and  C_14
REMARK    7  A    between atoms: C_17  and  N_21
REMARK                            x       y       z     vdW  Elec       q    Type
REMARK                         _______ _______ _______ _____ _____    ______ ____
ROOT
ATOM      1  S   UNL     1      -3.491  -6.925  -1.790  0.00  0.00    +0.060 S 
ATOM      2  O   UNL     1      -3.347  -8.323  -1.579  0.00  0.00    -0.153 OA
ATOM      3  O   UNL     1      -4.582  -6.184  -1.261  0.00  0.00    -0.153 OA
ENDROOT
BRANCH   1   4
ATOM      4  C   UNL     1      -3.512  -6.678  -3.534  0.00  0.00    +0.119 A 
ATOM      5  C   UNL     1      -4.508  -5.910  -4.110  0.00  0.00    +0.031 A 
ATOM      6  C   UNL     1      -4.528  -5.715  -5.477  0.00  0.00    +0.025 A 
ATOM      7  C   UNL     1      -3.546  -6.290  -6.274  0.00  0.00    +0.026 A 
ATOM      8  C   UNL     1      -2.547  -7.060  -5.693  0.00  0.00    +0.040 A 
ATOM      9  C   UNL     1      -2.529  -7.247  -4.324  0.00  0.00    +0.046 A 
ATOM     10 BR   UNL     1      -1.165  -8.290  -3.531  0.00  0.00    -0.048 Br
BRANCH   7  11
ATOM     11  N   UNL     1      -3.564  -6.094  -7.657  0.00  0.00    -0.358 N 
ATOM     12  H   UNL     1      -4.262  -5.556  -8.062  0.00  0.00    +0.142 HD
ATOM     13  H   UNL     1      -2.878  -6.496  -8.213  0.00  0.00    +0.142 HD
ENDBRANCH   7  11
ENDBRANCH   1   4
BRANCH   1  14
ATOM     14  N   UNL     1      -2.111  -6.215  -1.211  0.00  0.00    -0.187 NA
ATOM     15  H   UNL     1      -1.419  -6.760  -0.805  0.00  0.00    +0.148 HD
BRANCH  14  19
ATOM     16  C   UNL     1      -0.719  -2.271  -0.372  0.00  0.00    -0.011 C 
ATOM     17  C   UNL     1      -0.281  -2.930  -1.682  0.00  0.00    +0.005 C 
ATOM     18  C   UNL     1      -0.463  -4.445  -1.576  0.00  0.00    +0.020 C 
ATOM     19  C   UNL     1      -1.936  -4.764  -1.312  0.00  0.00    +0.077 C 
ATOM     20  C   UNL     1      -2.374  -4.106  -0.002  0.00  0.00    +0.020 C 
ATOM     21  C   UNL     1      -2.191  -2.590  -0.108  0.00  0.00    +0.005 C 
BRANCH  16  22
ATOM     22  C   UNL     1      -0.536  -0.756  -0.477  0.00  0.00    +0.003 C 
BRANCH  22  24
ATOM     23  C   UNL     1       1.135   1.086  -0.722  0.00  0.00    +0.004 C 
ATOM     24  C   UNL     1       0.953  -0.430  -0.617  0.00  0.00    -0.003 C 
ENDBRANCH  22  24
ENDBRANCH  16  22
ENDBRANCH  14  19
ENDBRANCH   1  14
TORSDOF 6
