REMARK  Name = ZINC36337307
REMARK  5 active torsions:
REMARK  status: ('A' for Active; 'I' for Inactive)
REMARK    1  A    between atoms: C_1  and  O_2
REMARK    2  A    between atoms: O_2  and  C_3
REMARK    3  A    between atoms: C_8  and  N_10
REMARK    4  A    between atoms: N_10  and  S_11
REMARK    5  A    between atoms: S_11  and  C_14
REMARK                            x       y       z     vdW  Elec       q    Type
REMARK                         _______ _______ _______ _____ _____    ______ ____
ROOT
ATOM      1  S   UNL     1      -1.921  -3.478  -0.433  0.00  0.00    +0.059 S 
ATOM      2  O   UNL     1      -2.289  -3.891   0.876  0.00  0.00    -0.153 OA
ATOM      3  O   UNL     1      -2.809  -2.770  -1.287  0.00  0.00    -0.153 OA
ENDROOT
BRANCH   1   4
ATOM      4  C   UNL     1      -1.439  -4.933  -1.303  0.00  0.00    +0.107 A 
ATOM      5  C   UNL     1      -1.496  -4.960  -2.686  0.00  0.00    +0.030 A 
ATOM      6  C   UNL     1      -1.120  -6.095  -3.376  0.00  0.00    +0.030 A 
ATOM      7  C   UNL     1      -0.684  -7.213  -2.681  0.00  0.00    +0.067 A 
ATOM      8  C   UNL     1      -0.627  -7.186  -1.286  0.00  0.00    +0.069 A 
ATOM      9  C   UNL     1      -1.001  -6.040  -0.602  0.00  0.00    +0.056 A 
ATOM     10  N   UNL     1      -0.158  -8.433  -0.878  0.00  0.00    -0.306 N 
ATOM     11  H   UNL     1      -0.014  -8.713   0.039  0.00  0.00    +0.170 HD
ATOM     12  C   UNL     1       0.060  -9.184  -1.975  0.00  0.00    +0.325 A 
ATOM     13  O   UNL     1       0.472 -10.328  -1.970  0.00  0.00    -0.247 OA
ATOM     14  N   UNL     1      -0.248  -8.475  -3.078  0.00  0.00    -0.306 N 
ATOM     15  H   UNL     1      -0.179  -8.790  -3.992  0.00  0.00    +0.170 HD
ENDBRANCH   1   4
BRANCH   1  16
ATOM     16  N   UNL     1      -0.569  -2.536  -0.269  0.00  0.00    -0.186 NA
ATOM     17  H   UNL     1      -0.206  -2.358   0.613  0.00  0.00    +0.148 HD
BRANCH  16  22
ATOM     18  C   UNL     1       0.652  -0.570  -1.138  0.00  0.00    +0.118 C 
ATOM     19  C   UNL     1       2.142  -0.864  -0.830  0.00  0.00    -0.049 C 
ATOM     20  N   UNL     1       2.484  -1.936  -1.799  0.00  0.00    +0.382 N 
ATOM     21  C   UNL     1       1.301  -2.822  -1.855  0.00  0.00    -0.059 C 
ATOM     22  C   UNL     1       0.078  -1.970  -1.456  0.00  0.00    +0.086 C 
ATOM     23  H   UNL     1       2.664  -1.538  -2.709  0.00  0.00    -0.086 HD
ATOM     24  H   UNL     1       3.290  -2.452  -1.478  0.00  0.00    -0.086 HD
BRANCH  18  26
ATOM     25  C   UNL     1      -0.017   1.425   0.010  0.00  0.00    +0.194 C 
ATOM     26  O   UNL     1       0.002  -0.004   0.002  0.00  0.00    -0.380 OA
ENDBRANCH  18  26
ENDBRANCH  16  22
ENDBRANCH   1  16
TORSDOF 4
