REMARK  Name = ZINC39674001
REMARK  12 active torsions:
REMARK  status: ('A' for Active; 'I' for Inactive)
REMARK    1  A    between atoms: C_1  and  C_2
REMARK    2  A    between atoms: C_4  and  C_12
REMARK    3  A    between atoms: C_12  and  C_13
REMARK    4  A    between atoms: C_13  and  N_14
REMARK    5  A    between atoms: C_15  and  C_17
REMARK    6  A    between atoms: C_28  and  C_30
REMARK    7  A    between atoms: C_32  and  O_40
REMARK    8  A    between atoms: C_33  and  O_38
REMARK    9  A    between atoms: C_34  and  O_36
REMARK   10  A    between atoms: O_36  and  C_37
REMARK   11  A    between atoms: O_38  and  C_39
REMARK   12  A    between atoms: O_40  and  C_41
REMARK                            x       y       z     vdW  Elec       q    Type
REMARK                         _______ _______ _______ _____ _____    ______ ____
ROOT
ATOM      1  C   UNL     1      -5.881   3.303   4.045  0.00  0.00    +0.100 C 
ATOM      2  C   UNL     1      -5.142   2.188   4.819  0.00  0.00    +0.121 C 
ATOM      3  N   UNL     1      -4.380   2.904   5.870  0.00  0.00    -0.296 N 
ATOM      4  C   UNL     1      -5.298   3.974   6.327  0.00  0.00    +0.115 C 
ATOM      5  C   UNL     1      -5.985   4.471   5.039  0.00  0.00    -0.004 C 
ATOM      6  C   UNL     1      -7.449   4.802   5.315  0.00  0.00    -0.010 C 
ATOM      7  C   UNL     1      -7.527   6.004   6.260  0.00  0.00    -0.082 C 
ATOM      8  N   UNL     1      -6.852   7.155   5.648  0.00  0.00    +0.379 N 
ATOM      9  C   UNL     1      -5.424   6.862   5.472  0.00  0.00    -0.082 C 
ATOM     10  C   UNL     1      -5.257   5.696   4.493  0.00  0.00    -0.010 C 
ATOM     11  C   UNL     1      -3.134   2.641   6.310  0.00  0.00    +0.247 C 
ATOM     12  O   UNL     1      -2.454   1.805   5.748  0.00  0.00    -0.270 OA
ATOM     13  H   UNL     1      -7.268   7.348   4.749  0.00  0.00    -0.086 HD
ATOM     14  H   UNL     1      -6.957   7.962   6.245  0.00  0.00    -0.086 HD
ENDROOT
BRANCH  11  15
ATOM     15  C   UNL     1      -2.594   3.369   7.475  0.00  0.00    +0.044 A 
ATOM     16  C   UNL     1      -3.463   3.981   8.382  0.00  0.00    +0.062 A 
ATOM     17  C   UNL     1      -2.955   4.662   9.473  0.00  0.00    +0.166 A 
ATOM     18  C   UNL     1      -1.578   4.738   9.668  0.00  0.00    +0.204 A 
ATOM     19  C   UNL     1      -0.710   4.130   8.765  0.00  0.00    +0.166 A 
ATOM     20  C   UNL     1      -1.213   3.442   7.676  0.00  0.00    +0.062 A 
BRANCH  19  21
ATOM     21  O   UNL     1       0.634   4.207   8.958  0.00  0.00    -0.491 OA
ATOM     22  C   UNL     1       1.466   3.559   7.994  0.00  0.00    +0.277 C 
ENDBRANCH  19  21
BRANCH  18  23
ATOM     23  O   UNL     1      -1.081   5.408  10.740  0.00  0.00    -0.488 OA
ATOM     24  C   UNL     1      -0.882   4.657  11.939  0.00  0.00    +0.277 C 
ENDBRANCH  18  23
BRANCH  17  25
ATOM     25  O   UNL     1      -3.800   5.258  10.356  0.00  0.00    -0.491 OA
ATOM     26  C   UNL     1      -5.200   5.140  10.094  0.00  0.00    +0.277 C 
ENDBRANCH  17  25
ENDBRANCH  11  15
BRANCH   1  28
ATOM     27  N   UNL     1      -5.709   4.286   1.782  0.00  0.00    -0.315 N 
ATOM     28  C   UNL     1      -5.087   3.715   2.832  0.00  0.00    +0.218 C 
ATOM     29  O   UNL     1      -3.888   3.532   2.801  0.00  0.00    -0.275 OA
ATOM     30  H   UNL     1      -6.667   4.433   1.807  0.00  0.00    +0.149 HD
BRANCH  27  31
ATOM     31  C   UNL     1      -4.937   4.687   0.603  0.00  0.00    +0.109 C 
BRANCH  31  32
ATOM     32  C   UNL     1      -5.875   5.305  -0.435  0.00  0.00    +0.056 C 
BRANCH  32  36
ATOM     33  C   UNL     1      -5.284   3.541  -2.919  0.00  0.00    +0.063 C 
ATOM     34  C   UNL     1      -4.821   4.962  -2.726  0.00  0.00    +0.017 A 
ATOM     35  H   UNL     1      -3.753   5.333  -4.475  0.00  0.00    +0.166 HD
ATOM     36  C   UNL     1      -5.081   5.717  -1.648  0.00  0.00    -0.018 A 
ATOM     37  C   UNL     1      -4.448   7.019  -1.874  0.00  0.00    +0.003 A 
ATOM     38  C   UNL     1      -4.364   8.199  -1.133  0.00  0.00    +0.010 A 
ATOM     39  C   UNL     1      -3.678   9.268  -1.636  0.00  0.00    +0.001 A 
ATOM     40  C   UNL     1      -3.064   9.191  -2.878  0.00  0.00    +0.002 A 
ATOM     41  C   UNL     1      -3.134   8.036  -3.626  0.00  0.00    +0.026 A 
ATOM     42  C   UNL     1      -3.827   6.935  -3.133  0.00  0.00    +0.047 A 
ATOM     43  N   UNL     1      -4.068   5.670  -3.622  0.00  0.00    -0.358 N 
ENDBRANCH  32  36
ENDBRANCH  31  32
ENDBRANCH  27  31
ENDBRANCH   1  28
TORSDOF 8
