REMARK  Name = ZINC56229263
REMARK  8 active torsions:
REMARK  status: ('A' for Active; 'I' for Inactive)
REMARK    1  A    between atoms: C_1  and  C_2
REMARK    2  A    between atoms: C_7  and  N_12
REMARK    3  A    between atoms: C_9  and  C_11
REMARK    4  A    between atoms: C_13  and  C_15
REMARK    5  A    between atoms: C_15  and  C_17
REMARK    6  A    between atoms: C_15  and  S_18
REMARK    7  A    between atoms: S_18  and  C_19
REMARK    8  A    between atoms: C_19  and  C_20
REMARK                            x       y       z     vdW  Elec       q    Type
REMARK                         _______ _______ _______ _____ _____    ______ ____
ROOT
ATOM      1  C   UNL     1       1.363  -0.333   6.074  0.00  0.00    +0.129 C 
ATOM      2  C   UNL     1       2.798   0.197   6.063  0.00  0.00    +0.029 C 
ENDROOT
BRANCH   1   4
ATOM      3  N   UNL     1       0.735  -0.503   3.687  0.00  0.00    -0.311 N 
ATOM      4  C   UNL     1       0.634   0.166   4.853  0.00  0.00    +0.226 C 
ATOM      5  O   UNL     1      -0.044   1.170   4.919  0.00  0.00    -0.275 OA
ATOM      6  H   UNL     1       1.276  -1.306   3.634  0.00  0.00    +0.149 HD
BRANCH   3  12
ATOM      7  C   UNL     1      -0.019   1.526   0.010  0.00  0.00    +0.008 C 
ATOM      8  C   UNL     1       0.002  -0.004   0.002  0.00  0.00    -0.009 C 
ATOM      9  C   UNL     1      -1.433  -0.534   0.013  0.00  0.00    +0.003 C 
ATOM     10  C   UNL     1      -2.149  -0.040   1.272  0.00  0.00    +0.002 C 
ATOM     11  C   UNL     1      -1.409  -0.547   2.511  0.00  0.00    +0.022 C 
ATOM     12  C   UNL     1       0.026  -0.018   2.500  0.00  0.00    +0.076 C 
ATOM     13  C   UNL     1       0.742  -0.511   1.242  0.00  0.00    +0.009 C 
ATOM     14  C   UNL     1       2.178   0.019   1.231  0.00  0.00    +0.009 C 
ENDBRANCH   3  12
ENDBRANCH   1   4
BRANCH   1  15
ATOM     15  S   UNL     1       0.513   0.252   7.566  0.00  0.00    -0.141 S 
BRANCH  15  16
ATOM     16  C   UNL     1       1.411  -0.549   8.924  0.00  0.00    +0.146 C 
BRANCH  16  17
ATOM     17  C   UNL     1       0.799  -0.142  10.240  0.00  0.00    +0.146 A 
ATOM     18  N   UNL     1       1.241   0.933  10.868  0.00  0.00    -0.199 NA
ATOM     19  C   UNL     1       0.703   1.296  12.030  0.00  0.00    +0.217 A 
ATOM     20  N   UNL     1      -0.281   0.576  12.558  0.00  0.00    -0.181 NA
ATOM     21  C   UNL     1      -0.723  -0.505  11.923  0.00  0.00    +0.217 A 
ATOM     22  N   UNL     1      -0.183  -0.858  10.759  0.00  0.00    -0.199 NA
ATOM     23  N   UNL     1      -1.744  -1.256  12.468  0.00  0.00    -0.327 N 
ATOM     24  N   UNL     1       1.166   2.418  12.685  0.00  0.00    -0.327 N 
ATOM     25  H   UNL     1      -2.140  -0.996  13.314  0.00  0.00    +0.145 HD
ATOM     26  H   UNL     1      -2.067  -2.045  12.004  0.00  0.00    +0.145 HD
ATOM     27  H   UNL     1       1.884   2.944  12.299  0.00  0.00    +0.145 HD
ATOM     28  H   UNL     1       0.773   2.682  13.532  0.00  0.00    +0.145 HD
ENDBRANCH  16  17
ENDBRANCH  15  16
ENDBRANCH   1  15
TORSDOF 5
