REMARK  Name = ZINC15430661
REMARK  8 active torsions:
REMARK  status: ('A' for Active; 'I' for Inactive)
REMARK    1  A    between atoms: C_3  and  S_21
REMARK    2  A    between atoms: C_6  and  C_7
REMARK    3  A    between atoms: N_9  and  N_10
REMARK    4  A    between atoms: N_10  and  C_11
REMARK    5  A    between atoms: C_11  and  N_13
REMARK    6  A    between atoms: N_13  and  C_14
REMARK    7  A    between atoms: C_14  and  C_15
REMARK    8  A    between atoms: S_21  and  C_22
REMARK                            x       y       z     vdW  Elec       q    Type
REMARK                         _______ _______ _______ _____ _____    ______ ____
ROOT
ATOM      1  C   UNL     1       7.147   4.376  -0.571  0.00  0.00    +0.260 C 
ATOM      2  O   UNL     1       7.545   5.442  -1.000  0.00  0.00    -0.269 OA
ATOM      3  N   UNL     1       5.828   4.100  -0.571  0.00  0.00    -0.231 N 
ATOM      4  H   UNL     1       5.511   3.250  -0.229  0.00  0.00    +0.173 HD
ENDROOT
BRANCH   1  10
ATOM      5  C   UNL     1       7.651   2.162   0.449  0.00  0.00    +0.014 A 
ATOM      6  C   UNL     1       8.547   1.241   0.927  0.00  0.00    +0.016 A 
ATOM      7  C   UNL     1       9.910   1.528   0.926  0.00  0.00    +0.016 A 
ATOM      8  C   UNL     1      10.368   2.748   0.435  0.00  0.00    +0.016 A 
ATOM      9  C   UNL     1       9.477   3.671  -0.050  0.00  0.00    +0.014 A 
ATOM     10  C   UNL     1       8.108   3.386  -0.050  0.00  0.00    +0.038 A 
BRANCH   7  11
ATOM     11  S   UNL     1      11.058   0.345   1.549  0.00  0.00    -0.016 S 
BRANCH  11  12
ATOM     12  C   UNL     1      10.017  -1.049   2.062  0.00  0.00    +0.448 C 
ATOM     13  F   UNL     1       9.308  -1.533   0.958  0.00  0.00    -0.160 F 
ATOM     14  F   UNL     1      10.823  -2.067   2.582  0.00  0.00    -0.160 F 
ATOM     15  F   UNL     1       9.116  -0.622   3.044  0.00  0.00    -0.160 F 
ENDBRANCH  11  12
ENDBRANCH   7  11
ENDBRANCH   1  10
BRANCH   3  16
ATOM     16  N   UNL     1       4.916   5.041  -1.066  0.00  0.00    -0.246 N 
ATOM     17  H   UNL     1       5.233   5.891  -1.408  0.00  0.00    +0.172 HD
BRANCH  16  18
ATOM     18  C   UNL     1       3.596   4.764  -1.066  0.00  0.00    +0.147 C 
ATOM     19  S   UNL     1       2.481   5.914  -1.670  0.00  0.00    -0.017 S 
BRANCH  18  20
ATOM     20  N   UNL     1       3.155   3.583  -0.590  0.00  0.00    -0.323 N 
ATOM     21  H   UNL     1       3.787   2.932  -0.247  0.00  0.00    +0.148 HD
BRANCH  20  22
ATOM     22  C   UNL     1       1.721   3.283  -0.590  0.00  0.00    +0.134 C 
BRANCH  22  23
ATOM     23  C   UNL     1       1.492   1.889  -0.002  0.00  0.00    +0.135 C 
ATOM     24  C   UNL     1      -0.019   1.544   0.011  0.00  0.00    +0.035 C 
ATOM     25  C   UNL     1       0.002  -0.004   0.002  0.00  0.00    +0.031 C 
ATOM     26  C   UNL     1       1.398  -0.360  -0.546  0.00  0.00    +0.160 C 
ATOM     27  O   UNL     1       2.062   0.876  -0.858  0.00  0.00    -0.375 OA
ENDBRANCH  22  23
ENDBRANCH  20  22
ENDBRANCH  18  20
ENDBRANCH  16  18
ENDBRANCH   3  16
TORSDOF 8
