REMARK  Name = ZINC63732005
REMARK  7 active torsions:
REMARK  status: ('A' for Active; 'I' for Inactive)
REMARK    1  A    between atoms: C_6  and  C_11
REMARK    2  A    between atoms: C_11  and  C_12
REMARK    3  A    between atoms: C_12  and  C_14
REMARK    4  A    between atoms: C_12  and  N_24
REMARK    5  A    between atoms: N_16  and  C_17
REMARK    6  A    between atoms: N_24  and  S_25
REMARK    7  A    between atoms: S_25  and  C_28
REMARK                            x       y       z     vdW  Elec       q    Type
REMARK                         _______ _______ _______ _____ _____    ______ ____
ROOT
ATOM      1  C   UNL     1       5.085  -2.888   1.023  0.00  0.00    +0.165 C 
ENDROOT
BRANCH   1   2
ATOM      2  C   UNL     1       5.607  -3.935   1.973  0.00  0.00    +0.236 C 
ATOM      3  O   UNL     1       6.516  -3.667   2.731  0.00  0.00    -0.274 OA
ATOM      4  N   UNL     1       5.065  -5.168   1.981  0.00  0.00    -0.284 N 
ATOM      5  H   UNL     1       4.295  -5.364   1.424  0.00  0.00    +0.155 HD
BRANCH   4   6
ATOM      6  C   UNL     1       5.612  -6.168   2.794  0.00  0.00    +0.034 A 
ATOM      7  C   UNL     1       5.635  -7.486   2.355  0.00  0.00    +0.025 A 
ATOM      8  C   UNL     1       6.176  -8.470   3.159  0.00  0.00    +0.022 A 
ATOM      9  C   UNL     1       6.693  -8.145   4.400  0.00  0.00    +0.041 A 
ATOM     10  C   UNL     1       6.671  -6.833   4.840  0.00  0.00    +0.022 A 
ATOM     11  C   UNL     1       6.137  -5.844   4.038  0.00  0.00    +0.025 A 
ATOM     12 CL   UNL     1       7.371  -9.385   5.408  0.00  0.00    -0.084 Cl
ENDBRANCH   4   6
ENDBRANCH   1   2
BRANCH   1  13
ATOM     13  N   UNL     1       5.834  -1.643   1.209  0.00  0.00    -0.178 NA
ATOM     14  H   UNL     1       5.573  -1.019   1.904  0.00  0.00    +0.149 HD
BRANCH  13  15
ATOM     15  S   UNL     1       7.126  -1.301   0.232  0.00  0.00    +0.059 S 
ATOM     16  O   UNL     1       7.596  -0.016   0.615  0.00  0.00    -0.153 OA
ATOM     17  O   UNL     1       7.960  -2.451   0.243  0.00  0.00    -0.153 OA
BRANCH  15  18
ATOM     18  C   UNL     1       6.510  -1.142  -1.411  0.00  0.00    +0.106 A 
ATOM     19  C   UNL     1       6.339  -2.268  -2.196  0.00  0.00    +0.030 A 
ATOM     20  C   UNL     1       5.856  -2.147  -3.484  0.00  0.00    +0.025 A 
ATOM     21  C   UNL     1       5.541  -0.893  -3.991  0.00  0.00    +0.037 A 
ATOM     22  C   UNL     1       5.714   0.235  -3.200  0.00  0.00    -0.024 A 
ATOM     23  C   UNL     1       6.192   0.108  -1.911  0.00  0.00    +0.034 A 
ATOM     24  C   UNL     1       5.372   1.595  -3.750  0.00  0.00    +0.046 C 
ATOM     25  C   UNL     1       5.680   1.634  -5.247  0.00  0.00    +0.101 C 
ATOM     26  C   UNL     1       5.092   0.425  -5.923  0.00  0.00    +0.218 C 
ATOM     27  O   UNL     1       4.649   0.523  -7.048  0.00  0.00    -0.275 OA
ATOM     28  N   UNL     1       5.051  -0.764  -5.294  0.00  0.00    -0.285 N 
ATOM     29  H   UNL     1       4.680  -1.537  -5.748  0.00  0.00    +0.155 HD
ENDBRANCH  15  18
ENDBRANCH  13  15
ENDBRANCH   1  13
BRANCH   1  30
ATOM     30  C   UNL     1       3.602  -2.638   1.305  0.00  0.00    +0.058 C 
BRANCH  30  36
ATOM     31  C   UNL     1       0.365   1.996   1.169  0.00  0.00    +0.001 A 
ATOM     32  C   UNL     1       1.625   2.607   1.102  0.00  0.00    +0.002 A 
ATOM     33  C   UNL     1       2.757   1.917   0.848  0.00  0.00    +0.026 A 
ATOM     34  C   UNL     1       2.711   0.512   0.634  0.00  0.00    +0.043 A 
ATOM     35  N   UNL     1       3.651  -0.363   0.375  0.00  0.00    -0.378 N 
ATOM     36  C   UNL     1       3.035  -1.689   0.247  0.00  0.00    +0.105 C 
ATOM     37  C   UNL     1       1.554  -1.481   0.472  0.00  0.00    +0.007 C 
ATOM     38  C   UNL     1       1.392  -0.157   0.700  0.00  0.00    -0.004 A 
ATOM     39  C   UNL     1       0.209   0.665   0.982  0.00  0.00    +0.010 A 
ATOM     40  H   UNL     1       4.597  -0.168   0.283  0.00  0.00    +0.160 HD
ENDBRANCH  30  36
ENDBRANCH   1  30
TORSDOF 7
