REMARK  Name = ZINC39531979
REMARK  8 active torsions:
REMARK  status: ('A' for Active; 'I' for Inactive)
REMARK    1  A    between atoms: C_1  and  C_2
REMARK    2  A    between atoms: C_5  and  C_8
REMARK    3  A    between atoms: C_8  and  C_10
REMARK    4  A    between atoms: C_8  and  N_13
REMARK    5  A    between atoms: C_10  and  N_11
REMARK    6  A    between atoms: C_17  and  S_20
REMARK    7  A    between atoms: S_20  and  O_23
REMARK    8  A    between atoms: O_23  and  C_24
REMARK                            x       y       z     vdW  Elec       q    Type
REMARK                         _______ _______ _______ _____ _____    ______ ____
ROOT
ATOM      1  N   UNL     1       0.899  -4.849   1.037  0.00  0.00    -0.296 NA
ATOM      2  C   UNL     1       2.226  -4.216   1.038  0.00  0.00    +0.066 C 
ATOM      3  C   UNL     1       3.064  -4.797   2.179  0.00  0.00    -0.064 C 
ATOM      4  N   UNL     1       3.196  -6.249   1.999  0.00  0.00    +0.398 N 
ATOM      5  C   UNL     1       1.865  -6.870   2.025  0.00  0.00    +0.130 C 
ATOM      6  C   UNL     1       1.016  -6.306   0.883  0.00  0.00    +0.095 C 
ATOM      7  H   UNL     1       3.638  -6.440   1.113  0.00  0.00    -0.083 HD
ATOM      8  H   UNL     1       3.759  -6.630   2.745  0.00  0.00    -0.083 HD
ENDROOT
BRANCH   5   9
ATOM      9  S   UNL     1       2.031  -8.665   1.825  0.00  0.00    +0.109 S 
ATOM     10  O   UNL     1       0.775  -9.299   2.026  0.00  0.00    -0.138 OA
ATOM     11  O   UNL     1       2.816  -8.959   0.677  0.00  0.00    -0.138 OA
BRANCH   9  12
ATOM     12  O   UNL     1       2.884  -9.113   3.004  0.00  0.00    -0.347 OA
BRANCH  12  13
ATOM     13  C   UNL     1       2.220  -9.136   4.189  0.00  0.00    +0.156 A 
ATOM     14  C   UNL     1       2.196  -8.007   4.994  0.00  0.00    +0.048 A 
ATOM     15  C   UNL     1       1.520  -8.033   6.199  0.00  0.00    +0.004 A 
ATOM     16  C   UNL     1       0.869  -9.184   6.602  0.00  0.00    +0.000 A 
ATOM     17  C   UNL     1       0.892 -10.311   5.802  0.00  0.00    +0.004 A 
ATOM     18  C   UNL     1       1.561 -10.288   4.594  0.00  0.00    +0.048 A 
ENDBRANCH  12  13
ENDBRANCH   9  12
ENDBRANCH   5   9
BRANCH   1  19
ATOM     19  C   UNL     1       0.043  -4.276  -0.010  0.00  0.00    +0.102 C 
BRANCH  19  24
ATOM     20  C   UNL     1      -0.597   1.393   0.911  0.00  0.00    +0.044 C 
ATOM     21  C   UNL     1      -0.430  -0.086   0.671  0.00  0.00    -0.050 A 
ATOM     22  C   UNL     1      -0.262  -0.562  -0.616  0.00  0.00    +0.003 A 
ATOM     23  C   UNL     1      -0.108  -1.918  -0.836  0.00  0.00    +0.005 A 
ATOM     24  C   UNL     1      -0.123  -2.798   0.230  0.00  0.00    -0.029 A 
ATOM     25  C   UNL     1      -0.290  -2.321   1.517  0.00  0.00    +0.005 A 
ATOM     26  C   UNL     1      -0.439  -0.965   1.738  0.00  0.00    +0.003 A 
ENDBRANCH  19  24
BRANCH  19  27
ATOM     27  C   UNL     1      -1.327  -4.955   0.023  0.00  0.00    +0.122 C 
BRANCH  27  28
ATOM     28  N   UNL     1      -2.155  -4.442  -1.076  0.00  0.00    -0.231 NA
ATOM     29 CL   UNL     1      -3.745  -5.065  -0.989  0.00  0.00    -0.024 Cl
ATOM     30  H   UNL     1      -1.735  -4.646  -1.971  0.00  0.00    +0.141 HD
ENDBRANCH  27  28
ENDBRANCH  19  27
ENDBRANCH   1  19
TORSDOF 7
