REMARK  Name = ZINC67298725
REMARK  6 active torsions:
REMARK  status: ('A' for Active; 'I' for Inactive)
REMARK    1  A    between atoms: C_3  and  N_11
REMARK    2  A    between atoms: C_6  and  C_7
REMARK    3  A    between atoms: C_13  and  C_23
REMARK    4  A    between atoms: C_18  and  O_22
REMARK    5  A    between atoms: N_25  and  C_26
REMARK    6  A    between atoms: C_26  and  C_27
REMARK                            x       y       z     vdW  Elec       q    Type
REMARK                         _______ _______ _______ _____ _____    ______ ____
ROOT
ATOM      1  N   UNL     1       3.560   2.111  -0.018  0.00  0.00    -0.325 N 
ATOM      2  C   UNL     1       4.544   1.747   0.776  0.00  0.00    +0.212 A 
ATOM      3  C   UNL     1       5.861   2.410   0.714  0.00  0.00    +0.097 A 
ATOM      4  C   UNL     1       6.643   2.385   1.860  0.00  0.00    +0.030 A 
ATOM      5  C   UNL     1       6.142   1.701   2.997  0.00  0.00    +0.018 A 
ATOM      6  C   UNL     1       6.792   1.813   4.236  0.00  0.00    +0.015 A 
ATOM      7  C   UNL     1       6.279   1.184   5.332  0.00  0.00    +0.046 A 
ATOM      8  C   UNL     1       5.115   0.424   5.230  0.00  0.00    +0.120 A 
ATOM      9  C   UNL     1       4.470   0.285   4.011  0.00  0.00    +0.092 A 
ATOM     10  C   UNL     1       4.981   0.911   2.886  0.00  0.00    +0.141 A 
ATOM     11  O   UNL     1       4.381   0.751   1.684  0.00  0.00    -0.438 OA
ATOM     12  H   UNL     1       3.665   2.881  -0.599  0.00  0.00    +0.169 HD
ENDROOT
BRANCH   1  15
ATOM     13  C   UNL     1      -0.013   1.359  -0.012  0.00  0.00    +0.014 A 
ATOM     14  C   UNL     1       1.164   2.077  -0.005  0.00  0.00    +0.026 A 
ATOM     15  C   UNL     1       2.389   1.405  -0.024  0.00  0.00    +0.042 A 
ATOM     16  C   UNL     1       2.412   0.009  -0.050  0.00  0.00    +0.026 A 
ATOM     17  C   UNL     1       1.226  -0.697  -0.056  0.00  0.00    +0.014 A 
ATOM     18  C   UNL     1       0.017  -0.025  -0.037  0.00  0.00    +0.055 A 
BRANCH  18  19
ATOM     19  C   UNL     1      -1.274  -0.803  -0.045  0.00  0.00    +0.417 C 
ATOM     20  F   UNL     1      -1.680  -1.020  -1.366  0.00  0.00    -0.166 F 
ATOM     21  F   UNL     1      -1.079  -2.034   0.591  0.00  0.00    -0.166 F 
ATOM     22  F   UNL     1      -2.259  -0.078   0.633  0.00  0.00    -0.166 F 
ENDBRANCH  18  19
ENDBRANCH   1  15
BRANCH   3  23
ATOM     23  C   UNL     1       6.327   3.072  -0.515  0.00  0.00    +0.249 C 
ATOM     24  O   UNL     1       5.588   3.156  -1.478  0.00  0.00    -0.270 OA
ATOM     25  N   UNL     1       7.572   3.585  -0.574  0.00  0.00    -0.309 N 
ATOM     26  H   UNL     1       8.186   3.453   0.165  0.00  0.00    +0.149 HD
BRANCH  25  27
ATOM     27  C   UNL     1       7.998   4.341  -1.754  0.00  0.00    +0.136 C 
BRANCH  27  28
ATOM     28  C   UNL     1       9.443   4.808  -1.567  0.00  0.00    +0.135 C 
ATOM     29  C   UNL     1       9.860   5.707  -2.750  0.00  0.00    +0.035 C 
ATOM     30  C   UNL     1      11.327   5.263  -3.000  0.00  0.00    +0.031 C 
ATOM     31  C   UNL     1      11.242   3.756  -2.651  0.00  0.00    +0.160 C 
ATOM     32  O   UNL     1      10.321   3.676  -1.550  0.00  0.00    -0.375 OA
ENDBRANCH  27  28
ENDBRANCH  25  27
ENDBRANCH   3  23
BRANCH   8  33
ATOM     33  O   UNL     1       4.610  -0.185   6.333  0.00  0.00    -0.507 OA
ATOM     34  H   UNL     1       3.979   0.356   6.827  0.00  0.00    +0.292 HD
ENDBRANCH   8  33
TORSDOF 6
