REMARK  Name = ZINC09264335
REMARK  5 active torsions:
REMARK  status: ('A' for Active; 'I' for Inactive)
REMARK    1  A    between atoms: C_1  and  O_2
REMARK    2  A    between atoms: O_2  and  C_3
REMARK    3  A    between atoms: C_8  and  C_9
REMARK    4  A    between atoms: C_14  and  C_19
REMARK    5  A    between atoms: N_34  and  C_35
REMARK                            x       y       z     vdW  Elec       q    Type
REMARK                         _______ _______ _______ _____ _____    ______ ____
ROOT
ATOM      1  C   UNL     1       2.521   1.025   0.017  0.00  0.00    +0.152 C 
ATOM      2  C   UNL     1       3.072   0.980   1.423  0.00  0.00    +0.037 C 
ATOM      3  C   UNL     1       3.148  -0.110   2.205  0.00  0.00    +0.017 C 
ATOM      4  C   UNL     1       3.704  -0.007   3.616  0.00  0.00    +0.063 C 
ATOM      5  C   UNL     1       4.785   1.071   3.672  0.00  0.00    +0.068 C 
ATOM      6  C   UNL     1       4.141   2.399   3.256  0.00  0.00    +0.091 C 
ATOM      7  C   UNL     1       3.536   2.230   1.895  0.00  0.00    +0.163 C 
ATOM      8  O   UNL     1       3.441   3.202   1.171  0.00  0.00    -0.292 OA
ATOM      9  N   UNL     1       2.753  -1.356   1.842  0.00  0.00    -0.316 N 
ATOM     10  C   UNL     1       1.546  -1.656   1.222  0.00  0.00    +0.053 A 
ATOM     11  C   UNL     1       0.573  -2.430   1.831  0.00  0.00    +0.025 A 
ATOM     12  C   UNL     1      -0.588  -2.729   1.138  0.00  0.00    +0.002 A 
ATOM     13  C   UNL     1      -0.772  -2.260  -0.150  0.00  0.00    +0.002 A 
ATOM     14  C   UNL     1       0.192  -1.471  -0.753  0.00  0.00    +0.025 A 
ATOM     15  C   UNL     1       1.345  -1.153  -0.055  0.00  0.00    +0.060 A 
ATOM     16  N   UNL     1       2.294  -0.275  -0.579  0.00  0.00    -0.242 N 
ATOM     17  C   UNL     1       3.011  -0.642  -1.659  0.00  0.00    +0.312 C 
ATOM     18  O   UNL     1       3.840   0.116  -2.125  0.00  0.00    -0.252 OA
ATOM     19  N   UNL     1       2.809  -1.849  -2.224  0.00  0.00    -0.269 N 
ATOM     20  H   UNL     1       3.407  -2.219   2.035  0.00  0.00    +0.152 HD
ATOM     21  H   UNL     1       2.000  -2.499  -1.858  0.00  0.00    +0.156 HD
ENDROOT
BRANCH   1  27
ATOM     22  C   UNL     1       0.676   2.268  -1.139  0.00  0.00    +0.125 A 
ATOM     23  C   UNL     1      -0.527   2.959  -1.114  0.00  0.00    +0.046 A 
ATOM     24  C   UNL     1      -1.186   3.154   0.084  0.00  0.00    +0.004 A 
ATOM     25  C   UNL     1      -0.650   2.656   1.258  0.00  0.00    +0.001 A 
ATOM     26  C   UNL     1       0.551   1.972   1.236  0.00  0.00    +0.009 A 
ATOM     27  C   UNL     1       1.214   1.775   0.040  0.00  0.00    +0.020 A 
BRANCH  22  29
ATOM     28  C   UNL     1       0.713   2.611  -3.491  0.00  0.00    +0.277 C 
ATOM     29  O   UNL     1       1.326   2.075  -2.317  0.00  0.00    -0.495 OA
ENDBRANCH  22  29
ENDBRANCH   1  27
BRANCH  19  30
ATOM     30  C   UNL     1       3.628  -2.276  -3.275  0.00  0.00    +0.035 A 
ATOM     31  C   UNL     1       3.105  -3.071  -4.286  0.00  0.00    +0.023 A 
ATOM     32  C   UNL     1       3.914  -3.486  -5.325  0.00  0.00    +0.002 A 
ATOM     33  C   UNL     1       5.248  -3.121  -5.353  0.00  0.00    +0.000 A 
ATOM     34  C   UNL     1       5.773  -2.334  -4.345  0.00  0.00    +0.002 A 
ATOM     35  C   UNL     1       4.968  -1.911  -3.306  0.00  0.00    +0.023 A 
ENDBRANCH  19  30
BRANCH   5  36
ATOM     36  C   UNL     1       5.323   1.182   5.076  0.00  0.00    +0.109 A 
ATOM     37  C   UNL     1       6.601   0.987   5.447  0.00  0.00    +0.045 A 
ATOM     38  C   UNL     1       6.658   1.192   6.844  0.00  0.00    +0.041 A 
ATOM     39  C   UNL     1       5.412   1.500   7.244  0.00  0.00    +0.195 A 
ATOM     40  O   UNL     1       4.608   1.499   6.168  0.00  0.00    -0.468 OA
ENDBRANCH   5  36
TORSDOF 4
