REMARK  Name = ZINC38685096
REMARK  10 active torsions:
REMARK  status: ('A' for Active; 'I' for Inactive)
REMARK    1  A    between atoms: C_1  and  C_2
REMARK    2  A    between atoms: C_2  and  C_3
REMARK    3  A    between atoms: N_5  and  C_6
REMARK    4  A    between atoms: C_6  and  C_7
REMARK    5  A    between atoms: C_7  and  C_8
REMARK    6  A    between atoms: C_16  and  C_18
REMARK    7  A    between atoms: N_25  and  C_28
REMARK    8  A    between atoms: C_31  and  C_34
REMARK    9  A    between atoms: C_34  and  C_35
REMARK   10  A    between atoms: C_34  and  C_36
REMARK                            x       y       z     vdW  Elec       q    Type
REMARK                         _______ _______ _______ _____ _____    ______ ____
ROOT
ATOM      1  C   UNL     1       2.926  -6.007  -2.487  0.00  0.00    +0.020 C 
ATOM      2  C   UNL     1       2.648  -7.307  -2.239  0.00  0.00    +0.100 C 
ATOM      3  C   UNL     1       3.638  -8.202  -1.601  0.00  0.00    +0.276 C 
ATOM      4  O   UNL     1       4.856  -7.744  -1.246  0.00  0.00    -0.268 OA
ATOM      5  N   UNL     1       3.301  -9.459  -1.388  0.00  0.00    -0.123 NA
ATOM      6  C   UNL     1       2.105  -9.940  -1.727  0.00  0.00    +0.340 C 
ATOM      7  O   UNL     1       1.872 -11.113  -1.496  0.00  0.00    -0.250 OA
ATOM      8  N   UNL     1       1.144  -9.209  -2.308  0.00  0.00    -0.188 N 
ATOM      9  C   UNL     1       1.335  -7.901  -2.587  0.00  0.00    +0.263 C 
ATOM     10  O   UNL     1       0.462  -7.235  -3.110  0.00  0.00    -0.269 OA
ENDROOT
BRANCH   1  19
ATOM     11  C   UNL     1       1.802  -3.846  -2.042  0.00  0.00    -0.033 C 
ATOM     12  C   UNL     1       2.038  -2.792  -2.855  0.00  0.00    -0.000 A 
ATOM     13  C   UNL     1       2.142  -1.349  -2.608  0.00  0.00    +0.010 A 
ATOM     14  C   UNL     1       2.392  -0.521  -3.649  0.00  0.00    +0.001 A 
ATOM     15  C   UNL     1       2.554  -1.007  -4.954  0.00  0.00    +0.002 A 
ATOM     16  C   UNL     1       2.472  -2.319  -5.259  0.00  0.00    +0.026 A 
ATOM     17  C   UNL     1       2.213  -3.279  -4.242  0.00  0.00    +0.043 A 
ATOM     18  N   UNL     1       2.090  -4.583  -4.285  0.00  0.00    -0.374 N 
ATOM     19  C   UNL     1       1.828  -5.072  -2.926  0.00  0.00    +0.130 C 
ATOM     20  H   UNL     1       2.163  -5.133  -5.080  0.00  0.00    +0.161 HD
BRANCH  11  21
ATOM     21  C   UNL     1       1.566  -3.807  -0.554  0.00  0.00    +0.052 C 
BRANCH  21  22
ATOM     22  C   UNL     1       1.625  -2.358  -0.066  0.00  0.00    +0.108 C 
BRANCH  22  25
ATOM     23  C   UNL     1       1.403  -1.141   2.033  0.00  0.00    +0.213 C 
ATOM     24  O   UNL     1       1.598  -0.111   1.423  0.00  0.00    -0.276 OA
ATOM     25  N   UNL     1       1.396  -2.320   1.381  0.00  0.00    -0.315 N 
ATOM     26  H   UNL     1       1.239  -3.144   1.869  0.00  0.00    +0.149 HD
BRANCH  23  28
ATOM     27  C   UNL     1       1.226   0.347   4.009  0.00  0.00    +0.013 C 
ATOM     28  C   UNL     1       1.167  -1.102   3.521  0.00  0.00    +0.092 C 
ENDBRANCH  23  28
ENDBRANCH  22  25
ENDBRANCH  21  22
ENDBRANCH  11  21
ENDBRANCH   1  19
BRANCH   8  29
ATOM     29  C   UNL     1      -0.081  -9.809  -2.626  0.00  0.00    +0.046 A 
ATOM     30  C   UNL     1      -0.258 -10.416  -3.863  0.00  0.00    +0.024 A 
ATOM     31  C   UNL     1      -1.467 -11.008  -4.173  0.00  0.00    +0.006 A 
ATOM     32  C   UNL     1      -2.500 -10.995  -3.255  0.00  0.00    -0.045 A 
ATOM     33  C   UNL     1      -2.327 -10.391  -2.023  0.00  0.00    +0.006 A 
ATOM     34  C   UNL     1      -1.119  -9.803  -1.704  0.00  0.00    +0.024 A 
BRANCH  32  35
ATOM     35  C   UNL     1      -3.818 -11.641  -3.597  0.00  0.00    +0.013 C 
ATOM     36  C   UNL     1      -4.115 -12.757  -2.592  0.00  0.00    +0.012 C 
ATOM     37  C   UNL     1      -4.931 -10.593  -3.538  0.00  0.00    +0.012 C 
ENDBRANCH  32  35
ENDBRANCH   8  29
TORSDOF 7
