REMARK  Name = ZINC09613604
REMARK  6 active torsions:
REMARK  status: ('A' for Active; 'I' for Inactive)
REMARK    1  A    between atoms: C_4  and  N_7
REMARK    2  A    between atoms: C_8  and  C_29
REMARK    3  A    between atoms: C_10  and  S_12
REMARK    4  A    between atoms: S_12  and  C_13
REMARK    5  A    between atoms: C_13  and  C_14
REMARK    6  A    between atoms: N_16  and  C_17
REMARK                            x       y       z     vdW  Elec       q    Type
REMARK                         _______ _______ _______ _____ _____    ______ ____
ROOT
ATOM      1  C   UNL     1      -2.473   0.763   0.133  0.00  0.00    +0.173 C 
ENDROOT
BRANCH   1   2
ATOM      2  C   UNL     1      -1.211   1.579   0.018  0.00  0.00    +0.227 C 
ATOM      3  O   UNL     1      -1.276   2.787  -0.066  0.00  0.00    -0.275 OA
ATOM      4  N   UNL     1      -0.011   0.966   0.007  0.00  0.00    -0.285 N 
ATOM      5  H   UNL     1       0.039  -0.003   0.007  0.00  0.00    +0.155 HD
BRANCH   4   6
ATOM      6  C   UNL     1       1.164   1.728  -0.009  0.00  0.00    +0.035 A 
ATOM      7  C   UNL     1       2.288   1.284   0.679  0.00  0.00    +0.025 A 
ATOM      8  C   UNL     1       3.451   2.028   0.663  0.00  0.00    +0.029 A 
ATOM      9  C   UNL     1       3.496   3.227  -0.032  0.00  0.00    +0.067 A 
ATOM     10  C   UNL     1       2.367   3.678  -0.719  0.00  0.00    +0.069 A 
ATOM     11  C   UNL     1       1.203   2.926  -0.705  0.00  0.00    +0.051 A 
ATOM     12  N   UNL     1       2.713   4.891  -1.310  0.00  0.00    -0.306 N 
ATOM     13  H   UNL     1       2.131   5.444  -1.854  0.00  0.00    +0.170 HD
ATOM     14  C   UNL     1       3.994   5.166  -0.997  0.00  0.00    +0.325 A 
ATOM     15  O   UNL     1       4.606   6.154  -1.357  0.00  0.00    -0.247 OA
ATOM     16  N   UNL     1       4.494   4.181  -0.227  0.00  0.00    -0.306 N 
ATOM     17  H   UNL     1       5.395   4.142   0.130  0.00  0.00    +0.170 HD
ENDBRANCH   4   6
ENDBRANCH   1   2
BRANCH   1  18
ATOM     18  S   UNL     1      -3.911   1.868   0.119  0.00  0.00    -0.075 S 
BRANCH  18  22
ATOM     19  N   UNL     1      -6.542  -0.999   0.445  0.00  0.00    -0.216 N 
ATOM     20  C   UNL     1      -7.335   0.088   0.403  0.00  0.00    +0.137 A 
ATOM     21  N   UNL     1      -6.573   1.147   0.297  0.00  0.00    -0.205 NA
ATOM     22  C   UNL     1      -5.288   0.777   0.260  0.00  0.00    +0.210 A 
ATOM     23  N   UNL     1      -5.221  -0.531   0.351  0.00  0.00    -0.138 NA
BRANCH  19  27
ATOM     24  C   UNL     1      -7.763  -4.969   0.788  0.00  0.00    +0.000 A 
ATOM     25  C   UNL     1      -6.655  -4.652   0.024  0.00  0.00    +0.002 A 
ATOM     26  C   UNL     1      -6.248  -3.337  -0.091  0.00  0.00    +0.028 A 
ATOM     27  C   UNL     1      -6.952  -2.333   0.561  0.00  0.00    +0.067 A 
ATOM     28  C   UNL     1      -8.061  -2.656   1.331  0.00  0.00    +0.028 A 
ATOM     29  C   UNL     1      -8.467  -3.972   1.438  0.00  0.00    +0.002 A 
ENDBRANCH  19  27
BRANCH  20  30
ATOM     30  C   UNL     1      -8.841   0.087   0.472  0.00  0.00    +0.057 C 
ATOM     31  C   UNL     1      -9.562   1.409   0.202  0.00  0.00    +0.012 C 
ATOM     32  C   UNL     1      -9.496   0.849   1.625  0.00  0.00    +0.012 C 
ENDBRANCH  20  30
ENDBRANCH  18  22
ENDBRANCH   1  18
TORSDOF 6
