REMARK  Name = ZINC36737105
REMARK  5 active torsions:
REMARK  status: ('A' for Active; 'I' for Inactive)
REMARK    1  A    between atoms: C_1  and  C_2
REMARK    2  A    between atoms: C_5  and  C_21
REMARK    3  A    between atoms: C_6  and  C_8
REMARK    4  A    between atoms: N_10  and  C_11
REMARK    5  A    between atoms: C_16  and  N_17
REMARK                            x       y       z     vdW  Elec       q    Type
REMARK                         _______ _______ _______ _____ _____    ______ ____
ROOT
ATOM      1  C   UNL     1       0.584  -2.713   2.529  0.00  0.00    +0.249 C 
ATOM      2  O   UNL     1       0.680  -3.925   2.567  0.00  0.00    -0.270 OA
ATOM      3  N   UNL     1       0.758  -1.988   3.651  0.00  0.00    -0.280 N 
ATOM      4  H   UNL     1       0.612  -1.029   3.636  0.00  0.00    +0.155 HD
ENDROOT
BRANCH   3   5
ATOM      5  C   UNL     1       1.151  -2.618   4.840  0.00  0.00    +0.058 A 
ATOM      6  C   UNL     1       0.737  -3.915   5.108  0.00  0.00    +0.074 A 
ATOM      7  C   UNL     1       1.125  -4.539   6.282  0.00  0.00    +0.168 A 
ATOM      8  C   UNL     1       1.932  -3.865   7.195  0.00  0.00    +0.168 A 
ATOM      9  C   UNL     1       2.347  -2.570   6.929  0.00  0.00    +0.074 A 
ATOM     10  C   UNL     1       1.964  -1.946   5.751  0.00  0.00    +0.050 A 
ATOM     11  O   UNL     1       2.170  -4.689   8.259  0.00  0.00    -0.453 OA
ATOM     12  C   UNL     1       1.168  -5.719   8.178  0.00  0.00    +0.466 C 
ATOM     13  O   UNL     1       0.857  -5.785   6.774  0.00  0.00    -0.453 OA
BRANCH  10  14
ATOM     14  N   UNL     1       2.388  -0.638   5.480  0.00  0.00    -0.356 N 
ATOM     15  H   UNL     1       2.116  -0.201   4.658  0.00  0.00    +0.142 HD
ATOM     16  H   UNL     1       2.953  -0.170   6.115  0.00  0.00    +0.142 HD
ENDBRANCH  10  14
ENDBRANCH   3   5
BRANCH   1  22
ATOM     17  C   UNL     1       0.022   1.487  -0.106  0.00  0.00    +0.044 C 
ATOM     18  C   UNL     1       0.003  -0.018  -0.021  0.00  0.00    -0.050 A 
ATOM     19  C   UNL     1      -0.304  -0.769  -1.141  0.00  0.00    +0.003 A 
ATOM     20  C   UNL     1      -0.324  -2.151  -1.072  0.00  0.00    +0.004 A 
ATOM     21  C   UNL     1      -0.036  -2.788   0.117  0.00  0.00    -0.038 A 
ATOM     22  C   UNL     1       0.275  -2.037   1.252  0.00  0.00    +0.040 A 
ATOM     23  C   UNL     1       0.298  -0.643   1.173  0.00  0.00    +0.016 A 
ATOM     24  C   UNL     1      -0.059  -4.293   0.192  0.00  0.00    +0.044 C 
ENDBRANCH   1  22
TORSDOF 3
