REMARK  Name = ZINC38520098
REMARK  7 active torsions:
REMARK  status: ('A' for Active; 'I' for Inactive)
REMARK    1  A    between atoms: C_1  and  C_2
REMARK    2  A    between atoms: C_2  and  C_3
REMARK    3  A    between atoms: C_2  and  C_4
REMARK    4  A    between atoms: C_2  and  O_24
REMARK    5  A    between atoms: N_10  and  C_12
REMARK    6  A    between atoms: C_17  and  C_19
REMARK    7  A    between atoms: O_24  and  C_25
REMARK                            x       y       z     vdW  Elec       q    Type
REMARK                         _______ _______ _______ _____ _____    ______ ____
ROOT
ATOM      1  C   UNL     1      -1.153  -0.353   0.534  0.00  0.00    +0.262 C 
ATOM      2  O   UNL     1      -1.928  -0.946  -0.185  0.00  0.00    -0.271 OA
ATOM      3  N   UNL     1      -1.537   0.028   1.769  0.00  0.00    -0.265 N 
ATOM      4  C   UNL     1      -2.831  -0.262   2.221  0.00  0.00    +0.153 A 
ATOM      5  C   UNL     1      -3.358   0.076   3.464  0.00  0.00    +0.042 A 
ATOM      6  C   UNL     1      -4.649  -0.377   3.513  0.00  0.00    +0.129 A 
ATOM      7  N   UNL     1      -4.913  -0.986   2.342  0.00  0.00    -0.251 N 
ATOM      8  N   UNL     1      -3.763  -0.896   1.541  0.00  0.00    -0.154 NA
ATOM      9  C   UNL     1      -6.178  -1.625   1.968  0.00  0.00    +0.174 C 
ATOM     10  N   UNL     1      -5.460  -0.173   4.630  0.00  0.00    -0.270 N 
ATOM     11  C   UNL     1      -5.014   0.659   5.595  0.00  0.00    +0.219 C 
ATOM     12  O   UNL     1      -5.609   0.704   6.651  0.00  0.00    -0.275 OA
ATOM     13  C   UNL     1      -3.805   1.529   5.404  0.00  0.00    +0.109 C 
ATOM     14  C   UNL     1      -2.711   0.798   4.619  0.00  0.00    +0.071 C 
ATOM     15  H   UNL     1      -0.917   0.502   2.345  0.00  0.00    +0.156 HD
ATOM     16  H   UNL     1      -6.319  -0.615   4.710  0.00  0.00    +0.156 HD
ENDROOT
BRANCH  14  17
ATOM     17  C   UNL     1      -2.022  -0.197   5.518  0.00  0.00    -0.002 A 
ATOM     18  C   UNL     1      -0.713  -0.273   5.861  0.00  0.00    +0.012 A 
ATOM     19  C   UNL     1      -0.300  -1.282   6.710  0.00  0.00    +0.008 A 
ATOM     20  C   UNL     1      -1.217  -2.166   7.176  0.00  0.00    +0.045 A 
ATOM     21  S   UNL     1      -2.719  -1.576   6.412  0.00  0.00    -0.101 S 
ENDBRANCH  14  17
BRANCH   1  23
ATOM     22  C   UNL     1       0.453   1.474   0.051  0.00  0.00    +0.065 C 
ATOM     23  C   UNL     1       0.239  -0.041   0.049  0.00  0.00    +0.180 C 
ATOM     24  C   UNL     1       1.262  -0.703   0.974  0.00  0.00    +0.065 C 
BRANCH  23  25
ATOM     25  O   UNL     1       0.404  -0.543  -1.279  0.00  0.00    -0.477 OA
BRANCH  25  26
ATOM     26  C   UNL     1       0.266  -1.884  -1.454  0.00  0.00    +0.122 A 
ATOM     27  C   UNL     1      -0.147  -2.683  -0.397  0.00  0.00    +0.047 A 
ATOM     28  C   UNL     1      -0.286  -4.046  -0.577  0.00  0.00    +0.023 A 
ATOM     29  C   UNL     1      -0.014  -4.614  -1.808  0.00  0.00    +0.041 A 
ATOM     30  C   UNL     1       0.398  -3.819  -2.863  0.00  0.00    +0.023 A 
ATOM     31  C   UNL     1       0.532  -2.455  -2.690  0.00  0.00    +0.047 A 
ATOM     32 CL   UNL     1      -0.190  -6.327  -2.031  0.00  0.00    -0.084 Cl
ENDBRANCH  25  26
ENDBRANCH  23  25
ENDBRANCH   1  23
TORSDOF 4
