REMARK  Name = ZINC66630839
REMARK  10 active torsions:
REMARK  status: ('A' for Active; 'I' for Inactive)
REMARK    1  A    between atoms: C_1  and  C_2
REMARK    2  A    between atoms: C_2  and  C_4
REMARK    3  A    between atoms: C_2  and  N_22
REMARK    4  A    between atoms: C_4  and  C_5
REMARK    5  A    between atoms: N_7  and  C_8
REMARK    6  A    between atoms: C_8  and  C_9
REMARK    7  A    between atoms: C_9  and  C_11
REMARK    8  A    between atoms: C_9  and  C_19
REMARK    9  A    between atoms: C_11  and  C_12
REMARK   10  A    between atoms: C_23  and  C_25
REMARK                            x       y       z     vdW  Elec       q    Type
REMARK                         _______ _______ _______ _____ _____    ______ ____
ROOT
ATOM      1  C   UNL     1       1.866  -1.524   1.886  0.00  0.00    +0.215 C 
ATOM      2  O   UNL     1       1.259  -1.791   0.871  0.00  0.00    -0.276 OA
ATOM      3  N   UNL     1       2.260  -2.510   2.716  0.00  0.00    -0.315 N 
ATOM      4  H   UNL     1       2.745  -2.296   3.528  0.00  0.00    +0.149 HD
ENDROOT
BRANCH   1   5
ATOM      5  C   UNL     1       2.179  -0.088   2.220  0.00  0.00    +0.117 C 
BRANCH   5   7
ATOM      6  C   UNL     1       2.050   2.268   1.398  0.00  0.00    +0.028 C 
ATOM      7  C   UNL     1       1.625   0.824   1.124  0.00  0.00    +0.079 C 
BRANCH   7   8
ATOM      8  N   UNL     1       0.163   0.739   1.111  0.00  0.00    -0.312 N 
ATOM      9  C   UNL     1      -0.519   1.017  -0.018  0.00  0.00    +0.216 C 
ATOM     10  O   UNL     1       0.079   1.338  -1.023  0.00  0.00    -0.276 OA
ATOM     11  H   UNL     1      -0.316   0.482   1.915  0.00  0.00    +0.149 HD
BRANCH   9  12
ATOM     12  C   UNL     1      -2.023   0.930  -0.031  0.00  0.00    +0.075 C 
ATOM     13  C   UNL     1      -2.454  -0.495   0.319  0.00  0.00    +0.013 C 
ATOM     14  C   UNL     1      -3.982  -0.584   0.305  0.00  0.00    +0.001 C 
ATOM     15  C   UNL     1      -4.502  -0.221  -1.087  0.00  0.00    +0.000 C 
ATOM     16  C   UNL     1      -4.070   1.204  -1.437  0.00  0.00    +0.001 C 
ATOM     17  C   UNL     1      -2.543   1.293  -1.424  0.00  0.00    +0.013 C 
ENDBRANCH   9  12
ENDBRANCH   7   8
ENDBRANCH   5   7
ENDBRANCH   1   5
BRANCH   3  18
ATOM     18  C   UNL     1       1.956  -3.906   2.390  0.00  0.00    +0.117 C 
BRANCH  18  19
ATOM     19  C   UNL     1       2.510  -4.818   3.487  0.00  0.00    +0.096 C 
BRANCH  19  20
ATOM     20  C   UNL     1       1.788  -4.543   4.781  0.00  0.00    +0.215 C 
ATOM     21  O   UNL     1       0.756  -3.906   4.776  0.00  0.00    -0.276 OA
ATOM     22  N   UNL     1       2.289  -5.005   5.944  0.00  0.00    -0.329 N 
ATOM     23  H   UNL     1       3.077  -5.570   5.941  0.00  0.00    +0.145 HD
ATOM     24  H   UNL     1       1.861  -4.773   6.783  0.00  0.00    +0.145 HD
ENDBRANCH  19  20
BRANCH  19  25
ATOM     25  C   UNL     1       2.302  -6.280   3.088  0.00  0.00    +0.049 C 
BRANCH  25  26
ATOM     26  C   UNL     1       3.129  -6.589   1.867  0.00  0.00    -0.046 A 
ATOM     27  C   UNL     1       2.554  -6.534   0.611  0.00  0.00    +0.006 A 
ATOM     28  C   UNL     1       3.312  -6.817  -0.510  0.00  0.00    +0.038 A 
ATOM     29  C   UNL     1       4.647  -7.156  -0.374  0.00  0.00    +0.123 A 
ATOM     30  C   UNL     1       5.222  -7.212   0.884  0.00  0.00    +0.038 A 
ATOM     31  C   UNL     1       4.464  -6.923   2.003  0.00  0.00    +0.006 A 
ATOM     32  F   UNL     1       5.389  -7.434  -1.469  0.00  0.00    -0.205 F 
ENDBRANCH  25  26
ENDBRANCH  19  25
ENDBRANCH  18  19
ENDBRANCH   3  18
TORSDOF 9
