REMARK  Name = ZINC20849072
REMARK  10 active torsions:
REMARK  status: ('A' for Active; 'I' for Inactive)
REMARK    1  A    between atoms: C_1  and  C_2
REMARK    2  A    between atoms: C_2  and  O_3
REMARK    3  A    between atoms: O_3  and  C_4
REMARK    4  A    between atoms: C_4  and  C_6
REMARK    5  A    between atoms: C_7  and  C_22
REMARK    6  A    between atoms: C_12  and  C_14
REMARK    7  A    between atoms: C_18  and  O_20
REMARK    8  A    between atoms: O_20  and  C_21
REMARK    9  A    between atoms: C_22  and  S_23
REMARK   10  A    between atoms: S_23  and  C_26
REMARK                            x       y       z     vdW  Elec       q    Type
REMARK                         _______ _______ _______ _____ _____    ______ ____
ROOT
ATOM      1  C   UNL     1       4.306   2.506   1.434  0.00  0.00    +0.080 C 
ATOM      2  C   UNL     1       5.397   1.773   1.741  0.00  0.00    +0.045 C 
ATOM      3  N   UNL     1       6.009   0.992   0.803  0.00  0.00    -0.271 N 
ATOM      4  C   UNL     1       5.592   0.891  -0.466  0.00  0.00    +0.304 C 
ATOM      5  O   UNL     1       6.203   0.170  -1.230  0.00  0.00    -0.252 OA
ATOM      6  N   UNL     1       4.517   1.563  -0.923  0.00  0.00    -0.288 N 
ATOM      7  C   UNL     1       3.785   2.434   0.012  0.00  0.00    +0.144 C 
ATOM      8  H   UNL     1       6.897   0.402   1.073  0.00  0.00    +0.156 HD
ATOM      9  H   UNL     1       4.183   1.473  -1.967  0.00  0.00    +0.151 HD
ENDROOT
BRANCH   7  10
ATOM     10  C   UNL     1       2.355   1.961   0.065  0.00  0.00    -0.019 A 
ATOM     11  C   UNL     1       2.075   0.607   0.067  0.00  0.00    +0.006 A 
ATOM     12  C   UNL     1       0.764   0.170   0.115  0.00  0.00    +0.004 A 
ATOM     13  C   UNL     1      -0.269   1.086   0.160  0.00  0.00    +0.045 A 
ATOM     14  C   UNL     1       0.009   2.445   0.158  0.00  0.00    +0.120 A 
ATOM     15  C   UNL     1       1.325   2.881   0.110  0.00  0.00    +0.051 A 
BRANCH  14  16
ATOM     16  O   UNL     1      -1.006   3.347   0.197  0.00  0.00    -0.495 OA
ATOM     17  C   UNL     1      -2.336   2.826   0.239  0.00  0.00    +0.277 C 
ENDBRANCH  14  16
ENDBRANCH   7  10
BRANCH   1  18
ATOM     18  C   UNL     1       3.670   3.315   2.405  0.00  0.00    +0.339 C 
ATOM     19  O   UNL     1       4.181   3.467   3.498  0.00  0.00    -0.245 OA
BRANCH  18  20
ATOM     20  O   UNL     1       2.498   3.918   2.118  0.00  0.00    -0.462 OA
BRANCH  20  22
ATOM     21  C   UNL     1       0.597   5.317   2.641  0.00  0.00    +0.048 C 
ATOM     22  C   UNL     1       1.912   4.720   3.146  0.00  0.00    +0.229 C 
ENDBRANCH  20  22
ENDBRANCH  18  20
ENDBRANCH   1  18
BRANCH   2  23
ATOM     23  C   UNL     1       5.948   1.817   3.143  0.00  0.00    +0.223 C 
BRANCH  23  24
ATOM     24  S   UNL     1       7.365   2.948   3.201  0.00  0.00    +0.008 S 
ATOM     25  O   UNL     1       8.449   2.413   2.455  0.00  0.00    -0.169 OA
ATOM     26  O   UNL     1       6.932   4.285   2.993  0.00  0.00    -0.169 OA
BRANCH  24  27
ATOM     27  C   UNL     1       7.909   2.907   4.876  0.00  0.00    +0.127 A 
ATOM     28  C   UNL     1       8.819   2.089   5.458  0.00  0.00    +0.036 A 
ATOM     29  C   UNL     1       9.092   2.239   6.805  0.00  0.00    +0.025 A 
ATOM     30  C   UNL     1       8.440   3.202   7.504  0.00  0.00    +0.057 A 
ATOM     31  S   UNL     1       7.410   3.938   6.246  0.00  0.00    -0.063 S 
ATOM     32 BR   UNL     1       8.590   3.652   9.335  0.00  0.00    -0.043 Br
ENDBRANCH  24  27
ENDBRANCH  23  24
ENDBRANCH   2  23
TORSDOF 8
