REMARK  Name = ZINC00740283
REMARK  11 active torsions:
REMARK  status: ('A' for Active; 'I' for Inactive)
REMARK    1  A    between atoms: C_1  and  C_2
REMARK    2  A    between atoms: C_2  and  C_3
REMARK    3  A    between atoms: C_2  and  N_4
REMARK    4  A    between atoms: N_4  and  C_5
REMARK    5  A    between atoms: C_5  and  C_6
REMARK    6  A    between atoms: N_8  and  C_9
REMARK    7  A    between atoms: N_8  and  C_16
REMARK    8  A    between atoms: C_9  and  C_10
REMARK    9  A    between atoms: N_14  and  C_15
REMARK   10  A    between atoms: C_16  and  C_17
REMARK   11  A    between atoms: N_24  and  C_25
REMARK                            x       y       z     vdW  Elec       q    Type
REMARK                         _______ _______ _______ _____ _____    ______ ____
ROOT
ATOM      1  C   UNL     1       2.492   0.997   0.064  0.00  0.00    +0.205 C 
ENDROOT
BRANCH   1   2
ATOM      2  N   UNL     1       1.279   1.621  -0.469  0.00  0.00    -0.274 N 
ATOM      3  C   UNL     1       0.095   0.984  -0.372  0.00  0.00    +0.307 C 
ATOM      4  O   UNL     1      -0.928   1.549  -0.706  0.00  0.00    -0.252 OA
ATOM      5  N   UNL     1       0.045  -0.277   0.101  0.00  0.00    -0.267 N 
ATOM      6  H   UNL     1       0.952  -0.748   0.508  0.00  0.00    +0.156 HD
BRANCH   5   7
ATOM      7  C   UNL     1      -1.162  -0.989   0.074  0.00  0.00    +0.070 A 
ATOM      8  C   UNL     1      -2.370  -0.313   0.176  0.00  0.00    +0.029 A 
ATOM      9  C   UNL     1      -3.559  -1.015   0.149  0.00  0.00    +0.040 A 
ATOM     10  C   UNL     1      -3.548  -2.394   0.021  0.00  0.00    +0.126 A 
ATOM     11  C   UNL     1      -2.345  -3.072  -0.082  0.00  0.00    +0.078 A 
ATOM     12  C   UNL     1      -1.152  -2.373  -0.061  0.00  0.00    +0.147 A 
ATOM     13  F   UNL     1       0.021  -3.033  -0.166  0.00  0.00    -0.203 F 
ATOM     14  F   UNL     1      -4.712  -3.079  -0.005  0.00  0.00    -0.205 F 
ENDBRANCH   5   7
BRANCH   2  16
ATOM     15  C   UNL     1       1.935   3.951  -0.123  0.00  0.00    +0.028 C 
ATOM     16  C   UNL     1       1.352   2.937  -1.109  0.00  0.00    +0.072 C 
ATOM     17  C   UNL     1       2.250   2.853  -2.345  0.00  0.00    +0.028 C 
ENDBRANCH   2  16
ENDBRANCH   1   2
BRANCH   1  18
ATOM     18  C   UNL     1       3.140   0.160  -1.009  0.00  0.00    +0.234 C 
ATOM     19  O   UNL     1       2.638   0.091  -2.110  0.00  0.00    -0.274 OA
ATOM     20  N   UNL     1       4.278  -0.512  -0.744  0.00  0.00    -0.287 N 
BRANCH  20  21
ATOM     21  C   UNL     1       4.908  -1.326  -1.787  0.00  0.00    +0.161 C 
BRANCH  21  22
ATOM     22  C   UNL     1       5.885  -0.481  -2.562  0.00  0.00    +0.036 A 
ATOM     23  C   UNL     1       7.210  -0.390  -2.329  0.00  0.00    +0.024 A 
ATOM     24  C   UNL     1       7.745   0.504  -3.277  0.00  0.00    +0.019 A 
ATOM     25  C   UNL     1       6.727   0.926  -4.053  0.00  0.00    +0.085 A 
ATOM     26  N   UNL     1       5.583   0.320  -3.623  0.00  0.00    -0.352 N 
ATOM     27  C   UNL     1       4.250   0.503  -4.202  0.00  0.00    +0.148 C 
ENDBRANCH  21  22
ENDBRANCH  20  21
BRANCH  20  28
ATOM     28  C   UNL     1       4.885  -0.429   0.587  0.00  0.00    +0.182 C 
BRANCH  28  29
ATOM     29  C   UNL     1       4.331  -1.526   1.461  0.00  0.00    +0.122 A 
ATOM     30  C   UNL     1       4.845  -2.762   1.592  0.00  0.00    +0.046 A 
ATOM     31  C   UNL     1       4.016  -3.455   2.504  0.00  0.00    +0.041 A 
ATOM     32  C   UNL     1       3.046  -2.601   2.875  0.00  0.00    +0.195 A 
ATOM     33  O   UNL     1       3.245  -1.432   2.245  0.00  0.00    -0.466 OA
ENDBRANCH  28  29
ENDBRANCH  20  28
ENDBRANCH   1  18
TORSDOF 8
