REMARK  Name = ZINC27009325
REMARK  12 active torsions:
REMARK  status: ('A' for Active; 'I' for Inactive)
REMARK    1  A    between atoms: C_1  and  C_2
REMARK    2  A    between atoms: C_4  and  N_28
REMARK    3  A    between atoms: C_7  and  N_8
REMARK    4  A    between atoms: C_9  and  C_11
REMARK    5  A    between atoms: C_11  and  C_13
REMARK    6  A    between atoms: C_11  and  N_14
REMARK    7  A    between atoms: N_14  and  C_15
REMARK    8  A    between atoms: C_18  and  C_21
REMARK    9  A    between atoms: C_21  and  C_22
REMARK   10  A    between atoms: N_24  and  C_25
REMARK   11  A    between atoms: C_25  and  C_26
REMARK   12  A    between atoms: C_25  and  C_27
REMARK                            x       y       z     vdW  Elec       q    Type
REMARK                         _______ _______ _______ _____ _____    ______ ____
ROOT
ATOM      1  C   UNL     1      -3.712  -1.062  -0.202  0.00  0.00    +0.154 C 
ATOM      2  C   UNL     1      -4.469  -0.597  -1.447  0.00  0.00    +0.038 C 
ENDROOT
BRANCH   1   4
ATOM      3  N   UNL     1      -2.428   1.041   0.019  0.00  0.00    -0.284 N 
ATOM      4  C   UNL     1      -2.415  -0.302  -0.090  0.00  0.00    +0.237 C 
ATOM      5  O   UNL     1      -1.359  -0.900  -0.098  0.00  0.00    -0.273 OA
ATOM      6  H   UNL     1      -3.384   1.575   0.118  0.00  0.00    +0.155 HD
BRANCH   3  13
ATOM      7  C   UNL     1      -2.363   3.585   1.291  0.00  0.00    +0.046 C 
ATOM      8  C   UNL     1      -1.149   3.001   0.615  0.00  0.00    -0.027 A 
ATOM      9  C   UNL     1       0.038   3.707   0.595  0.00  0.00    +0.038 A 
ATOM     10  C   UNL     1       1.152   3.171  -0.024  0.00  0.00    +0.127 A 
ATOM     11  C   UNL     1       1.082   1.928  -0.626  0.00  0.00    +0.034 A 
ATOM     12  C   UNL     1      -0.102   1.218  -0.610  0.00  0.00    +0.026 A 
ATOM     13  C   UNL     1      -1.225   1.756   0.006  0.00  0.00    +0.036 A 
BRANCH  10  14
ATOM     14  N   UNL     1       2.423   3.931  -0.044  0.00  0.00    +0.056 N 
ATOM     15  O   UNL     1       3.405   3.460  -0.590  0.00  0.00    -0.126 OA
ATOM     16  O   UNL     1       2.486   5.026   0.485  0.00  0.00    -0.126 OA
ENDBRANCH  10  14
ENDBRANCH   3  13
ENDBRANCH   1   4
BRANCH   1  17
ATOM     17  N   UNL     1      -3.430  -2.496  -0.308  0.00  0.00    -0.333 N 
ATOM     18  H   UNL     1      -2.462  -2.839  -0.703  0.00  0.00    +0.147 HD
BRANCH  17  19
ATOM     19  C   UNL     1      -4.390  -3.428   0.093  0.00  0.00    +0.028 A 
ATOM     20  C   UNL     1      -5.611  -2.996   0.597  0.00  0.00    +0.023 A 
ATOM     21  C   UNL     1      -6.560  -3.921   0.988  0.00  0.00    +0.006 A 
ATOM     22  C   UNL     1      -6.293  -5.274   0.887  0.00  0.00    -0.039 A 
ATOM     23  C   UNL     1      -5.077  -5.706   0.390  0.00  0.00    +0.006 A 
ATOM     24  C   UNL     1      -4.125  -4.787  -0.007  0.00  0.00    +0.023 A 
BRANCH  22  25
ATOM     25  C   UNL     1      -7.329  -6.279   1.319  0.00  0.00    +0.130 C 
BRANCH  25  26
ATOM     26  C   UNL     1      -7.134  -6.606   2.777  0.00  0.00    +0.218 C 
ATOM     27  O   UNL     1      -6.242  -6.075   3.404  0.00  0.00    -0.275 OA
ATOM     28  N   UNL     1      -7.951  -7.488   3.385  0.00  0.00    -0.313 N 
ATOM     29  H   UNL     1      -8.761  -7.970   2.817  0.00  0.00    +0.149 HD
BRANCH  28  30
ATOM     30  C   UNL     1      -7.762  -7.806   4.802  0.00  0.00    +0.067 C 
ATOM     31  C   UNL     1      -8.488  -6.767   5.659  0.00  0.00    +0.027 C 
ATOM     32  C   UNL     1      -8.332  -9.196   5.094  0.00  0.00    +0.027 C 
ENDBRANCH  28  30
ENDBRANCH  25  26
ENDBRANCH  22  25
ENDBRANCH  17  19
ENDBRANCH   1  17
TORSDOF 8
