REMARK  Name = ZINC01198849
REMARK  11 active torsions:
REMARK  status: ('A' for Active; 'I' for Inactive)
REMARK    1  A    between atoms: C_1  and  C_2
REMARK    2  A    between atoms: C_5  and  S_8
REMARK    3  A    between atoms: S_8  and  N_11
REMARK    4  A    between atoms: N_11  and  C_12
REMARK    5  A    between atoms: C_17  and  C_18
REMARK    6  A    between atoms: C_18  and  C_20
REMARK    7  A    between atoms: C_18  and  N_53
REMARK    8  A    between atoms: C_26  and  C_27
REMARK    9  A    between atoms: C_26  and  N_53
REMARK   10  A    between atoms: C_27  and  O_29
REMARK   11  A    between atoms: O_29  and  C_30
REMARK                            x       y       z     vdW  Elec       q    Type
REMARK                         _______ _______ _______ _____ _____    ______ ____
ROOT
ATOM      1  C   UNL     1      -2.724  -3.732   0.983  0.00  0.00    +0.050 A 
ATOM      2  C   UNL     1      -3.978  -4.121   1.438  0.00  0.00    +0.026 A 
ATOM      3  C   UNL     1      -5.073  -3.309   1.218  0.00  0.00    +0.017 A 
ATOM      4  C   UNL     1      -4.922  -2.107   0.550  0.00  0.00    +0.018 A 
ATOM      5  C   UNL     1      -3.674  -1.714   0.101  0.00  0.00    +0.019 A 
ATOM      6  C   UNL     1      -2.575  -2.522   0.318  0.00  0.00    -0.034 A 
ATOM      7 BR   UNL     1      -6.424  -0.998   0.251  0.00  0.00    -0.050 Br
ENDROOT
BRANCH   1   8
ATOM      8  N   UNL     1      -1.615  -4.554   1.199  0.00  0.00    -0.216 N 
ATOM      9  H   UNL     1      -0.745  -4.160   1.367  0.00  0.00    +0.174 HD
BRANCH   8  10
ATOM     10  S   UNL     1      -1.786  -6.201   1.166  0.00  0.00    +0.072 S 
ATOM     11  O   UNL     1      -0.479  -6.747   1.278  0.00  0.00    -0.150 OA
ATOM     12  O   UNL     1      -2.826  -6.519   2.081  0.00  0.00    -0.150 OA
BRANCH  10  17
ATOM     13  C   UNL     1      -3.810  -7.677  -4.323  0.00  0.00    +0.044 C 
ATOM     14  C   UNL     1      -3.304  -7.308  -2.952  0.00  0.00    -0.050 A 
ATOM     15  C   UNL     1      -1.945  -7.248  -2.710  0.00  0.00    +0.005 A 
ATOM     16  C   UNL     1      -1.481  -6.910  -1.452  0.00  0.00    +0.029 A 
ATOM     17  C   UNL     1      -2.377  -6.631  -0.437  0.00  0.00    +0.109 A 
ATOM     18  C   UNL     1      -3.737  -6.697  -0.678  0.00  0.00    +0.029 A 
ATOM     19  C   UNL     1      -4.200  -7.030  -1.937  0.00  0.00    +0.005 A 
ENDBRANCH  10  17
ENDBRANCH   8  10
ENDBRANCH   1   8
BRANCH   6  20
ATOM     20  C   UNL     1      -1.215  -2.094  -0.172  0.00  0.00    -0.007 C 
BRANCH  20  21
ATOM     21  C   UNL     1      -0.951  -2.709  -1.522  0.00  0.00    -0.057 A 
ATOM     22  C   UNL     1      -1.504  -2.149  -2.658  0.00  0.00    +0.002 A 
ATOM     23  C   UNL     1      -1.258  -2.711  -3.896  0.00  0.00    +0.000 A 
ATOM     24  C   UNL     1      -0.465  -3.839  -3.998  0.00  0.00    +0.000 A 
ATOM     25  C   UNL     1       0.084  -4.403  -2.861  0.00  0.00    +0.000 A 
ATOM     26  C   UNL     1      -0.159  -3.838  -1.623  0.00  0.00    +0.002 A 
ENDBRANCH  20  21
BRANCH  20  27
ATOM     27  N   UNL     1      -1.183  -0.623  -0.287  0.00  0.00    +0.393 N 
ATOM     28  H   UNL     1      -1.752  -0.213   0.463  0.00  0.00    -0.084 HD
ATOM     29  H   UNL     1      -1.567  -0.346  -1.198  0.00  0.00    -0.084 HD
BRANCH  27  30
ATOM     30  C   UNL     1       0.202  -0.131  -0.172  0.00  0.00    +0.041 C 
BRANCH  30  31
ATOM     31  C   UNL     1       0.204   1.371  -0.293  0.00  0.00    +0.290 C 
ATOM     32  O   UNL     1      -0.835   1.965  -0.461  0.00  0.00    -0.253 OA
BRANCH  31  33
ATOM     33  O   UNL     1       1.360   2.050  -0.219  0.00  0.00    -0.469 OA
ATOM     34  C   UNL     1       1.286   3.494  -0.344  0.00  0.00    +0.280 C 
ENDBRANCH  31  33
ENDBRANCH  30  31
ENDBRANCH  27  30
ENDBRANCH  20  27
ENDBRANCH   6  20
TORSDOF 9
