REMARK  Name = ZINC65266020
REMARK  9 active torsions:
REMARK  status: ('A' for Active; 'I' for Inactive)
REMARK    1  A    between atoms: C_1  and  C_2
REMARK    2  A    between atoms: C_2  and  C_3
REMARK    3  A    between atoms: C_2  and  N_4
REMARK    4  A    between atoms: C_7  and  C_10
REMARK    5  A    between atoms: C_10  and  C_11
REMARK    6  A    between atoms: N_28  and  C_29
REMARK    7  A    between atoms: C_29  and  C_30
REMARK    8  A    between atoms: C_29  and  C_31
REMARK    9  A    between atoms: C_29  and  C_32
REMARK                            x       y       z     vdW  Elec       q    Type
REMARK                         _______ _______ _______ _____ _____    ______ ____
ROOT
ATOM      1  C   UNL     1      -3.341  -5.646  -1.510  0.00  0.00    +0.216 C 
ATOM      2  O   UNL     1      -2.658  -6.584  -1.863  0.00  0.00    -0.276 OA
ATOM      3  N   UNL     1      -4.654  -5.823  -1.264  0.00  0.00    -0.299 N 
ATOM      4  C   UNL     1      -5.598  -4.773  -0.836  0.00  0.00    +0.110 C 
ATOM      5  C   UNL     1      -6.994  -5.286  -1.278  0.00  0.00    +0.050 C 
ATOM      6  C   UNL     1      -6.851  -6.801  -1.046  0.00  0.00    +0.091 C 
ATOM      7  C   UNL     1      -5.386  -7.095  -1.384  0.00  0.00    +0.137 C 
ATOM      8  C   UNL     1      -7.790  -7.584  -1.899  0.00  0.00    +0.095 C 
ATOM      9  N   UNL     1      -9.023  -7.863  -1.364  0.00  0.00    -0.303 N 
ATOM     10  C   UNL     1      -9.185  -9.027  -0.619  0.00  0.00    +0.037 A 
ATOM     11  C   UNL     1     -10.292  -9.838  -0.829  0.00  0.00    +0.023 A 
ATOM     12  C   UNL     1     -10.463 -10.986  -0.082  0.00  0.00    +0.002 A 
ATOM     13  C   UNL     1      -9.524 -11.319   0.878  0.00  0.00    +0.000 A 
ATOM     14  C   UNL     1      -8.423 -10.517   1.083  0.00  0.00    +0.007 A 
ATOM     15  C   UNL     1      -8.230  -9.360   0.333  0.00  0.00    -0.012 A 
ATOM     16  C   UNL     1      -6.974  -8.572   0.608  0.00  0.00    +0.119 C 
ATOM     17  N   UNL     1      -7.142  -7.134   0.367  0.00  0.00    -0.299 NA
ATOM     18  N   UNL     1      -7.458  -7.981  -3.085  0.00  0.00    -0.370 N 
ATOM     19  H   UNL     1      -6.564  -6.593   0.993  0.00  0.00    +0.123 HD
ATOM     20  H   UNL     1      -6.526  -7.989  -3.351  0.00  0.00    +0.161 HD
ATOM     21  H   UNL     1      -9.769  -7.258  -1.502  0.00  0.00    +0.153 HD
ENDROOT
BRANCH  18  22
ATOM     22  C   UNL     1      -8.492  -8.419  -4.026  0.00  0.00    +0.031 C 
ATOM     23  C   UNL     1      -9.550  -7.324  -4.168  0.00  0.00    +0.033 C 
ATOM     24  C   UNL     1      -7.857  -8.694  -5.390  0.00  0.00    +0.033 C 
ATOM     25  C   UNL     1      -9.149  -9.698  -3.502  0.00  0.00    +0.033 C 
ENDBRANCH  18  22
BRANCH   1  26
ATOM     26  C   UNL     1      -2.721  -4.282  -1.346  0.00  0.00    +0.099 C 
BRANCH  26  30
ATOM     27  N   UNL     1       1.509  -3.877  -0.875  0.00  0.00    +0.381 N 
ATOM     28  C   UNL     1       0.880  -3.039  -1.902  0.00  0.00    -0.078 C 
ATOM     29  C   UNL     1      -0.625  -2.949  -1.640  0.00  0.00    -0.015 C 
ATOM     30  C   UNL     1      -1.230  -4.355  -1.685  0.00  0.00    -0.006 C 
ATOM     31  C   UNL     1      -0.515  -5.241  -0.661  0.00  0.00    -0.015 C 
ATOM     32  C   UNL     1       0.986  -5.246  -0.959  0.00  0.00    -0.078 C 
ATOM     33  H   UNL     1       1.307  -3.497   0.038  0.00  0.00    -0.081 HD
BRANCH  27  35
ATOM     34  C   UNL     1       3.511  -2.471  -0.997  0.00  0.00    -0.014 C 
ATOM     35  C   UNL     1       2.963  -3.897  -1.084  0.00  0.00    -0.075 C 
ATOM     36  C   UNL     1       3.622  -4.763  -0.009  0.00  0.00    -0.014 C 
ENDBRANCH  27  35
ENDBRANCH  26  30
ENDBRANCH   1  26
TORSDOF 4
