REMARK  Name = ZINC36207736
REMARK  18 active torsions:
REMARK  status: ('A' for Active; 'I' for Inactive)
REMARK    1  A    between atoms: C_1  and  C_2
REMARK    2  A    between atoms: C_2  and  C_3
REMARK    3  A    between atoms: C_2  and  C_4
REMARK    4  A    between atoms: C_4  and  C_5
REMARK    5  A    between atoms: C_5  and  N_6
REMARK    6  A    between atoms: N_6  and  C_7
REMARK    7  A    between atoms: N_6  and  C_29
REMARK    8  A    between atoms: C_7  and  C_8
REMARK    9  A    between atoms: C_14  and  C_19
REMARK   10  A    between atoms: C_22  and  O_27
REMARK   11  A    between atoms: C_23  and  O_25
REMARK   12  A    between atoms: O_25  and  C_26
REMARK   13  A    between atoms: O_27  and  C_28
REMARK   14  A    between atoms: C_29  and  C_30
REMARK   15  A    between atoms: C_30  and  C_32
REMARK   16  A    between atoms: C_30  and  O_36
REMARK   17  A    between atoms: C_32  and  C_33
REMARK   18  A    between atoms: C_33  and  C_34
REMARK                            x       y       z     vdW  Elec       q    Type
REMARK                         _______ _______ _______ _____ _____    ______ ____
ROOT
ATOM      1  C   UNL     1      -5.619  -0.875  -0.200  0.00  0.00    +0.094 A 
ATOM      2  N   UNL     1      -6.527  -0.511   0.743  0.00  0.00    -0.312 N 
ATOM      3  H   UNL     1      -6.337   0.244   1.320  0.00  0.00    +0.170 HD
ATOM      4  C   UNL     1      -7.686  -1.179   0.891  0.00  0.00    +0.260 A 
ATOM      5  O   UNL     1      -8.491  -0.841   1.741  0.00  0.00    -0.267 OA
ATOM      6  C   UNL     1      -7.959  -2.293   0.034  0.00  0.00    +0.080 A 
ATOM      7  C   UNL     1      -9.128  -3.164  -0.002  0.00  0.00    +0.004 A 
ATOM      8  C   UNL     1      -9.165  -4.167  -0.912  0.00  0.00    +0.056 A 
ATOM      9  S   UNL     1      -7.617  -3.994  -1.780  0.00  0.00    -0.076 S 
ATOM     10  C   UNL     1      -6.963  -2.594  -0.909  0.00  0.00    +0.116 A 
ATOM     11  N   UNL     1      -5.842  -1.883  -0.999  0.00  0.00    -0.229 NA
ENDROOT
BRANCH   7  12
ATOM     12  C   UNL     1     -10.254  -2.958   0.940  0.00  0.00    -0.013 A 
ATOM     13  C   UNL     1     -10.005  -2.819   2.305  0.00  0.00    +0.012 A 
ATOM     14  C   UNL     1     -11.054  -2.626   3.181  0.00  0.00    +0.050 A 
ATOM     15  C   UNL     1     -12.356  -2.570   2.707  0.00  0.00    +0.162 A 
ATOM     16  C   UNL     1     -12.610  -2.708   1.345  0.00  0.00    +0.162 A 
ATOM     17  C   UNL     1     -11.562  -2.896   0.462  0.00  0.00    +0.058 A 
BRANCH  16  18
ATOM     18  O   UNL     1     -13.887  -2.652   0.883  0.00  0.00    -0.491 OA
ATOM     19  C   UNL     1     -14.074  -2.801  -0.526  0.00  0.00    +0.277 C 
ENDBRANCH  16  18
BRANCH  15  20
ATOM     20  O   UNL     1     -13.386  -2.381   3.575  0.00  0.00    -0.491 OA
ATOM     21  C   UNL     1     -13.054  -2.248   4.958  0.00  0.00    +0.277 C 
ENDBRANCH  15  20
ENDBRANCH   7  12
BRANCH   1  22
ATOM     22  C   UNL     1      -4.335  -0.097  -0.329  0.00  0.00    -0.003 C 
BRANCH  22  23
ATOM     23  N   UNL     1      -3.592  -0.571  -1.504  0.00  0.00    +0.386 N 
ATOM     24  H   UNL     1      -3.482  -1.572  -1.451  0.00  0.00    -0.081 HD
BRANCH  23  25
ATOM     25  C   UNL     1      -2.268   0.066  -1.536  0.00  0.00    -0.078 C 
BRANCH  25  26
ATOM     26  C   UNL     1      -1.449  -0.401  -0.332  0.00  0.00    -0.016 C 
BRANCH  26  28
ATOM     27  C   UNL     1      -0.058   1.675  -0.340  0.00  0.00    +0.007 C 
ATOM     28  C   UNL     1      -0.025   0.148  -0.440  0.00  0.00    -0.019 C 
ATOM     29  C   UNL     1       0.829  -0.418   0.697  0.00  0.00    +0.007 C 
ENDBRANCH  26  28
ENDBRANCH  25  26
ENDBRANCH  23  25
BRANCH  23  30
ATOM     30  C   UNL     1      -4.332  -0.223  -2.725  0.00  0.00    -0.047 C 
BRANCH  30  31
ATOM     31  C   UNL     1      -3.623  -0.824  -3.940  0.00  0.00    +0.098 C 
BRANCH  31  32
ATOM     32  O   UNL     1      -3.671  -2.250  -3.862  0.00  0.00    -0.394 OA
ATOM     33  H   UNL     1      -4.567  -2.613  -3.846  0.00  0.00    +0.210 HD
ENDBRANCH  31  32
BRANCH  31  34
ATOM     34  C   UNL     1      -4.321  -0.359  -5.219  0.00  0.00    +0.033 C 
BRANCH  34  35
ATOM     35  C   UNL     1      -3.540  -0.857  -6.437  0.00  0.00    +0.029 C 
BRANCH  35  36
ATOM     36  C   UNL     1      -4.228  -0.400  -7.697  0.00  0.00    -0.034 C 
ATOM     37  C   UNL     1      -3.563   0.284  -8.595  0.00  0.00    +0.004 C 
ENDBRANCH  35  36
ENDBRANCH  34  35
ENDBRANCH  31  34
ENDBRANCH  30  31
ENDBRANCH  23  30
ENDBRANCH  22  23
ENDBRANCH   1  22
TORSDOF 14
