REMARK  Name = ZINC14550013
REMARK  6 active torsions:
REMARK  status: ('A' for Active; 'I' for Inactive)
REMARK    1  A    between atoms: C_1  and  C_2
REMARK    2  A    between atoms: C_2  and  C_3
REMARK    3  A    between atoms: C_3  and  C_5
REMARK    4  A    between atoms: C_3  and  N_6
REMARK    5  A    between atoms: C_7  and  C_9
REMARK    6  A    between atoms: C_22  and  C_25
REMARK                            x       y       z     vdW  Elec       q    Type
REMARK                         _______ _______ _______ _____ _____    ______ ____
ROOT
ATOM      1  C   UNL     1      -3.391  -0.909  -0.628  0.00  0.00    +0.037 A 
ATOM      2  C   UNL     1      -3.291  -1.482  -1.899  0.00  0.00    +0.015 A 
ATOM      3  C   UNL     1      -2.064  -1.551  -2.518  0.00  0.00    +0.024 A 
ATOM      4  C   UNL     1      -0.930  -1.053  -1.882  0.00  0.00    +0.031 A 
ATOM      5  C   UNL     1      -1.018  -0.482  -0.618  0.00  0.00    -0.019 A 
ATOM      6  C   UNL     1      -2.252  -0.413   0.004  0.00  0.00    +0.019 A 
ATOM      7  C   UNL     1       0.177   0.063   0.099  0.00  0.00    +0.049 C 
ATOM      8  C   UNL     1       0.189   1.573   0.081  0.00  0.00    -0.023 C 
ATOM      9  C   UNL     1       1.417   2.015  -0.034  0.00  0.00    -0.030 C 
ATOM     10  C   UNL     1       2.395   0.858  -0.101  0.00  0.00    +0.033 C 
ATOM     11  C   UNL     1       1.509  -0.336  -0.566  0.00  0.00    +0.029 C 
ATOM     12  C   UNL     1       1.380  -0.242  -2.089  0.00  0.00    +0.105 C 
ATOM     13  N   UNL     1       0.301  -1.131  -2.530  0.00  0.00    -0.336 N 
ATOM     14  H   UNL     1       0.441  -1.759  -3.256  0.00  0.00    +0.147 HD
ENDROOT
BRANCH  12  15
ATOM     15  C   UNL     1       1.056   1.177  -2.481  0.00  0.00    -0.027 A 
ATOM     16  C   UNL     1      -0.261   1.586  -2.566  0.00  0.00    +0.008 A 
ATOM     17  C   UNL     1      -0.559   2.889  -2.920  0.00  0.00    +0.038 A 
ATOM     18  C   UNL     1       0.463   3.780  -3.201  0.00  0.00    +0.123 A 
ATOM     19  C   UNL     1       1.782   3.367  -3.120  0.00  0.00    +0.038 A 
ATOM     20  C   UNL     1       2.077   2.066  -2.760  0.00  0.00    +0.008 A 
ATOM     21  F   UNL     1       0.173   5.052  -3.553  0.00  0.00    -0.205 F 
ENDBRANCH  12  15
BRANCH   1  23
ATOM     22  N   UNL     1      -5.803  -1.308  -0.568  0.00  0.00    -0.309 N 
ATOM     23  C   UNL     1      -4.702  -0.829   0.044  0.00  0.00    +0.244 C 
ATOM     24  O   UNL     1      -4.789  -0.330   1.149  0.00  0.00    -0.270 OA
ATOM     25  H   UNL     1      -5.734  -1.706  -1.450  0.00  0.00    +0.149 HD
BRANCH  22  26
ATOM     26  C   UNL     1      -7.105  -1.228   0.099  0.00  0.00    +0.070 C 
ATOM     27  C   UNL     1      -7.277  -2.432   1.029  0.00  0.00    +0.028 C 
BRANCH  26  29
ATOM     28  C   UNL     1      -8.121   0.035  -1.802  0.00  0.00    +0.005 C 
ATOM     29  C   UNL     1      -8.218  -1.233  -0.951  0.00  0.00    +0.018 C 
ENDBRANCH  26  29
ENDBRANCH  22  26
ENDBRANCH   1  23
TORSDOF 4
