REMARK  Name = ZINC18599730
REMARK  8 active torsions:
REMARK  status: ('A' for Active; 'I' for Inactive)
REMARK    1  A    between atoms: C_1  and  C_2
REMARK    2  A    between atoms: C_5  and  C_8
REMARK    3  A    between atoms: C_8  and  N_9
REMARK    4  A    between atoms: C_10  and  C_12
REMARK    5  A    between atoms: C_12  and  C_14
REMARK    6  A    between atoms: C_12  and  S_15
REMARK    7  A    between atoms: S_15  and  C_16
REMARK    8  A    between atoms: C_22  and  C_27
REMARK                            x       y       z     vdW  Elec       q    Type
REMARK                         _______ _______ _______ _____ _____    ______ ____
ROOT
ATOM      1  C   UNL     1       0.402   7.803   4.881  0.00  0.00    +0.171 A 
ATOM      2  N   UNL     1      -0.089   8.973   5.386  0.00  0.00    -0.301 N 
ATOM      3  H   UNL     1      -0.430   9.647   4.778  0.00  0.00    +0.171 HD
ATOM      4  C   UNL     1      -0.111   9.205   6.711  0.00  0.00    +0.261 A 
ATOM      5  O   UNL     1      -0.557  10.253   7.146  0.00  0.00    -0.267 OA
ATOM      6  C   UNL     1       0.399   8.211   7.601  0.00  0.00    +0.080 A 
ATOM      7  C   UNL     1       0.485   8.236   9.058  0.00  0.00    +0.004 A 
ATOM      8  C   UNL     1       1.012   7.166   9.698  0.00  0.00    +0.056 A 
ATOM      9  S   UNL     1       1.428   6.053   8.369  0.00  0.00    -0.076 S 
ATOM     10  C   UNL     1       0.889   7.040   6.997  0.00  0.00    +0.117 A 
ATOM     11  N   UNL     1       0.878   6.870   5.680  0.00  0.00    -0.216 NA
ENDROOT
BRANCH   7  12
ATOM     12  C   UNL     1       0.004   9.411   9.823  0.00  0.00    -0.016 A 
ATOM     13  C   UNL     1       0.420  10.694   9.469  0.00  0.00    +0.011 A 
ATOM     14  C   UNL     1      -0.035  11.785  10.181  0.00  0.00    +0.039 A 
ATOM     15  C   UNL     1      -0.894  11.606  11.253  0.00  0.00    +0.123 A 
ATOM     16  C   UNL     1      -1.306  10.333  11.611  0.00  0.00    +0.039 A 
ATOM     17  C   UNL     1      -0.861   9.236  10.902  0.00  0.00    +0.011 A 
ATOM     18  F   UNL     1      -1.332  12.677  11.950  0.00  0.00    -0.205 F 
ENDBRANCH   7  12
BRANCH   1  19
ATOM     19  S   UNL     1       0.405   7.541   3.139  0.00  0.00    -0.075 S 
BRANCH  19  20
ATOM     20  C   UNL     1       1.148   5.892   3.070  0.00  0.00    +0.137 C 
ATOM     21  C   UNL     1       2.589   5.961   3.580  0.00  0.00    +0.029 C 
BRANCH  20  23
ATOM     22  N   UNL     1       1.157   4.074   1.394  0.00  0.00    -0.310 N 
ATOM     23  C   UNL     1       1.141   5.397   1.647  0.00  0.00    +0.226 C 
ATOM     24  O   UNL     1       1.122   6.190   0.729  0.00  0.00    -0.275 OA
ATOM     25  H   UNL     1       1.172   3.440   2.128  0.00  0.00    +0.149 HD
BRANCH  22  26
ATOM     26  C   UNL     1       1.151   3.592   0.010  0.00  0.00    +0.139 C 
BRANCH  26  31
ATOM     27  C   UNL     1       1.229  -2.186  -0.022  0.00  0.00    +0.044 C 
ATOM     28  C   UNL     1       1.208  -0.679  -0.014  0.00  0.00    -0.050 A 
ATOM     29  C   UNL     1       0.002  -0.004   0.002  0.00  0.00    +0.003 A 
ATOM     30  C   UNL     1      -0.017   1.378   0.010  0.00  0.00    +0.005 A 
ATOM     31  C   UNL     1       1.171   2.086   0.002  0.00  0.00    -0.030 A 
ATOM     32  C   UNL     1       2.377   1.411  -0.014  0.00  0.00    +0.005 A 
ATOM     33  C   UNL     1       2.396   0.029  -0.021  0.00  0.00    +0.003 A 
ENDBRANCH  26  31
ENDBRANCH  22  26
ENDBRANCH  20  23
ENDBRANCH  19  20
ENDBRANCH   1  19
TORSDOF 6
