REMARK  Name = ZINC04455925
REMARK  4 active torsions:
REMARK  status: ('A' for Active; 'I' for Inactive)
REMARK    1  A    between atoms: C_1  and  C_2
REMARK    2  A    between atoms: C_2  and  C_3
REMARK    3  A    between atoms: C_16  and  C_19
REMARK    4  A    between atoms: C_22  and  N_25
REMARK                            x       y       z     vdW  Elec       q    Type
REMARK                         _______ _______ _______ _____ _____    ______ ____
ROOT
ATOM      1  C   UNL     1      -0.894  -2.135  -0.622  0.00  0.00    -0.047 A 
ATOM      2  C   UNL     1       0.117  -2.770   0.076  0.00  0.00    +0.005 A 
ATOM      3  C   UNL     1       1.076  -2.029   0.734  0.00  0.00    +0.023 A 
ATOM      4  C   UNL     1       1.035  -0.640   0.700  0.00  0.00    +0.031 A 
ATOM      5  C   UNL     1       0.002  -0.004   0.002  0.00  0.00    -0.019 A 
ATOM      6  C   UNL     1      -0.948  -0.754  -0.656  0.00  0.00    +0.009 A 
ATOM      7  C   UNL     1      -0.018   1.474   0.010  0.00  0.00    +0.049 C 
ATOM      8  C   UNL     1      -0.653   2.260  -1.078  0.00  0.00    -0.023 C 
ATOM      9  C   UNL     1      -0.002   3.410  -1.206  0.00  0.00    -0.030 C 
ATOM     10  C   UNL     1       1.161   3.466  -0.214  0.00  0.00    +0.033 C 
ATOM     11  C   UNL     1       1.457   1.975  -0.001  0.00  0.00    +0.029 C 
ATOM     12  C   UNL     1       2.032   1.570   1.345  0.00  0.00    +0.105 C 
ATOM     13  N   UNL     1       2.039   0.091   1.347  0.00  0.00    -0.336 N 
ATOM     14  H   UNL     1       2.752  -0.381   1.804  0.00  0.00    +0.147 HD
ENDROOT
BRANCH  12  15
ATOM     15  C   UNL     1       3.437   2.097   1.491  0.00  0.00    -0.027 A 
ATOM     16  C   UNL     1       4.480   1.476   0.831  0.00  0.00    +0.008 A 
ATOM     17  C   UNL     1       5.768   1.962   0.961  0.00  0.00    +0.033 A 
ATOM     18  C   UNL     1       6.013   3.064   1.759  0.00  0.00    +0.126 A 
ATOM     19  C   UNL     1       4.970   3.683   2.423  0.00  0.00    +0.033 A 
ATOM     20  C   UNL     1       3.682   3.199   2.289  0.00  0.00    +0.008 A 
BRANCH  18  21
ATOM     21  N   UNL     1       7.392   3.582   1.902  0.00  0.00    +0.056 N 
ATOM     22  O   UNL     1       7.608   4.553   2.605  0.00  0.00    -0.126 OA
ATOM     23  O   UNL     1       8.311   3.036   1.317  0.00  0.00    -0.126 OA
ENDBRANCH  18  21
ENDBRANCH  12  15
BRANCH   1  25
ATOM     24  C   UNL     1      -1.469  -3.221  -2.776  0.00  0.00    +0.009 C 
ATOM     25  C   UNL     1      -1.937  -2.948  -1.345  0.00  0.00    +0.032 C 
ENDBRANCH   1  25
TORSDOF 3
