REMARK  Name = ZINC11235947
REMARK  12 active torsions:
REMARK  status: ('A' for Active; 'I' for Inactive)
REMARK    1  A    between atoms: C_1  and  C_2
REMARK    2  A    between atoms: C_2  and  O_3
REMARK    3  A    between atoms: O_3  and  C_4
REMARK    4  A    between atoms: C_4  and  C_6
REMARK    5  A    between atoms: C_7  and  C_21
REMARK    6  A    between atoms: C_12  and  C_14
REMARK    7  A    between atoms: C_21  and  O_22
REMARK    8  A    between atoms: O_22  and  C_23
REMARK    9  A    between atoms: C_23  and  C_25
REMARK   10  A    between atoms: C_25  and  O_26
REMARK   11  A    between atoms: O_26  and  C_27
REMARK   12  A    between atoms: C_30  and  C_33
REMARK                            x       y       z     vdW  Elec       q    Type
REMARK                         _______ _______ _______ _____ _____    ______ ____
ROOT
ATOM      1  C   UNL     1       1.151   2.190  -0.048  0.00  0.00    +0.081 C 
ATOM      2  C   UNL     1      -0.010   1.503   0.014  0.00  0.00    +0.061 C 
ATOM      3  N   UNL     1      -1.211   2.151   0.075  0.00  0.00    -0.269 N 
ATOM      4  C   UNL     1      -1.335   3.484   0.089  0.00  0.00    +0.304 C 
ATOM      5  O   UNL     1      -2.448   3.970   0.150  0.00  0.00    -0.252 OA
ATOM      6  N   UNL     1      -0.268   4.304   0.032  0.00  0.00    -0.288 N 
ATOM      7  C   UNL     1       1.075   3.704  -0.042  0.00  0.00    +0.144 C 
ATOM      8  H   UNL     1      -2.018   1.615   0.114  0.00  0.00    +0.156 HD
ATOM      9  H   UNL     1      -0.381   5.268   0.040  0.00  0.00    +0.151 HD
ENDROOT
BRANCH   7  10
ATOM     10  C   UNL     1       1.873   4.204   1.135  0.00  0.00    -0.022 A 
ATOM     11  C   UNL     1       1.319   4.191   2.401  0.00  0.00    +0.007 A 
ATOM     12  C   UNL     1       2.052   4.644   3.481  0.00  0.00    +0.020 A 
ATOM     13  C   UNL     1       3.337   5.121   3.293  0.00  0.00    +0.041 A 
ATOM     14  C   UNL     1       3.890   5.139   2.025  0.00  0.00    +0.020 A 
ATOM     15  C   UNL     1       3.157   4.680   0.946  0.00  0.00    +0.007 A 
ATOM     16 CL   UNL     1       4.257   5.696   4.649  0.00  0.00    -0.084 Cl
ENDBRANCH   7  10
BRANCH   1  17
ATOM     17  C   UNL     1       2.395   1.521  -0.117  0.00  0.00    +0.339 C 
ATOM     18  O   UNL     1       2.428   0.308  -0.214  0.00  0.00    -0.245 OA
BRANCH  17  19
ATOM     19  O   UNL     1       3.544   2.226  -0.073  0.00  0.00    -0.462 OA
BRANCH  19  21
ATOM     20  C   UNL     1       5.951   2.448  -0.083  0.00  0.00    +0.048 C 
ATOM     21  C   UNL     1       4.763   1.485  -0.147  0.00  0.00    +0.229 C 
ENDBRANCH  19  21
ENDBRANCH  17  19
ENDBRANCH   1  17
BRANCH   2  22
ATOM     22  C   UNL     1       0.020  -0.004   0.009  0.00  0.00    +0.283 C 
BRANCH  22  23
ATOM     23  O   UNL     1      -1.333  -0.515   0.141  0.00  0.00    -0.456 OA
BRANCH  23  24
ATOM     24  C   UNL     1      -1.482  -1.849   0.155  0.00  0.00    +0.345 C 
ATOM     25  O   UNL     1      -0.514  -2.566   0.059  0.00  0.00    -0.247 OA
BRANCH  24  26
ATOM     26  C   UNL     1      -2.856  -2.453   0.289  0.00  0.00    +0.349 C 
BRANCH  26  27
ATOM     27  O   UNL     1      -2.753  -3.878   0.278  0.00  0.00    -0.481 OA
BRANCH  27  28
ATOM     28  C   UNL     1      -3.910  -4.580   0.390  0.00  0.00    +0.121 A 
ATOM     29  C   UNL     1      -5.119  -3.907   0.516  0.00  0.00    +0.047 A 
ATOM     30  C   UNL     1      -6.295  -4.616   0.625  0.00  0.00    +0.022 A 
ATOM     31  C   UNL     1      -6.270  -6.013   0.621  0.00  0.00    +0.052 A 
ATOM     32  C   UNL     1      -5.051  -6.686   0.500  0.00  0.00    +0.022 A 
ATOM     33  C   UNL     1      -3.880  -5.969   0.386  0.00  0.00    +0.047 A 
BRANCH  31  34
ATOM     34  C   UNL     1      -7.490  -6.754   0.740  0.00  0.00    +0.099 C 
ATOM     35  N   UNL     1      -8.457  -7.341   0.835  0.00  0.00    -0.191 NA
ENDBRANCH  31  34
ENDBRANCH  27  28
ENDBRANCH  26  27
ENDBRANCH  24  26
ENDBRANCH  23  24
ENDBRANCH  22  23
ENDBRANCH   2  22
TORSDOF 11
