REMARK  Name = ZINC24985612
REMARK  9 active torsions:
REMARK  status: ('A' for Active; 'I' for Inactive)
REMARK    1  A    between atoms: C_1  and  C_2
REMARK    2  A    between atoms: C_4  and  C_34
REMARK    3  A    between atoms: C_6  and  C_8
REMARK    4  A    between atoms: N_10  and  C_11
REMARK    5  A    between atoms: C_11  and  C_13
REMARK    6  A    between atoms: C_11  and  C_17
REMARK    7  A    between atoms: C_13  and  C_14
REMARK    8  A    between atoms: C_14  and  S_15
REMARK    9  A    between atoms: S_15  and  C_16
REMARK                            x       y       z     vdW  Elec       q    Type
REMARK                         _______ _______ _______ _____ _____    ______ ____
ROOT
ATOM      1  C   UNL     1       0.695  -2.173   6.067  0.00  0.00    +0.236 C 
ATOM      2  O   UNL     1       0.531  -0.972   6.112  0.00  0.00    -0.274 OA
ATOM      3  N   UNL     1       1.407  -2.792   7.029  0.00  0.00    -0.300 N 
ATOM      4  C   UNL     1       1.706  -4.228   6.932  0.00  0.00    +0.110 C 
ATOM      5  C   UNL     1       1.241  -4.916   8.219  0.00  0.00    +0.047 C 
ATOM      6  C   UNL     1       1.876  -4.220   9.423  0.00  0.00    +0.064 C 
ATOM      7  C   UNL     1       1.432  -2.757   9.469  0.00  0.00    +0.047 C 
ATOM      8  C   UNL     1       1.903  -2.044   8.192  0.00  0.00    +0.110 C 
ATOM      9  C   UNL     1       1.461  -4.918  10.691  0.00  0.00    +0.057 A 
ATOM     10  C   UNL     1       2.267  -5.756  11.383  0.00  0.00    +0.039 A 
ATOM     11  N   UNL     1       1.591  -6.193  12.446  0.00  0.00    -0.349 N 
ATOM     12  C   UNL     1       0.396  -5.661  12.442  0.00  0.00    +0.171 A 
ATOM     13  N   UNL     1       0.279  -4.858  11.359  0.00  0.00    -0.348 N 
ATOM     14  H   UNL     1      -0.500  -4.339  11.107  0.00  0.00    +0.166 HD
ATOM     15  C   UNL     1       3.675  -6.086  10.952  0.00  0.00    +0.070 C 
ATOM     16  C   UNL     1       3.832  -5.661   9.486  0.00  0.00    +0.088 C 
ATOM     17  N   UNL     1       3.342  -4.286   9.313  0.00  0.00    -0.305 NA
ATOM     18  H   UNL     1       3.657  -3.898   8.436  0.00  0.00    +0.123 HD
ATOM     19  H   UNL     1       1.932  -6.808  13.115  0.00  0.00    +0.166 HD
ENDROOT
BRANCH   1  20
ATOM     20  C   UNL     1       0.102  -2.972   4.935  0.00  0.00    +0.160 C 
BRANCH  20  23
ATOM     21  C   UNL     1      -0.141  -2.620   2.536  0.00  0.00    +0.245 C 
ATOM     22  O   UNL     1       0.006  -3.816   2.376  0.00  0.00    -0.270 OA
ATOM     23  N   UNL     1      -0.110  -2.098   3.779  0.00  0.00    -0.300 N 
ATOM     24  H   UNL     1      -0.228  -1.144   3.907  0.00  0.00    +0.150 HD
BRANCH  21  30
ATOM     25  C   UNL     1      -0.909   1.936   0.650  0.00  0.00    +0.044 C 
ATOM     26  C   UNL     1      -0.725   0.453   0.457  0.00  0.00    -0.049 A 
ATOM     27  C   UNL     1      -0.757  -0.086  -0.817  0.00  0.00    +0.006 A 
ATOM     28  C   UNL     1      -0.588  -1.447  -1.004  0.00  0.00    -0.049 A 
ATOM     29  C   UNL     1      -0.388  -2.276   0.081  0.00  0.00    +0.016 A 
ATOM     30  C   UNL     1      -0.355  -1.738   1.369  0.00  0.00    +0.037 A 
ATOM     31  C   UNL     1      -0.520  -0.364   1.550  0.00  0.00    +0.016 A 
ATOM     32  C   UNL     1      -0.624  -2.025  -2.395  0.00  0.00    +0.044 C 
ENDBRANCH  21  30
ENDBRANCH  20  23
BRANCH  20  33
ATOM     33  C   UNL     1      -1.237  -3.566   5.377  0.00  0.00    +0.042 C 
BRANCH  33  34
ATOM     34  C   UNL     1      -1.766  -4.499   4.285  0.00  0.00    +0.071 C 
BRANCH  34  35
ATOM     35  S   UNL     1      -3.353  -5.203   4.810  0.00  0.00    -0.164 S 
ATOM     36  C   UNL     1      -3.839  -6.270   3.425  0.00  0.00    +0.084 C 
ENDBRANCH  34  35
ENDBRANCH  33  34
ENDBRANCH  20  33
ENDBRANCH   1  20
TORSDOF 6
