REMARK  Name = ZINC15221457
REMARK  13 active torsions:
REMARK  status: ('A' for Active; 'I' for Inactive)
REMARK    1  A    between atoms: C_3  and  O_34
REMARK    2  A    between atoms: C_4  and  C_24
REMARK    3  A    between atoms: C_5  and  O_7
REMARK    4  A    between atoms: O_7  and  C_8
REMARK    5  A    between atoms: C_10  and  O_23
REMARK    6  A    between atoms: C_12  and  O_22
REMARK    7  A    between atoms: C_14  and  O_21
REMARK    8  A    between atoms: C_16  and  C_19
REMARK    9  A    between atoms: C_19  and  O_20
REMARK   10  A    between atoms: C_24  and  C_25
REMARK   11  A    between atoms: C_25  and  C_26
REMARK   12  A    between atoms: C_26  and  C_27
REMARK   13  A    between atoms: C_30  and  O_33
REMARK                            x       y       z     vdW  Elec       q    Type
REMARK                         _______ _______ _______ _____ _____    ______ ____
ROOT
ATOM      1  C   UNL     1       3.582   1.962  -0.022  0.00  0.00    +0.007 A 
ATOM      2  C   UNL     1       3.639   3.343  -0.017  0.00  0.00    +0.046 A 
ATOM      3  C   UNL     1       2.468   4.087  -0.001  0.00  0.00    +0.123 A 
ATOM      4  C   UNL     1       1.239   3.443   0.003  0.00  0.00    +0.036 A 
ATOM      5  C   UNL     1       1.185   2.058   0.002  0.00  0.00    +0.131 A 
ATOM      6  C   UNL     1       2.360   1.319  -0.013  0.00  0.00    +0.046 A 
ENDROOT
BRANCH   3   7
ATOM      7  O   UNL     1       2.524   5.444   0.004  0.00  0.00    -0.506 OA
ATOM      8  H   UNL     1       2.531   5.841  -0.878  0.00  0.00    +0.292 HD
ENDBRANCH   3   7
BRANCH   5   9
ATOM      9  O   UNL     1      -0.017   1.425   0.010  0.00  0.00    -0.460 OA
BRANCH   9  10
ATOM     10  C   UNL     1       0.002  -0.004   0.002  0.00  0.00    +0.339 C 
ATOM     11  C   UNL     1      -1.415  -0.533  -0.238  0.00  0.00    +0.214 C 
ATOM     12  C   UNL     1      -2.320  -0.086   0.914  0.00  0.00    +0.180 C 
ATOM     13  C   UNL     1      -1.729  -0.586   2.236  0.00  0.00    +0.177 C 
ATOM     14  C   UNL     1      -0.300  -0.056   2.381  0.00  0.00    +0.179 C 
ATOM     15  O   UNL     1       0.480  -0.481   1.261  0.00  0.00    -0.331 OA
BRANCH  13  16
ATOM     16  O   UNL     1      -2.526  -0.114   3.325  0.00  0.00    -0.386 OA
ATOM     17  H   UNL     1      -3.446  -0.409   3.295  0.00  0.00    +0.210 HD
ENDBRANCH  13  16
BRANCH  12  18
ATOM     18  O   UNL     1      -3.627  -0.635   0.736  0.00  0.00    -0.386 OA
ATOM     19  H   UNL     1      -4.058  -0.363  -0.086  0.00  0.00    +0.210 HD
ENDBRANCH  12  18
BRANCH  11  20
ATOM     20  O   UNL     1      -1.388  -1.960  -0.299  0.00  0.00    -0.383 OA
ATOM     21  H   UNL     1      -0.829  -2.313  -1.004  0.00  0.00    +0.210 HD
ENDBRANCH  11  20
BRANCH  14  22
ATOM     22  C   UNL     1       0.318  -0.600   3.670  0.00  0.00    +0.190 C 
BRANCH  22  23
ATOM     23  O   UNL     1       1.607  -0.014   3.865  0.00  0.00    -0.392 OA
ATOM     24  H   UNL     1       2.059  -0.314   4.665  0.00  0.00    +0.210 HD
ENDBRANCH  22  23
ENDBRANCH  14  22
ENDBRANCH   9  10
ENDBRANCH   5   9
BRANCH   4  25
ATOM     25  C   UNL     1      -0.034   4.248   0.014  0.00  0.00    +0.043 C 
BRANCH  25  26
ATOM     26  C   UNL     1      -0.454   4.519   1.460  0.00  0.00    +0.009 C 
BRANCH  26  27
ATOM     27  C   UNL     1      -1.748   5.337   1.471  0.00  0.00    +0.035 C 
BRANCH  27  28
ATOM     28  C   UNL     1      -2.161   5.604   2.895  0.00  0.00    -0.047 A 
ATOM     29  C   UNL     1      -2.995   4.716   3.549  0.00  0.00    +0.007 A 
ATOM     30  C   UNL     1      -3.371   4.956   4.857  0.00  0.00    +0.045 A 
ATOM     31  C   UNL     1      -2.921   6.094   5.509  0.00  0.00    +0.117 A 
ATOM     32  C   UNL     1      -2.088   6.986   4.849  0.00  0.00    +0.045 A 
ATOM     33  C   UNL     1      -1.710   6.739   3.543  0.00  0.00    +0.007 A 
BRANCH  31  34
ATOM     34  O   UNL     1      -3.295   6.335   6.794  0.00  0.00    -0.507 OA
ATOM     35  H   UNL     1      -4.109   6.850   6.876  0.00  0.00    +0.292 HD
ENDBRANCH  31  34
ENDBRANCH  27  28
ENDBRANCH  26  27
ENDBRANCH  25  26
ENDBRANCH   4  25
TORSDOF 13
