REMARK  Name = ZINC67160377
REMARK  13 active torsions:
REMARK  status: ('A' for Active; 'I' for Inactive)
REMARK    1  A    between atoms: C_1  and  C_2
REMARK    2  A    between atoms: C_2  and  C_3
REMARK    3  A    between atoms: C_2  and  C_4
REMARK    4  A    between atoms: C_4  and  C_5
REMARK    5  A    between atoms: C_5  and  N_6
REMARK    6  A    between atoms: N_6  and  C_7
REMARK    7  A    between atoms: C_7  and  C_8
REMARK    8  A    between atoms: C_8  and  C_9
REMARK    9  A    between atoms: C_9  and  C_10
REMARK   10  A    between atoms: C_9  and  C_11
REMARK   11  A    between atoms: C_12  and  C_14
REMARK   12  A    between atoms: N_17  and  C_20
REMARK   13  A    between atoms: C_20  and  C_21
REMARK                            x       y       z     vdW  Elec       q    Type
REMARK                         _______ _______ _______ _____ _____    ______ ____
ROOT
ATOM      1  N   UNL     1       0.946  -0.819   3.533  0.00  0.00    -0.301 N 
ATOM      2  C   UNL     1       0.332  -1.794   4.231  0.00  0.00    +0.219 C 
ATOM      3  O   UNL     1       0.604  -1.966   5.401  0.00  0.00    -0.275 OA
ENDROOT
BRANCH   2   4
ATOM      4  C   UNL     1      -0.692  -2.672   3.559  0.00  0.00    +0.078 C 
ATOM      5  C   UNL     1      -1.988  -1.882   3.355  0.00  0.00    +0.028 C 
ATOM      6  C   UNL     1      -3.043  -2.796   2.727  0.00  0.00    +0.086 C 
ATOM      7  N   UNL     1      -3.283  -3.946   3.609  0.00  0.00    -0.291 NA
ATOM      8  C   UNL     1      -2.064  -4.746   3.782  0.00  0.00    +0.086 C 
ATOM      9  C   UNL     1      -0.980  -3.890   4.441  0.00  0.00    +0.028 C 
BRANCH   7  10
ATOM     10  C   UNL     1      -4.388  -4.773   3.107  0.00  0.00    +0.173 C 
BRANCH  10  11
ATOM     11  C   UNL     1      -4.758  -5.769   4.125  0.00  0.00    -0.090 C 
ATOM     12  C   UNL     1      -5.054  -6.563   4.938  0.00  0.00    +0.005 C 
ENDBRANCH  10  11
ENDBRANCH   7  10
ENDBRANCH   2   4
BRANCH   1  13
ATOM     13  C   UNL     1       0.547  -0.545   2.150  0.00  0.00    +0.108 C 
BRANCH  13  14
ATOM     14  C   UNL     1       1.484  -1.286   1.193  0.00  0.00    +0.022 C 
BRANCH  14  16
ATOM     15  C   UNL     1       1.269   0.485  -0.556  0.00  0.00    +0.007 C 
ATOM     16  C   UNL     1       1.067  -1.001  -0.251  0.00  0.00    -0.016 C 
ATOM     17  C   UNL     1       1.923  -1.838  -1.204  0.00  0.00    +0.007 C 
ENDBRANCH  14  16
ENDBRANCH  13  14
ENDBRANCH   1  13
BRANCH   1  18
ATOM     18  C   UNL     1       2.013  -0.032   4.157  0.00  0.00    +0.108 C 
BRANCH  18  19
ATOM     19  C   UNL     1       1.407   1.194   4.844  0.00  0.00    +0.022 C 
BRANCH  19  20
ATOM     20  C   UNL     1       2.521   2.016   5.495  0.00  0.00    -0.016 C 
ATOM     21  C   UNL     1       1.932   3.304   6.074  0.00  0.00    +0.007 C 
ATOM     22  C   UNL     1       3.167   1.201   6.617  0.00  0.00    +0.007 C 
ENDBRANCH  19  20
ENDBRANCH  18  19
ENDBRANCH   1  18
TORSDOF 9
