REMARK  Name = ZINC01373942
REMARK  8 active torsions:
REMARK  status: ('A' for Active; 'I' for Inactive)
REMARK    1  A    between atoms: C_3  and  C_6
REMARK    2  A    between atoms: C_6  and  N_7
REMARK    3  A    between atoms: N_7  and  C_8
REMARK    4  A    between atoms: N_7  and  C_25
REMARK    5  A    between atoms: C_8  and  C_9
REMARK    6  A    between atoms: C_25  and  C_26
REMARK    7  A    between atoms: N_30  and  C_31
REMARK    8  A    between atoms: C_31  and  C_32
REMARK                            x       y       z     vdW  Elec       q    Type
REMARK                         _______ _______ _______ _____ _____    ______ ____
ROOT
ATOM      1  N   UNL     1       3.960   1.922   1.439  0.00  0.00    -0.286 NA
ENDROOT
BRANCH   1   2
ATOM      2  C   UNL     1       3.392   1.584   0.127  0.00  0.00    +0.127 C 
BRANCH   2   5
ATOM      3  C   UNL     1      -0.380   1.128   0.406  0.00  0.00    +0.008 A 
ATOM      4  C   UNL     1       0.816   1.790   0.202  0.00  0.00    +0.012 A 
ATOM      5  C   UNL     1       1.977   1.096   0.303  0.00  0.00    +0.004 A 
ATOM      6  S   UNL     1       1.394  -0.544   0.699  0.00  0.00    -0.100 S 
ATOM      7  C   UNL     1      -0.357  -0.195   0.703  0.00  0.00    +0.045 A 
ENDBRANCH   2   5
ENDBRANCH   1   2
BRANCH   1   8
ATOM      8  C   UNL     1       5.421   2.051   1.362  0.00  0.00    +0.125 C 
BRANCH   8   9
ATOM      9  C   UNL     1       6.028   0.709   1.044  0.00  0.00    +0.031 A 
ATOM     10  C   UNL     1       6.318   0.386  -0.242  0.00  0.00    +0.020 A 
ATOM     11  C   UNL     1       6.907  -0.923  -0.519  0.00  0.00    +0.003 A 
ATOM     12  C   UNL     1       7.226  -1.312  -1.826  0.00  0.00    +0.059 A 
ATOM     13  C   UNL     1       7.782  -2.552  -2.055  0.00  0.00    +0.163 A 
ATOM     14  C   UNL     1       8.028  -3.422  -0.989  0.00  0.00    +0.164 A 
ATOM     15  C   UNL     1       7.714  -3.047   0.306  0.00  0.00    +0.075 A 
ATOM     16  C   UNL     1       7.153  -1.802   0.555  0.00  0.00    +0.053 A 
ATOM     17  N   UNL     1       6.835  -1.412   1.840  0.00  0.00    -0.322 N 
ATOM     18  H   UNL     1       7.004  -2.017   2.579  0.00  0.00    +0.169 HD
ATOM     19  C   UNL     1       6.298  -0.203   2.083  0.00  0.00    +0.254 A 
ATOM     20  O   UNL     1       6.034   0.109   3.232  0.00  0.00    -0.268 OA
ATOM     21  O   UNL     1       8.583  -4.645  -1.207  0.00  0.00    -0.485 OA
ATOM     22  C   UNL     1       8.543  -5.141  -2.548  0.00  0.00    +0.270 C 
ATOM     23  C   UNL     1       8.986  -4.016  -3.493  0.00  0.00    +0.270 C 
ATOM     24  O   UNL     1       8.083  -2.916  -3.333  0.00  0.00    -0.485 OA
ENDBRANCH   8   9
ENDBRANCH   1   8
BRANCH   1  25
ATOM     25  C   UNL     1       3.351   3.146   1.976  0.00  0.00    +0.163 C 
BRANCH  25  26
ATOM     26  C   UNL     1       3.745   3.310   3.422  0.00  0.00    +0.166 A 
ATOM     27  N   UNL     1       3.195   2.721   4.455  0.00  0.00    -0.112 NA
ATOM     28  N   UNL     1       3.811   3.118   5.514  0.00  0.00    -0.023 NA
ATOM     29  N   UNL     1       4.739   3.946   5.184  0.00  0.00    -0.044 NA
ATOM     30  N   UNL     1       4.734   4.087   3.901  0.00  0.00    -0.224 N 
BRANCH  30  31
ATOM     31  C   UNL     1       5.634   4.934   3.115  0.00  0.00    +0.182 C 
BRANCH  31  32
ATOM     32  C   UNL     1       5.032   6.308   2.972  0.00  0.00    -0.026 A 
ATOM     33  C   UNL     1       4.200   6.590   1.904  0.00  0.00    +0.008 A 
ATOM     34  C   UNL     1       3.647   7.849   1.771  0.00  0.00    +0.038 A 
ATOM     35  C   UNL     1       3.926   8.829   2.709  0.00  0.00    +0.123 A 
ATOM     36  C   UNL     1       4.759   8.546   3.778  0.00  0.00    +0.038 A 
ATOM     37  C   UNL     1       5.307   7.285   3.911  0.00  0.00    +0.008 A 
ATOM     38  F   UNL     1       3.386  10.061   2.580  0.00  0.00    -0.205 F 
ENDBRANCH  31  32
ENDBRANCH  30  31
ENDBRANCH  25  26
ENDBRANCH   1  25
TORSDOF 8
