REMARK  Name = ZINC06053332
REMARK  7 active torsions:
REMARK  status: ('A' for Active; 'I' for Inactive)
REMARK    1  A    between atoms: C_1  and  C_2
REMARK    2  A    between atoms: C_5  and  N_9
REMARK    3  A    between atoms: C_6  and  C_8
REMARK    4  A    between atoms: C_10  and  C_12
REMARK    5  A    between atoms: C_13  and  C_26
REMARK    6  A    between atoms: C_18  and  C_20
REMARK    7  A    between atoms: C_23  and  C_25
REMARK                            x       y       z     vdW  Elec       q    Type
REMARK                         _______ _______ _______ _____ _____    ______ ____
ROOT
ATOM      1  C   UNL     1       0.159  -6.254  -1.003  0.00  0.00    +0.059 C 
ATOM      2  C   UNL     1       0.230  -7.028  -2.106  0.00  0.00    +0.019 C 
ATOM      3  N   UNL     1       0.269  -8.391  -2.010  0.00  0.00    -0.273 N 
ATOM      4  C   UNL     1       0.240  -9.054  -0.847  0.00  0.00    +0.304 C 
ATOM      5  O   UNL     1       0.279 -10.269  -0.863  0.00  0.00    -0.252 OA
ATOM      6  N   UNL     1       0.170  -8.419   0.339  0.00  0.00    -0.285 N 
ATOM      7  C   UNL     1       0.129  -6.947   0.344  0.00  0.00    +0.177 C 
ATOM      8  C   UNL     1       0.267  -6.379  -3.465  0.00  0.00    +0.061 C 
ATOM      9  H   UNL     1       0.320  -8.906  -2.830  0.00  0.00    +0.156 HD
ATOM     10  H   UNL     1       0.151  -8.919   1.170  0.00  0.00    +0.151 HD
ENDROOT
BRANCH   7  11
ATOM     11  C   UNL     1       1.302  -6.448   1.149  0.00  0.00    +0.130 A 
ATOM     12  C   UNL     1       1.239  -5.584   2.178  0.00  0.00    +0.047 A 
ATOM     13  C   UNL     1       2.563  -5.396   2.636  0.00  0.00    +0.045 A 
ATOM     14  C   UNL     1       3.356  -6.155   1.859  0.00  0.00    +0.102 A 
ATOM     15  O   UNL     1       2.586  -6.795   0.964  0.00  0.00    -0.463 OA
ATOM     16  C   UNL     1       4.854  -6.273   1.977  0.00  0.00    +0.086 C 
ENDBRANCH   7  11
BRANCH   1  18
ATOM     17  N   UNL     1       1.255  -4.148  -1.310  0.00  0.00    -0.281 N 
ATOM     18  C   UNL     1       0.118  -4.841  -1.101  0.00  0.00    +0.248 C 
ATOM     19  O   UNL     1      -0.943  -4.254  -0.996  0.00  0.00    -0.270 OA
ATOM     20  H   UNL     1       2.083  -4.618  -1.493  0.00  0.00    +0.155 HD
BRANCH  17  25
ATOM     21  C   UNL     1       1.193   1.521  -1.125  0.00  0.00    +0.044 C 
ATOM     22  C   UNL     1       1.209   0.015  -1.174  0.00  0.00    -0.050 A 
ATOM     23  C   UNL     1       0.088  -0.674  -1.601  0.00  0.00    +0.005 A 
ATOM     24  C   UNL     1       0.100  -2.054  -1.647  0.00  0.00    +0.024 A 
ATOM     25  C   UNL     1       1.240  -2.750  -1.265  0.00  0.00    +0.037 A 
ATOM     26  C   UNL     1       2.364  -2.056  -0.837  0.00  0.00    -0.029 A 
ATOM     27  C   UNL     1       2.347  -0.675  -0.798  0.00  0.00    +0.008 A 
ATOM     28  C   UNL     1       3.602  -2.807  -0.421  0.00  0.00    +0.045 C 
ENDBRANCH  17  25
ENDBRANCH   1  18
TORSDOF 3
