REMARK  Name = ZINC29484280
REMARK  5 active torsions:
REMARK  status: ('A' for Active; 'I' for Inactive)
REMARK    1  A    between atoms: C_1  and  C_2
REMARK    2  A    between atoms: C_7  and  C_8
REMARK    3  A    between atoms: N_10  and  C_11
REMARK    4  A    between atoms: C_21  and  C_25
REMARK    5  A    between atoms: C_21  and  C_26
REMARK                            x       y       z     vdW  Elec       q    Type
REMARK                         _______ _______ _______ _____ _____    ______ ____
ROOT
ATOM      1  C   UNL     1      -0.321   4.416   0.579  0.00  0.00    +0.047 C 
ATOM      2  C   UNL     1      -1.423   3.413   0.357  0.00  0.00    -0.010 A 
ATOM      3  C   UNL     1      -2.796   3.680   0.287  0.00  0.00    +0.042 A 
ATOM      4  C   UNL     1      -3.454   2.467   0.081  0.00  0.00    +0.028 A 
ATOM      5  N   UNL     1      -2.532   1.506   0.019  0.00  0.00    -0.354 N 
ATOM      6  H   UNL     1      -2.836   0.462  -0.143  0.00  0.00    +0.166 HD
ATOM      7  C   UNL     1      -1.278   2.064   0.183  0.00  0.00    +0.106 A 
ATOM      8  C   UNL     1      -4.953   2.359  -0.035  0.00  0.00    +0.060 C 
ATOM      9  C   UNL     1      -5.599   3.597   0.594  0.00  0.00    -0.023 C 
ATOM     10  C   UNL     1      -5.001   4.878   0.004  0.00  0.00    +0.086 C 
ATOM     11  C   UNL     1      -3.533   4.949   0.397  0.00  0.00    +0.166 C 
ATOM     12  O   UNL     1      -3.008   5.976   0.773  0.00  0.00    -0.292 OA
ATOM     13  C   UNL     1      -5.359   3.578   2.105  0.00  0.00    +0.011 C 
ATOM     14  C   UNL     1      -7.104   3.572   0.322  0.00  0.00    +0.011 C 
ENDROOT
BRANCH   7  15
ATOM     15  C   UNL     1      -0.006   1.332   0.179  0.00  0.00    +0.265 C 
ATOM     16  O   UNL     1       1.042   1.932   0.329  0.00  0.00    -0.268 OA
ATOM     17  N   UNL     1       0.002  -0.004   0.002  0.00  0.00    -0.280 N 
ATOM     18  H   UNL     1      -0.947  -0.558  -0.047  0.00  0.00    +0.155 HD
BRANCH  17  19
ATOM     19  C   UNL     1       1.218  -0.687  -0.119  0.00  0.00    +0.037 A 
ATOM     20  C   UNL     1       1.343  -1.977   0.379  0.00  0.00    +0.027 A 
ATOM     21  C   UNL     1       2.541  -2.654   0.257  0.00  0.00    +0.051 A 
ATOM     22  C   UNL     1       3.624  -2.045  -0.356  0.00  0.00    +0.166 A 
ATOM     23  C   UNL     1       3.504  -0.749  -0.851  0.00  0.00    +0.168 A 
ATOM     24  C   UNL     1       2.302  -0.072  -0.732  0.00  0.00    +0.072 A 
ATOM     25  O   UNL     1       4.698  -0.379  -1.400  0.00  0.00    -0.453 OA
ATOM     26  C   UNL     1       5.667  -1.304  -0.873  0.00  0.00    +0.466 C 
ATOM     27  O   UNL     1       4.894  -2.487  -0.595  0.00  0.00    -0.453 OA
ENDBRANCH  17  19
ENDBRANCH   7  15
TORSDOF 2
