REMARK  Name = ZINC22219043
REMARK  9 active torsions:
REMARK  status: ('A' for Active; 'I' for Inactive)
REMARK    1  A    between atoms: C_3  and  C_6
REMARK    2  A    between atoms: N_8  and  C_9
REMARK    3  A    between atoms: C_12  and  C_15
REMARK    4  A    between atoms: C_15  and  O_17
REMARK    5  A    between atoms: O_17  and  C_18
REMARK    6  A    between atoms: C_18  and  C_19
REMARK    7  A    between atoms: N_21  and  C_22
REMARK    8  A    between atoms: C_25  and  N_32
REMARK    9  A    between atoms: C_27  and  C_28
REMARK                            x       y       z     vdW  Elec       q    Type
REMARK                         _______ _______ _______ _____ _____    ______ ____
ROOT
ATOM      1  O   UNL     1       0.736   1.558   0.273  0.00  0.00    -0.452 OA
ENDROOT
BRANCH   1   2
ATOM      2  C   UNL     1      -0.443   0.907   0.245  0.00  0.00    +0.340 C 
ATOM      3  O   UNL     1      -0.468  -0.307   0.259  0.00  0.00    -0.245 OA
BRANCH   2   7
ATOM      4  C   UNL     1      -4.075   3.102   0.088  0.00  0.00    +0.034 A 
ATOM      5  C   UNL     1      -4.104   1.710   0.105  0.00  0.00    +0.024 A 
ATOM      6  C   UNL     1      -2.929   0.996   0.155  0.00  0.00    +0.017 A 
ATOM      7  C   UNL     1      -1.704   1.669   0.190  0.00  0.00    +0.059 A 
ATOM      8  C   UNL     1      -1.679   3.067   0.179  0.00  0.00    +0.017 A 
ATOM      9  C   UNL     1      -2.857   3.775   0.123  0.00  0.00    +0.024 A 
BRANCH   4  12
ATOM     10  C   UNL     1      -5.325   4.979  -0.652  0.00  0.00    +0.255 C 
ATOM     11  O   UNL     1      -4.317   5.439  -1.156  0.00  0.00    -0.269 OA
ATOM     12  N   UNL     1      -5.266   3.821   0.036  0.00  0.00    -0.281 N 
ATOM     13  H   UNL     1      -6.159   3.445   0.557  0.00  0.00    +0.155 HD
BRANCH  10  16
ATOM     14  C   UNL     1      -8.176   7.312  -1.432  0.00  0.00    +0.008 A 
ATOM     15  C   UNL     1      -6.876   6.871  -1.454  0.00  0.00    +0.021 A 
ATOM     16  C   UNL     1      -6.602   5.683  -0.794  0.00  0.00    +0.074 A 
ATOM     17  S   UNL     1      -8.211   5.230  -0.171  0.00  0.00    -0.092 S 
ATOM     18  C   UNL     1      -9.115   6.578  -0.779  0.00  0.00    +0.046 A 
ENDBRANCH  10  16
ENDBRANCH   4  12
ENDBRANCH   2   7
ENDBRANCH   1   2
BRANCH   1  19
ATOM     19  C   UNL     1       1.938   0.744   0.320  0.00  0.00    +0.328 C 
BRANCH  19  20
ATOM     20  C   UNL     1       3.150   1.638   0.345  0.00  0.00    +0.255 C 
ATOM     21  O   UNL     1       3.015   2.843   0.326  0.00  0.00    -0.272 OA
ATOM     22  N   UNL     1       4.385   1.099   0.390  0.00  0.00    -0.282 N 
ATOM     23  H   UNL     1       4.506   0.011   0.500  0.00  0.00    +0.155 HD
BRANCH  22  24
ATOM     24  C   UNL     1       5.512   1.922   0.297  0.00  0.00    +0.045 A 
ATOM     25  C   UNL     1       5.422   3.156  -0.335  0.00  0.00    +0.026 A 
ATOM     26  C   UNL     1       6.536   3.966  -0.426  0.00  0.00    +0.034 A 
ATOM     27  C   UNL     1       7.741   3.551   0.112  0.00  0.00    +0.127 A 
ATOM     28  C   UNL     1       7.833   2.324   0.742  0.00  0.00    +0.047 A 
ATOM     29  C   UNL     1       6.721   1.511   0.841  0.00  0.00    +0.078 A 
BRANCH  29  30
ATOM     30  C   UNL     1       6.821   0.176   1.533  0.00  0.00    +0.419 C 
ATOM     31  F   UNL     1       8.129  -0.013   1.994  0.00  0.00    -0.166 F 
ATOM     32  F   UNL     1       5.936   0.144   2.616  0.00  0.00    -0.166 F 
ATOM     33  F   UNL     1       6.493  -0.843   0.632  0.00  0.00    -0.166 F 
ENDBRANCH  29  30
BRANCH  27  34
ATOM     34  N   UNL     1       8.933   4.423   0.014  0.00  0.00    +0.056 N 
ATOM     35  O   UNL     1       8.853   5.504  -0.540  0.00  0.00    -0.126 OA
ATOM     36  O   UNL     1       9.995   4.058   0.487  0.00  0.00    -0.126 OA
ENDBRANCH  27  34
ENDBRANCH  22  24
ENDBRANCH  19  20
ENDBRANCH   1  19
TORSDOF 9
