REMARK  Name = ZINC08705575
REMARK  5 active torsions:
REMARK  status: ('A' for Active; 'I' for Inactive)
REMARK    1  A    between atoms: C_7  and  C_11
REMARK    2  A    between atoms: C_11  and  C_12
REMARK    3  A    between atoms: C_12  and  N_13
REMARK    4  A    between atoms: C_14  and  C_16
REMARK    5  A    between atoms: C_21  and  C_22
REMARK                            x       y       z     vdW  Elec       q    Type
REMARK                         _______ _______ _______ _____ _____    ______ ____
ROOT
ATOM      1  N   UNL     1      -0.457  -4.914  -1.506  0.00  0.00    -0.311 N 
ATOM      2  C   UNL     1      -1.143  -5.229  -2.622  0.00  0.00    +0.248 C 
ATOM      3  O   UNL     1      -0.988  -4.576  -3.637  0.00  0.00    -0.270 OA
ATOM      4  H   UNL     1      -0.580  -5.434  -0.698  0.00  0.00    +0.149 HD
ENDROOT
BRANCH   2   5
ATOM      5  C   UNL     1      -2.082  -6.364  -2.613  0.00  0.00    +0.082 A 
ATOM      6  C   UNL     1      -2.447  -7.126  -1.523  0.00  0.00    +0.118 A 
ATOM      7  N   UNL     1      -3.321  -8.054  -1.942  0.00  0.00    -0.283 N 
ATOM      8  H   UNL     1      -3.738  -8.724  -1.378  0.00  0.00    +0.188 HD
ATOM      9  N   UNL     1      -3.537  -7.909  -3.316  0.00  0.00    -0.173 NA
ATOM     10  C   UNL     1      -2.819  -6.903  -3.760  0.00  0.00    +0.105 A 
BRANCH  10  11
ATOM     11  C   UNL     1      -2.762  -6.409  -5.157  0.00  0.00    +0.003 A 
ATOM     12  C   UNL     1      -1.535  -6.091  -5.737  0.00  0.00    +0.013 A 
ATOM     13  C   UNL     1      -1.486  -5.633  -7.037  0.00  0.00    +0.039 A 
ATOM     14  C   UNL     1      -2.655  -5.488  -7.766  0.00  0.00    +0.123 A 
ATOM     15  C   UNL     1      -3.877  -5.803  -7.195  0.00  0.00    +0.039 A 
ATOM     16  C   UNL     1      -3.935  -6.267  -5.897  0.00  0.00    +0.013 A 
ATOM     17  F   UNL     1      -2.603  -5.038  -9.039  0.00  0.00    -0.205 F 
ENDBRANCH  10  11
ENDBRANCH   2   5
BRANCH   1  18
ATOM     18  C   UNL     1       0.477  -3.785  -1.516  0.00  0.00    +0.109 C 
BRANCH  18  19
ATOM     19  C   UNL     1       1.121  -3.645  -0.135  0.00  0.00    +0.056 C 
BRANCH  19  26
ATOM     20  C   UNL     1       0.585   0.966   0.518  0.00  0.00    +0.001 A 
ATOM     21  C   UNL     1       1.778   1.669   0.416  0.00  0.00    +0.002 A 
ATOM     22  C   UNL     1       2.959   1.013   0.149  0.00  0.00    +0.026 A 
ATOM     23  C   UNL     1       2.959  -0.367  -0.022  0.00  0.00    +0.047 A 
ATOM     24  C   UNL     1       1.748  -1.075   0.083  0.00  0.00    +0.003 A 
ATOM     25  C   UNL     1       0.562  -0.390   0.354  0.00  0.00    +0.010 A 
ATOM     26  C   UNL     1       2.081  -2.483  -0.144  0.00  0.00    -0.021 A 
ATOM     27  C   UNL     1       3.405  -2.544  -0.360  0.00  0.00    +0.087 A 
ATOM     28  N   UNL     1       3.946  -1.289  -0.291  0.00  0.00    -0.360 N 
ATOM     29  H   UNL     1       4.886  -1.080  -0.414  0.00  0.00    +0.165 HD
ENDBRANCH  19  26
ENDBRANCH  18  19
ENDBRANCH   1  18
TORSDOF 5
