REMARK  Name = ZINC40370305
REMARK  8 active torsions:
REMARK  status: ('A' for Active; 'I' for Inactive)
REMARK    1  A    between atoms: C_1  and  C_2
REMARK    2  A    between atoms: C_2  and  C_3
REMARK    3  A    between atoms: C_3  and  C_5
REMARK    4  A    between atoms: C_3  and  N_9
REMARK    5  A    between atoms: N_6  and  O_7
REMARK    6  A    between atoms: C_10  and  C_12
REMARK    7  A    between atoms: C_16  and  C_19
REMARK    8  A    between atoms: C_17  and  O_18
REMARK                            x       y       z     vdW  Elec       q    Type
REMARK                         _______ _______ _______ _____ _____    ______ ____
ROOT
ATOM      1  N   UNL     1      -0.055  -0.114  -2.441  0.00  0.00    -0.302 N 
ATOM      2  C   UNL     1       0.107   1.109  -2.984  0.00  0.00    +0.248 C 
ATOM      3  O   UNL     1       0.895   1.893  -2.492  0.00  0.00    -0.270 OA
ATOM      4  H   UNL     1      -0.683  -0.740  -2.833  0.00  0.00    +0.150 HD
ENDROOT
BRANCH   2   5
ATOM      5  C   UNL     1      -0.672   1.495  -4.176  0.00  0.00    +0.078 A 
ATOM      6  C   UNL     1      -1.582   0.599  -4.742  0.00  0.00    +0.017 A 
ATOM      7  C   UNL     1      -2.307   0.966  -5.855  0.00  0.00    +0.001 A 
ATOM      8  C   UNL     1      -2.136   2.221  -6.417  0.00  0.00    +0.007 A 
ATOM      9  C   UNL     1      -1.240   3.116  -5.868  0.00  0.00    -0.008 A 
ATOM     10  C   UNL     1      -0.506   2.765  -4.745  0.00  0.00    +0.132 A 
ATOM     11  C   UNL     1      -1.063   4.478  -6.488  0.00  0.00    +0.047 C 
BRANCH  10  12
ATOM     12  O   UNL     1       0.371   3.646  -4.202  0.00  0.00    -0.506 OA
ATOM     13  H   UNL     1       1.265   3.585  -4.565  0.00  0.00    +0.292 HD
ENDBRANCH  10  12
ENDBRANCH   2   5
BRANCH   1  14
ATOM     14  C   UNL     1       0.718  -0.497  -1.257  0.00  0.00    +0.139 C 
BRANCH  14  15
ATOM     15  C   UNL     1       0.847  -1.998  -1.206  0.00  0.00    +0.152 C 
ATOM     16  N   UNL     1       1.839  -2.540  -0.579  0.00  0.00    -0.075 NA
ATOM     17  N   UNL     1      -0.091  -2.792  -1.827  0.00  0.00    -0.342 N 
ATOM     18  H   UNL     1      -0.836  -2.385  -2.297  0.00  0.00    +0.144 HD
ATOM     19  H   UNL     1      -0.008  -3.757  -1.794  0.00  0.00    +0.144 HD
BRANCH  16  20
ATOM     20  O   UNL     1       1.960  -3.950  -0.531  0.00  0.00    -0.408 OA
ATOM     21  H   UNL     1       2.732  -4.262  -0.041  0.00  0.00    +0.328 HD
ENDBRANCH  16  20
ENDBRANCH  14  15
BRANCH  14  23
ATOM     22  C   UNL     1      -0.019   1.526   0.010  0.00  0.00    +0.006 C 
ATOM     23  C   UNL     1       0.002  -0.004   0.002  0.00  0.00    +0.027 C 
ENDBRANCH  14  23
ENDBRANCH   1  14
TORSDOF 6
