REMARK  Name = ZINC15707613
REMARK  8 active torsions:
REMARK  status: ('A' for Active; 'I' for Inactive)
REMARK    1  A    between atoms: C_10  and  C_12
REMARK    2  A    between atoms: C_12  and  C_13
REMARK    3  A    between atoms: C_13  and  C_14
REMARK    4  A    between atoms: C_23  and  N_26
REMARK    5  A    between atoms: N_26  and  C_27
REMARK    6  A    between atoms: C_27  and  N_29
REMARK    7  A    between atoms: N_29  and  C_30
REMARK    8  A    between atoms: C_30  and  C_31
REMARK                            x       y       z     vdW  Elec       q    Type
REMARK                         _______ _______ _______ _____ _____    ______ ____
ROOT
ATOM      1  C   UNL     1       1.739  10.272  -5.002  0.00  0.00    -0.050 C 
ATOM      2  C   UNL     1       1.322  10.234  -6.480  0.00  0.00    +0.089 C 
ATOM      3  N   UNL     1       2.247   9.453  -7.291  0.00  0.00    -0.318 N 
ATOM      4  C   UNL     1       3.228   8.673  -6.796  0.00  0.00    +0.200 C 
ATOM      5  O   UNL     1       3.887   7.971  -7.535  0.00  0.00    -0.278 OA
ATOM      6  C   UNL     1       3.495   8.686  -5.327  0.00  0.00    +0.021 C 
ATOM      7  C   UNL     1       2.491   8.657  -3.236  0.00  0.00    -0.055 C 
ATOM      8  C   UNL     1       3.339   7.357  -3.303  0.00  0.00    +0.054 C 
ATOM      9  C   UNL     1       3.961   7.360  -4.725  0.00  0.00    +0.014 C 
ATOM     10  H   UNL     1       2.149   9.497  -8.255  0.00  0.00    +0.149 HD
ATOM     11  N   UNL     1       2.239   8.889  -4.672  0.00  0.00    +0.391 N 
ATOM     12  H   UNL     1       1.549   8.205  -5.005  0.00  0.00    -0.080 HD
ENDROOT
BRANCH   8  13
ATOM     13  N   UNL     1       2.484   6.181  -3.123  0.00  0.00    -0.326 N 
ATOM     14  H   UNL     1       2.120   5.723  -3.897  0.00  0.00    +0.148 HD
BRANCH  13  15
ATOM     15  C   UNL     1       2.204   5.734  -1.883  0.00  0.00    +0.131 C 
ATOM     16  S   UNL     1       2.847   6.542  -0.517  0.00  0.00    -0.019 S 
BRANCH  15  17
ATOM     17  N   UNL     1       1.417   4.652  -1.718  0.00  0.00    -0.319 N 
ATOM     18  H   UNL     1       1.053   4.195  -2.492  0.00  0.00    +0.148 HD
BRANCH  17  19
ATOM     19  C   UNL     1       1.113   4.167  -0.369  0.00  0.00    +0.177 C 
BRANCH  19  20
ATOM     20  C   UNL     1       0.221   2.956  -0.461  0.00  0.00    +0.122 A 
ATOM     21  C   UNL     1       0.636   1.679  -0.542  0.00  0.00    +0.046 A 
ATOM     22  C   UNL     1      -0.525   0.875  -0.609  0.00  0.00    +0.041 A 
ATOM     23  C   UNL     1      -1.580   1.709  -0.570  0.00  0.00    +0.195 A 
ATOM     24  O   UNL     1      -1.122   2.968  -0.475  0.00  0.00    -0.466 OA
ENDBRANCH  19  20
ENDBRANCH  17  19
ENDBRANCH  15  17
ENDBRANCH  13  15
ENDBRANCH   8  13
BRANCH   1  25
ATOM     25  C   UNL     1       0.540  10.660  -4.134  0.00  0.00    -0.005 C 
BRANCH  25  26
ATOM     26  C   UNL     1       0.151  12.112  -4.422  0.00  0.00    +0.095 C 
BRANCH  26  36
ATOM     27  C   UNL     1      -0.504  16.970  -6.057  0.00  0.00    +0.000 A 
ATOM     28  C   UNL     1       0.207  15.797  -6.235  0.00  0.00    +0.002 A 
ATOM     29  C   UNL     1      -0.054  14.700  -5.441  0.00  0.00    +0.024 A 
ATOM     30  C   UNL     1      -1.035  14.766  -4.450  0.00  0.00    +0.039 A 
ATOM     31  C   UNL     1      -1.746  15.944  -4.284  0.00  0.00    -0.024 A 
ATOM     32  C   UNL     1      -1.480  17.041  -5.081  0.00  0.00    +0.005 A 
ATOM     33  C   UNL     1      -2.741  15.751  -3.162  0.00  0.00    +0.056 C 
ATOM     34  C   UNL     1      -2.524  14.302  -2.697  0.00  0.00    +0.118 C 
ATOM     35  N   UNL     1      -1.456  13.779  -3.553  0.00  0.00    -0.271 N 
ATOM     36  C   UNL     1      -0.950  12.532  -3.483  0.00  0.00    +0.220 C 
ATOM     37  O   UNL     1      -1.381  11.748  -2.664  0.00  0.00    -0.275 OA
ENDBRANCH  26  36
ENDBRANCH  25  26
ENDBRANCH   1  25
TORSDOF 8
