REMARK  Name = ZINC02502509
REMARK  8 active torsions:
REMARK  status: ('A' for Active; 'I' for Inactive)
REMARK    1  A    between atoms: C_1  and  O_2
REMARK    2  A    between atoms: O_2  and  C_3
REMARK    3  A    between atoms: C_5  and  C_14
REMARK    4  A    between atoms: C_8  and  O_9
REMARK    5  A    between atoms: O_9  and  C_10
REMARK    6  A    between atoms: C_10  and  C_11
REMARK    7  A    between atoms: C_23  and  N_27
REMARK    8  A    between atoms: C_24  and  C_25
REMARK                            x       y       z     vdW  Elec       q    Type
REMARK                         _______ _______ _______ _____ _____    ______ ____
ROOT
ATOM      1  C   UNL     1      -1.323   2.129   0.032  0.00  0.00    +0.098 C 
ATOM      2  C   UNL     1      -0.017   1.381   0.010  0.00  0.00    +0.011 A 
ATOM      3  C   UNL     1       1.172   2.090   0.002  0.00  0.00    +0.057 A 
ATOM      4  C   UNL     1       2.384   1.420  -0.012  0.00  0.00    +0.167 A 
ATOM      5  C   UNL     1       2.406   0.027  -0.020  0.00  0.00    +0.170 A 
ATOM      6  C   UNL     1       1.216  -0.680  -0.013  0.00  0.00    +0.096 A 
ATOM      7  C   UNL     1       0.002  -0.004   0.002  0.00  0.00    +0.138 A 
ATOM      8  O   UNL     1      -1.153  -0.716   0.009  0.00  0.00    -0.441 OA
ATOM      9  C   UNL     1      -2.304  -0.129  -0.358  0.00  0.00    +0.199 C 
ATOM     10  C   UNL     1      -2.450   1.218  -0.371  0.00  0.00    +0.098 C 
ATOM     11  O   UNL     1       3.706  -0.388  -0.034  0.00  0.00    -0.452 OA
ATOM     12  C   UNL     1       4.479   0.754   0.378  0.00  0.00    +0.466 C 
ATOM     13  O   UNL     1       3.671   1.877  -0.021  0.00  0.00    -0.453 OA
ENDROOT
BRANCH   1  16
ATOM     14  C   UNL     1      -1.931   4.508   2.904  0.00  0.00    +0.163 A 
ATOM     15  C   UNL     1      -1.704   4.019   1.627  0.00  0.00    +0.054 A 
ATOM     16  C   UNL     1      -1.571   2.659   1.421  0.00  0.00    -0.030 A 
ATOM     17  C   UNL     1      -1.672   1.782   2.486  0.00  0.00    +0.028 A 
ATOM     18  C   UNL     1      -1.893   2.264   3.764  0.00  0.00    +0.086 A 
ATOM     19  C   UNL     1      -2.027   3.628   3.976  0.00  0.00    +0.181 A 
ATOM     20 CL   UNL     1      -2.011   1.161   5.099  0.00  0.00    -0.080 Cl
BRANCH  14  22
ATOM     21  C   UNL     1      -1.953   6.691   1.960  0.00  0.00    +0.277 C 
ATOM     22  O   UNL     1      -2.062   5.846   3.107  0.00  0.00    -0.491 OA
ENDBRANCH  14  22
BRANCH  19  23
ATOM     23  O   UNL     1      -2.250   4.103   5.231  0.00  0.00    -0.483 OA
BRANCH  23  24
ATOM     24  C   UNL     1      -3.612   4.237   5.641  0.00  0.00    +0.256 C 
BRANCH  24  25
ATOM     25  C   UNL     1      -3.663   4.774   7.049  0.00  0.00    +0.006 C 
ATOM     26  C   UNL     1      -4.499   5.735   7.353  0.00  0.00    +0.007 C 
ENDBRANCH  24  25
ENDBRANCH  23  24
ENDBRANCH  19  23
ENDBRANCH   1  16
BRANCH   9  27
ATOM     27  N   UNL     1      -3.364  -0.917  -0.731  0.00  0.00    -0.328 N 
ATOM     28  H   UNL     1      -3.276  -1.883  -0.726  0.00  0.00    +0.145 HD
ATOM     29  H   UNL     1      -4.202  -0.508  -0.998  0.00  0.00    +0.145 HD
ENDBRANCH   9  27
BRANCH  10  30
ATOM     30  C   UNL     1      -3.702   1.784  -0.773  0.00  0.00    +0.101 C 
ATOM     31  N   UNL     1      -4.695   2.233  -1.092  0.00  0.00    -0.191 NA
ENDBRANCH  10  30
TORSDOF 7
