REMARK  Name = ZINC22206874
REMARK  14 active torsions:
REMARK  status: ('A' for Active; 'I' for Inactive)
REMARK    1  A    between atoms: C_1  and  C_2
REMARK    2  A    between atoms: C_2  and  C_3
REMARK    3  A    between atoms: C_4  and  C_35
REMARK    4  A    between atoms: C_6  and  N_13
REMARK    5  A    between atoms: C_7  and  C_8
REMARK    6  A    between atoms: C_8  and  O_10
REMARK    7  A    between atoms: O_10  and  C_11
REMARK    8  A    between atoms: C_11  and  C_12
REMARK    9  A    between atoms: C_14  and  C_16
REMARK   10  A    between atoms: C_16  and  O_17
REMARK   11  A    between atoms: O_17  and  C_18
REMARK   12  A    between atoms: C_18  and  C_20
REMARK   13  A    between atoms: C_20  and  N_21
REMARK   14  A    between atoms: C_29  and  C_31
REMARK                            x       y       z     vdW  Elec       q    Type
REMARK                         _______ _______ _______ _____ _____    ______ ____
ROOT
ATOM      1  C   UNL     1      -2.402   0.322   7.888  0.00  0.00    +0.328 C 
ENDROOT
BRANCH   1   3
ATOM      2  N   UNL     1      -2.336   0.283  10.360  0.00  0.00    -0.277 N 
ATOM      3  C   UNL     1      -3.077   0.284   9.235  0.00  0.00    +0.255 C 
ATOM      4  O   UNL     1      -4.287   0.254   9.306  0.00  0.00    -0.272 OA
ATOM      5  H   UNL     1      -1.238   0.310  10.296  0.00  0.00    +0.155 HD
BRANCH   2   9
ATOM      6  C   UNL     1      -3.264   0.200  13.992  0.00  0.00    -0.022 A 
ATOM      7  C   UNL     1      -4.583   0.174  13.731  0.00  0.00    -0.008 A 
ATOM      8  S   UNL     1      -4.651   0.209  11.952  0.00  0.00    -0.078 S 
ATOM      9  C   UNL     1      -2.956   0.247  11.599  0.00  0.00    +0.086 A 
ATOM     10  C   UNL     1      -2.369   0.240  12.860  0.00  0.00    +0.091 A 
ATOM     11  C   UNL     1      -5.729   0.131  14.710  0.00  0.00    +0.052 C 
BRANCH   6  13
ATOM     12  C   UNL     1      -2.600   1.627  15.908  0.00  0.00    +0.009 C 
ATOM     13  C   UNL     1      -2.743   0.189  15.406  0.00  0.00    +0.033 C 
ENDBRANCH   6  13
BRANCH  10  14
ATOM     14  C   UNL     1      -0.915   0.271  13.030  0.00  0.00    +0.342 C 
ATOM     15  O   UNL     1      -0.336   1.337  13.119  0.00  0.00    -0.245 OA
BRANCH  14  16
ATOM     16  O   UNL     1      -0.218  -0.882  13.089  0.00  0.00    -0.461 OA
BRANCH  16  17
ATOM     17  C   UNL     1       1.220  -0.776  13.260  0.00  0.00    +0.229 C 
ATOM     18  C   UNL     1       1.833  -2.177  13.304  0.00  0.00    +0.048 C 
ENDBRANCH  16  17
ENDBRANCH  14  16
ENDBRANCH  10  14
ENDBRANCH   2   9
ENDBRANCH   1   3
BRANCH   1  19
ATOM     19  O   UNL     1      -3.409   0.316   6.841  0.00  0.00    -0.454 OA
BRANCH  19  20
ATOM     20  C   UNL     1      -2.970   0.347   5.573  0.00  0.00    +0.326 C 
ATOM     21  O   UNL     1      -1.784   0.379   5.345  0.00  0.00    -0.249 OA
BRANCH  20  22
ATOM     22  C   UNL     1      -3.957   0.343   4.434  0.00  0.00    +0.238 C 
BRANCH  22  23
ATOM     23  N   UNL     1      -3.233   0.381   3.161  0.00  0.00    -0.213 N 
ATOM     24  C   UNL     1      -2.885   1.517   2.521  0.00  0.00    +0.247 C 
ATOM     25  O   UNL     1      -3.102   2.655   2.875  0.00  0.00    -0.273 OA
ATOM     26  C   UNL     1      -2.167   1.069   1.268  0.00  0.00    +0.115 C 
ATOM     27  C   UNL     1      -2.911   1.550   0.027  0.00  0.00    +0.035 C 
ATOM     28  C   UNL     1      -2.186   1.056  -1.227  0.00  0.00    +0.003 C 
ATOM     29  C   UNL     1      -0.753   1.593  -1.231  0.00  0.00    +0.000 C 
ATOM     30  C   UNL     1      -0.013   1.086   0.008  0.00  0.00    +0.006 C 
ATOM     31  C   UNL     1      -0.730   1.580   1.267  0.00  0.00    +0.018 C 
ATOM     32  C   UNL     1      -0.002   1.056   2.507  0.00  0.00    +0.010 C 
ATOM     33  N   UNL     1      -2.191  -0.397   1.347  0.00  0.00    -0.285 N 
ATOM     34  C   UNL     1      -2.836  -0.706   2.489  0.00  0.00    +0.310 C 
ATOM     35  O   UNL     1      -3.035  -1.844   2.866  0.00  0.00    -0.252 OA
ATOM     36  H   UNL     1      -1.730  -0.998   0.550  0.00  0.00    +0.151 HD
ENDBRANCH  22  23
ENDBRANCH  20  22
ENDBRANCH  19  20
ENDBRANCH   1  19
TORSDOF 10
