REMARK  Name = ZINC06610216
REMARK  7 active torsions:
REMARK  status: ('A' for Active; 'I' for Inactive)
REMARK    1  A    between atoms: C_1  and  C_2
REMARK    2  A    between atoms: C_2  and  C_4
REMARK    3  A    between atoms: C_2  and  N_12
REMARK    4  A    between atoms: C_13  and  C_15
REMARK    5  A    between atoms: C_15  and  O_16
REMARK    6  A    between atoms: O_16  and  C_17
REMARK    7  A    between atoms: C_17  and  C_19
REMARK                            x       y       z     vdW  Elec       q    Type
REMARK                         _______ _______ _______ _____ _____    ______ ____
ROOT
ATOM      1  N   UNL     1       8.305  -3.510   4.463  0.00  0.00    -0.306 N 
ATOM      2  C   UNL     1       7.112  -3.242   3.896  0.00  0.00    +0.251 C 
ATOM      3  O   UNL     1       6.267  -4.109   3.823  0.00  0.00    -0.272 OA
ATOM      4  H   UNL     1       8.981  -2.816   4.521  0.00  0.00    +0.149 HD
ENDROOT
BRANCH   1   6
ATOM      5  C   UNL     1       8.043  -4.952   6.421  0.00  0.00    +0.033 C 
ATOM      6  C   UNL     1       8.581  -4.848   4.993  0.00  0.00    +0.102 C 
BRANCH   6   7
ATOM      7  C   UNL     1      10.068  -5.089   4.997  0.00  0.00    -0.009 A 
ATOM      8  C   UNL     1      10.942  -4.019   5.046  0.00  0.00    +0.008 A 
ATOM      9  C   UNL     1      12.306  -4.241   5.056  0.00  0.00    +0.020 A 
ATOM     10  C   UNL     1      12.798  -5.533   5.005  0.00  0.00    +0.042 A 
ATOM     11  C   UNL     1      11.924  -6.604   4.950  0.00  0.00    +0.040 A 
ATOM     12  C   UNL     1      10.559  -6.382   4.946  0.00  0.00    +0.047 A 
ATOM     13 CL   UNL     1       9.461  -7.725   4.877  0.00  0.00    -0.083 Cl
ATOM     14 CL   UNL     1      14.512  -5.810   5.011  0.00  0.00    -0.083 Cl
ENDBRANCH   6   7
ENDBRANCH   1   6
BRANCH   2  15
ATOM     15  C   UNL     1       6.829  -1.866   3.352  0.00  0.00    +0.328 C 
BRANCH  15  16
ATOM     16  O   UNL     1       5.487  -1.832   2.797  0.00  0.00    -0.452 OA
BRANCH  16  17
ATOM     17  C   UNL     1       5.075  -0.664   2.265  0.00  0.00    +0.340 C 
ATOM     18  O   UNL     1       5.815   0.299   2.265  0.00  0.00    -0.245 OA
BRANCH  17  19
ATOM     19  C   UNL     1       3.724  -0.556   1.683  0.00  0.00    +0.063 A 
ATOM     20  C   UNL     1       2.870  -1.662   1.682  0.00  0.00    +0.019 A 
ATOM     21  C   UNL     1       1.609  -1.559   1.138  0.00  0.00    +0.050 A 
ATOM     22  C   UNL     1       1.181  -0.357   0.590  0.00  0.00    +0.166 A 
ATOM     23  C   UNL     1       2.028   0.752   0.588  0.00  0.00    +0.167 A 
ATOM     24  C   UNL     1       3.294   0.655   1.131  0.00  0.00    +0.064 A 
ATOM     25  O   UNL     1       1.376   1.797  -0.001  0.00  0.00    -0.453 OA
ATOM     26  C   UNL     1      -0.017   1.435   0.010  0.00  0.00    +0.466 C 
ATOM     27  O   UNL     1       0.002  -0.004   0.002  0.00  0.00    -0.453 OA
ENDBRANCH  17  19
ENDBRANCH  16  17
ENDBRANCH  15  16
ENDBRANCH   2  15
TORSDOF 6
