REMARK  Name = ZINC22609223
REMARK  12 active torsions:
REMARK  status: ('A' for Active; 'I' for Inactive)
REMARK    1  A    between atoms: C_1  and  O_2
REMARK    2  A    between atoms: O_2  and  C_3
REMARK    3  A    between atoms: C_8  and  O_9
REMARK    4  A    between atoms: O_9  and  C_10
REMARK    5  A    between atoms: N_12  and  C_15
REMARK    6  A    between atoms: N_20  and  C_23
REMARK    7  A    between atoms: C_25  and  C_33
REMARK    8  A    between atoms: C_27  and  C_29
REMARK    9  A    between atoms: C_29  and  O_31
REMARK   10  A    between atoms: O_31  and  C_32
REMARK   11  A    between atoms: C_33  and  O_35
REMARK   12  A    between atoms: O_35  and  C_36
REMARK                            x       y       z     vdW  Elec       q    Type
REMARK                         _______ _______ _______ _____ _____    ______ ____
ROOT
ATOM      1  C   UNL     1      -4.705   0.563   0.094  0.00  0.00    +0.029 C 
ATOM      2  C   UNL     1      -3.916  -0.755  -0.052  0.00  0.00    +0.091 C 
ATOM      3  C   UNL     1      -2.473  -0.302  -0.093  0.00  0.00    +0.225 C 
ATOM      4  O   UNL     1      -1.511  -1.031  -0.205  0.00  0.00    -0.275 OA
ATOM      5  N   UNL     1      -2.427   1.031   0.019  0.00  0.00    -0.212 N 
ATOM      6  C   UNL     1      -3.624   1.621   0.126  0.00  0.00    +0.213 C 
ATOM      7  O   UNL     1      -3.812   2.814   0.231  0.00  0.00    -0.277 OA
ENDROOT
BRANCH   1  15
ATOM      8  C   UNL     1      -9.339   0.347  -4.362  0.00  0.00    +0.162 A 
ATOM      9  C   UNL     1      -8.594   1.402  -3.866  0.00  0.00    +0.053 A 
ATOM     10  C   UNL     1      -7.689   1.199  -2.836  0.00  0.00    -0.044 A 
ATOM     11  C   UNL     1      -7.529  -0.061  -2.297  0.00  0.00    -0.057 A 
ATOM     12  C   UNL     1      -8.273  -1.122  -2.792  0.00  0.00    +0.051 A 
ATOM     13  C   UNL     1      -9.176  -0.925  -3.822  0.00  0.00    +0.162 A 
ATOM     14  C   UNL     1      -6.564  -0.328  -1.173  0.00  0.00    -0.042 C 
ATOM     15  N   UNL     1      -5.592   0.764  -1.060  0.00  0.00    +0.391 N 
ATOM     16  C   UNL     1      -6.287   2.058  -0.970  0.00  0.00    -0.073 C 
ATOM     17  C   UNL     1      -6.894   2.378  -2.336  0.00  0.00    +0.017 C 
ATOM     18  H   UNL     1      -4.967   0.764  -1.965  0.00  0.00    -0.080 HD
BRANCH   8  20
ATOM     19  C   UNL     1     -10.339   1.884  -5.876  0.00  0.00    +0.277 C 
ATOM     20  O   UNL     1     -10.226   0.552  -5.372  0.00  0.00    -0.491 OA
ENDBRANCH   8  20
BRANCH  13  21
ATOM     21  O   UNL     1      -9.903  -1.969  -4.303  0.00  0.00    -0.491 OA
ATOM     22  C   UNL     1      -9.682  -3.245  -3.698  0.00  0.00    +0.277 C 
ENDBRANCH  13  21
ENDBRANCH   1  15
BRANCH   5  23
ATOM     23  C   UNL     1      -1.223   1.752   0.017  0.00  0.00    +0.045 A 
ATOM     24  C   UNL     1      -0.812   2.414   1.164  0.00  0.00    +0.039 A 
ATOM     25  C   UNL     1       0.388   3.127   1.169  0.00  0.00    +0.062 A 
ATOM     26  C   UNL     1       1.171   3.178   0.017  0.00  0.00    +0.030 A 
ATOM     27  C   UNL     1       0.752   2.515  -1.136  0.00  0.00    +0.062 A 
ATOM     28  C   UNL     1      -0.450   1.804  -1.132  0.00  0.00    +0.039 A 
BRANCH  27  29
ATOM     29  C   UNL     1       1.578   2.566  -2.360  0.00  0.00    +0.339 C 
ATOM     30  O   UNL     1       1.212   1.988  -3.364  0.00  0.00    -0.245 OA
BRANCH  29  31
ATOM     31  O   UNL     1       2.738   3.251  -2.362  0.00  0.00    -0.464 OA
ATOM     32  C   UNL     1       3.498   3.257  -3.599  0.00  0.00    +0.280 C 
ENDBRANCH  29  31
ENDBRANCH  27  29
BRANCH  25  33
ATOM     33  C   UNL     1       0.829   3.827   2.393  0.00  0.00    +0.339 C 
ATOM     34  O   UNL     1       0.146   3.782   3.397  0.00  0.00    -0.245 OA
BRANCH  33  35
ATOM     35  O   UNL     1       1.987   4.514   2.397  0.00  0.00    -0.464 OA
ATOM     36  C   UNL     1       2.356   5.177   3.635  0.00  0.00    +0.280 C 
ENDBRANCH  33  35
ENDBRANCH  25  33
ENDBRANCH   5  23
TORSDOF 8
