REMARK  Name = ZINC39228129
REMARK  3 active torsions:
REMARK  status: ('A' for Active; 'I' for Inactive)
REMARK    1  A    between atoms: C_8  and  N_10
REMARK    2  A    between atoms: C_11  and  C_13
REMARK    3  A    between atoms: C_19  and  C_21
REMARK                            x       y       z     vdW  Elec       q    Type
REMARK                         _______ _______ _______ _____ _____    ______ ____
ROOT
ATOM      1  C   UNL     1       5.382  -5.526   0.470  0.00  0.00    +0.087 C 
ATOM      2  C   UNL     1       5.909  -5.050   1.825  0.00  0.00    +0.013 C 
ATOM      3  C   UNL     1       6.586  -3.688   1.659  0.00  0.00    +0.001 C 
ATOM      4  C   UNL     1       7.750  -3.813   0.674  0.00  0.00    +0.001 C 
ATOM      5  C   UNL     1       7.223  -4.289  -0.681  0.00  0.00    +0.013 C 
ATOM      6  C   UNL     1       6.546  -5.651  -0.515  0.00  0.00    +0.087 C 
ENDROOT
BRANCH   6   7
ATOM      7  C   UNL     1       6.027  -6.120  -1.849  0.00  0.00    +0.220 C 
ATOM      8  O   UNL     1       5.860  -5.324  -2.749  0.00  0.00    -0.275 OA
ATOM      9  N   UNL     1       5.747  -7.424  -2.043  0.00  0.00    -0.295 N 
ATOM     10  C   UNL     1       5.351  -7.922  -3.369  0.00  0.00    +0.113 C 
ATOM     11  C   UNL     1       6.422  -8.895  -3.876  0.00  0.00    +0.056 C 
ATOM     12  C   UNL     1       6.797  -9.836  -2.760  0.00  0.00    -0.016 A 
ATOM     13  C   UNL     1       7.479 -11.111  -2.852  0.00  0.00    +0.003 A 
ATOM     14  C   UNL     1       7.978 -11.843  -3.933  0.00  0.00    +0.010 A 
ATOM     15  C   UNL     1       8.580 -13.043  -3.645  0.00  0.00    +0.001 A 
ATOM     16  C   UNL     1       8.694 -13.518  -2.349  0.00  0.00    +0.002 A 
ATOM     17  C   UNL     1       8.209 -12.813  -1.260  0.00  0.00    +0.026 A 
ATOM     18  C   UNL     1       7.593 -11.592  -1.522  0.00  0.00    +0.047 A 
ATOM     19  N   UNL     1       7.018 -10.662  -0.704  0.00  0.00    -0.356 N 
ATOM     20  C   UNL     1       6.544  -9.618  -1.451  0.00  0.00    +0.038 A 
ATOM     21  H   UNL     1       6.955 -10.732   0.262  0.00  0.00    +0.166 HD
ATOM     22  C   UNL     1       5.838  -8.389  -0.934  0.00  0.00    +0.161 C 
ENDBRANCH   6   7
BRANCH   1  24
ATOM     23  N   UNL     1       3.267  -4.255   0.647  0.00  0.00    -0.312 N 
ATOM     24  C   UNL     1       4.382  -4.529  -0.058  0.00  0.00    +0.217 C 
ATOM     25  O   UNL     1       4.581  -3.974  -1.118  0.00  0.00    -0.275 OA
ATOM     26  H   UNL     1       3.108  -4.699   1.495  0.00  0.00    +0.149 HD
BRANCH  23  34
ATOM     27  C   UNL     1      -1.409  -0.510   1.220  0.00  0.00    +0.000 A 
ATOM     28  C   UNL     1      -0.427   0.463   1.199  0.00  0.00    +0.000 A 
ATOM     29  C   UNL     1       0.895   0.105   1.024  0.00  0.00    +0.004 A 
ATOM     30  C   UNL     1       1.242  -1.227   0.871  0.00  0.00    -0.042 A 
ATOM     31  C   UNL     1       0.261  -2.200   0.893  0.00  0.00    -0.042 A 
ATOM     32  C   UNL     1      -1.065  -1.839   1.068  0.00  0.00    +0.004 A 
ATOM     33  C   UNL     1       0.889  -3.565   0.706  0.00  0.00    +0.058 C 
ATOM     34  C   UNL     1       2.295  -3.287   0.134  0.00  0.00    +0.082 C 
ATOM     35  C   UNL     1       2.597  -1.871   0.669  0.00  0.00    +0.058 C 
ENDBRANCH  23  34
ENDBRANCH   1  24
TORSDOF 3
