REMARK  Name = ZINC00917055
REMARK  9 active torsions:
REMARK  status: ('A' for Active; 'I' for Inactive)
REMARK    1  A    between atoms: C_1  and  O_2
REMARK    2  A    between atoms: O_2  and  C_3
REMARK    3  A    between atoms: C_8  and  C_15
REMARK    4  A    between atoms: C_15  and  N_16
REMARK    5  A    between atoms: N_16  and  C_17
REMARK    6  A    between atoms: N_16  and  S_27
REMARK    7  A    between atoms: C_17  and  C_18
REMARK    8  A    between atoms: S_27  and  C_30
REMARK    9  A    between atoms: C_35  and  C_36
REMARK                            x       y       z     vdW  Elec       q    Type
REMARK                         _______ _______ _______ _____ _____    ______ ____
ROOT
ATOM      1  N   UNL     1       6.084  -1.099   0.835  0.00  0.00    -0.168 NA
ENDROOT
BRANCH   1   2
ATOM      2  S   UNL     1       6.976   0.164   0.242  0.00  0.00    +0.062 S 
ATOM      3  O   UNL     1       7.296  -0.162  -1.104  0.00  0.00    -0.153 OA
ATOM      4  O   UNL     1       6.282   1.352   0.594  0.00  0.00    -0.153 OA
BRANCH   2   5
ATOM      5  C   UNL     1       8.499   0.188   1.129  0.00  0.00    +0.117 A 
ATOM      6  C   UNL     1       8.870  -0.902   1.895  0.00  0.00    +0.029 A 
ATOM      7  C   UNL     1      10.066  -0.884   2.587  0.00  0.00    +0.002 A 
ATOM      8  C   UNL     1      10.887   0.226   2.521  0.00  0.00    +0.001 A 
ATOM      9  C   UNL     1      10.513   1.318   1.760  0.00  0.00    +0.014 A 
ATOM     10  C   UNL     1       9.319   1.298   1.064  0.00  0.00    +0.081 A 
BRANCH  10  11
ATOM     11  C   UNL     1       8.911   2.488   0.234  0.00  0.00    +0.419 C 
ATOM     12  F   UNL     1       9.955   3.419   0.209  0.00  0.00    -0.166 F 
ATOM     13  F   UNL     1       8.627   2.072  -1.071  0.00  0.00    -0.166 F 
ATOM     14  F   UNL     1       7.773   3.079   0.793  0.00  0.00    -0.166 F 
ENDBRANCH  10  11
ENDBRANCH   2   5
ENDBRANCH   1   2
BRANCH   1  15
ATOM     15  C   UNL     1       6.296  -2.453   0.318  0.00  0.00    +0.150 C 
BRANCH  15  21
ATOM     16  C   UNL     1       2.565  -3.436  -4.904  0.00  0.00    +0.122 A 
ATOM     17  C   UNL     1       3.800  -2.941  -5.321  0.00  0.00    +0.046 A 
ATOM     18  C   UNL     1       4.773  -2.648  -4.411  0.00  0.00    +0.013 A 
ATOM     19  C   UNL     1       4.531  -2.846  -3.046  0.00  0.00    -0.001 A 
ATOM     20  C   UNL     1       5.554  -2.543  -2.046  0.00  0.00    +0.020 A 
ATOM     21  C   UNL     1       5.264  -2.755  -0.737  0.00  0.00    +0.033 A 
ATOM     22  C   UNL     1       4.004  -3.264  -0.362  0.00  0.00    +0.254 A 
ATOM     23  O   UNL     1       3.767  -3.452   0.819  0.00  0.00    -0.268 OA
ATOM     24  N   UNL     1       3.055  -3.541  -1.273  0.00  0.00    -0.322 N 
ATOM     25  H   UNL     1       2.169  -3.893  -0.970  0.00  0.00    +0.169 HD
ATOM     26  C   UNL     1       3.285  -3.347  -2.618  0.00  0.00    +0.053 A 
ATOM     27  C   UNL     1       2.307  -3.640  -3.559  0.00  0.00    +0.072 A 
BRANCH  16  29
ATOM     28  C   UNL     1       1.938  -3.491  -7.195  0.00  0.00    +0.277 C 
ATOM     29  O   UNL     1       1.609  -3.723  -5.824  0.00  0.00    -0.495 OA
ENDBRANCH  16  29
ENDBRANCH  15  21
ENDBRANCH   1  15
BRANCH   1  30
ATOM     30  C   UNL     1       5.082  -0.862   1.877  0.00  0.00    +0.145 C 
BRANCH  30  31
ATOM     31  C   UNL     1       5.688  -1.139   3.229  0.00  0.00    -0.028 A 
ATOM     32  C   UNL     1       6.394  -0.147   3.885  0.00  0.00    +0.009 A 
ATOM     33  C   UNL     1       6.952  -0.397   5.125  0.00  0.00    +0.050 A 
ATOM     34  C   UNL     1       6.804  -1.642   5.714  0.00  0.00    +0.166 A 
ATOM     35  C   UNL     1       6.092  -2.640   5.054  0.00  0.00    +0.167 A 
ATOM     36  C   UNL     1       5.536  -2.383   3.811  0.00  0.00    +0.054 A 
ATOM     37  O   UNL     1       6.089  -3.761   5.832  0.00  0.00    -0.453 OA
ATOM     38  C   UNL     1       6.455  -3.314   7.151  0.00  0.00    +0.466 C 
ATOM     39  O   UNL     1       7.247  -2.138   6.906  0.00  0.00    -0.453 OA
ENDBRANCH  30  31
ENDBRANCH   1  30
TORSDOF 8
