REMARK  Name = ZINC41549438
REMARK  6 active torsions:
REMARK  status: ('A' for Active; 'I' for Inactive)
REMARK    1  A    between atoms: C_1  and  C_2
REMARK    2  A    between atoms: C_2  and  C_4
REMARK    3  A    between atoms: C_2  and  N_11
REMARK    4  A    between atoms: C_12  and  N_16
REMARK    5  A    between atoms: C_17  and  C_19
REMARK    6  A    between atoms: C_19  and  C_31
REMARK                            x       y       z     vdW  Elec       q    Type
REMARK                         _______ _______ _______ _____ _____    ______ ____
ROOT
ATOM      1  N   UNL     1      -1.151  -1.753  -2.200  0.00  0.00    -0.267 N 
ATOM      2  C   UNL     1      -1.556  -2.521  -3.231  0.00  0.00    +0.271 C 
ATOM      3  O   UNL     1      -0.787  -2.779  -4.133  0.00  0.00    -0.270 OA
ATOM      4  H   UNL     1      -1.766  -1.546  -1.479  0.00  0.00    +0.156 HD
ENDROOT
BRANCH   2   5
ATOM      5  C   UNL     1      -2.963  -3.058  -3.263  0.00  0.00    +0.258 C 
ATOM      6  C   UNL     1      -3.004  -4.309  -4.105  0.00  0.00    +0.270 C 
ATOM      7  O   UNL     1      -3.274  -4.239  -5.286  0.00  0.00    -0.271 OA
ATOM      8  N   UNL     1      -2.739  -5.505  -3.540  0.00  0.00    -0.279 N 
ATOM      9  C   UNL     1      -2.554  -5.580  -2.153  0.00  0.00    +0.077 A 
ATOM     10  C   UNL     1      -2.059  -6.736  -1.570  0.00  0.00    +0.047 A 
ATOM     11  C   UNL     1      -1.870  -6.790  -0.200  0.00  0.00    +0.043 A 
ATOM     12  C   UNL     1      -2.172  -5.693   0.587  0.00  0.00    +0.024 A 
ATOM     13  C   UNL     1      -2.671  -4.539   0.011  0.00  0.00    +0.049 A 
ATOM     14  C   UNL     1      -2.868  -4.480  -1.358  0.00  0.00    +0.144 A 
ATOM     15  O   UNL     1      -3.387  -3.361  -1.932  0.00  0.00    -0.465 OA
ATOM     16 CL   UNL     1      -1.253  -8.238   0.532  0.00  0.00    -0.083 Cl
ATOM     17  C   UNL     1      -3.896  -2.007  -3.868  0.00  0.00    +0.076 C 
ATOM     18  H   UNL     1      -2.677  -6.303  -4.088  0.00  0.00    +0.155 HD
ENDBRANCH   2   5
BRANCH   1  20
ATOM     19  N   UNL     1       0.688  -0.476  -1.203  0.00  0.00    -0.243 N 
ATOM     20  C   UNL     1       0.151  -1.255  -2.171  0.00  0.00    +0.124 A 
ATOM     21  C   UNL     1       1.114  -1.465  -3.110  0.00  0.00    +0.065 A 
ATOM     22  C   UNL     1       2.268  -0.792  -2.698  0.00  0.00    +0.136 A 
ATOM     23  N   UNL     1       2.013  -0.197  -1.561  0.00  0.00    -0.177 NA
BRANCH  19  25
ATOM     24  C   UNL     1      -0.019   1.526   0.010  0.00  0.00    +0.038 C 
ATOM     25  C   UNL     1       0.002  -0.004   0.002  0.00  0.00    +0.136 C 
BRANCH  25  26
ATOM     26  C   UNL     1       0.731  -0.503   1.223  0.00  0.00    -0.023 A 
ATOM     27  C   UNL     1       2.050  -0.148   1.434  0.00  0.00    +0.007 A 
ATOM     28  C   UNL     1       2.719  -0.605   2.553  0.00  0.00    +0.020 A 
ATOM     29  C   UNL     1       2.068  -1.419   3.463  0.00  0.00    +0.041 A 
ATOM     30  C   UNL     1       0.748  -1.775   3.252  0.00  0.00    +0.020 A 
ATOM     31  C   UNL     1       0.078  -1.312   2.135  0.00  0.00    +0.007 A 
ATOM     32 CL   UNL     1       2.908  -1.995   4.869  0.00  0.00    -0.084 Cl
ENDBRANCH  25  26
ENDBRANCH  19  25
ENDBRANCH   1  20
TORSDOF 4
