REMARK  Name = ZINC08720963
REMARK  9 active torsions:
REMARK  status: ('A' for Active; 'I' for Inactive)
REMARK    1  A    between atoms: C_1  and  C_2
REMARK    2  A    between atoms: C_5  and  C_33
REMARK    3  A    between atoms: C_6  and  N_8
REMARK    4  A    between atoms: C_9  and  C_26
REMARK    5  A    between atoms: C_12  and  S_13
REMARK    6  A    between atoms: S_13  and  C_14
REMARK    7  A    between atoms: C_14  and  C_15
REMARK    8  A    between atoms: N_17  and  C_18
REMARK    9  A    between atoms: C_19  and  C_23
REMARK                            x       y       z     vdW  Elec       q    Type
REMARK                         _______ _______ _______ _____ _____    ______ ____
ROOT
ATOM      1  N   UNL     1      -5.381   1.509  -0.121  0.00  0.00    -0.270 N 
ATOM      2  C   UNL     1      -6.073   2.700  -0.121  0.00  0.00    +0.171 A 
ATOM      3  N   UNL     1      -5.196   3.654   0.093  0.00  0.00    -0.128 NA
ATOM      4  N   UNL     1      -4.022   3.150   0.230  0.00  0.00    -0.122 NA
ATOM      5  C   UNL     1      -4.075   1.842   0.112  0.00  0.00    +0.197 A 
ENDROOT
BRANCH   1  11
ATOM      6  C   UNL     1      -7.194  -2.656   1.764  0.00  0.00    +0.044 C 
ATOM      7  C   UNL     1      -6.792  -1.816   0.580  0.00  0.00    -0.048 A 
ATOM      8  C   UNL     1      -6.942  -2.312  -0.702  0.00  0.00    +0.004 A 
ATOM      9  C   UNL     1      -6.575  -1.544  -1.792  0.00  0.00    +0.005 A 
ATOM     10  C   UNL     1      -6.063  -0.275  -1.603  0.00  0.00    -0.026 A 
ATOM     11  C   UNL     1      -5.906   0.224  -0.317  0.00  0.00    +0.054 A 
ATOM     12  C   UNL     1      -6.275  -0.550   0.775  0.00  0.00    +0.030 A 
ATOM     13  C   UNL     1      -5.669   0.564  -2.791  0.00  0.00    +0.046 C 
ENDBRANCH   1  11
BRANCH   2  14
ATOM     14  C   UNL     1      -7.526   2.873  -0.329  0.00  0.00    +0.038 A 
ATOM     15  C   UNL     1      -8.434   2.078   0.373  0.00  0.00    +0.013 A 
ATOM     16  C   UNL     1      -9.789   2.244   0.175  0.00  0.00    +0.001 A 
ATOM     17  C   UNL     1     -10.250   3.197  -0.716  0.00  0.00    +0.001 A 
ATOM     18  C   UNL     1      -9.357   3.988  -1.415  0.00  0.00    +0.021 A 
ATOM     19  C   UNL     1      -7.997   3.836  -1.223  0.00  0.00    +0.052 A 
ATOM     20 CL   UNL     1      -6.878   4.835  -2.096  0.00  0.00    -0.083 Cl
ENDBRANCH   2  14
BRANCH   5  21
ATOM     21  S   UNL     1      -2.715   0.727   0.226  0.00  0.00    -0.076 S 
BRANCH  21  22
ATOM     22  C   UNL     1      -1.371   1.900   0.531  0.00  0.00    +0.173 C 
BRANCH  22  23
ATOM     23  C   UNL     1      -0.071   1.150   0.666  0.00  0.00    +0.228 C 
ATOM     24  O   UNL     1      -0.055  -0.059   0.567  0.00  0.00    -0.275 OA
ATOM     25  N   UNL     1       1.075   1.823   0.893  0.00  0.00    -0.279 N 
ATOM     26  H   UNL     1       1.062   2.789   0.972  0.00  0.00    +0.155 HD
BRANCH  25  27
ATOM     27  C   UNL     1       2.272   1.133   1.012  0.00  0.00    +0.084 A 
ATOM     28  C   UNL     1       3.544   1.645   1.238  0.00  0.00    +0.065 A 
ATOM     29  C   UNL     1       4.623   0.689   1.322  0.00  0.00    +0.022 A 
ATOM     30  C   UNL     1       4.307  -0.609   1.166  0.00  0.00    +0.048 A 
ATOM     31  S   UNL     1       2.545  -0.574   0.908  0.00  0.00    -0.081 S 
BRANCH  28  32
ATOM     32  C   UNL     1       3.779   3.084   1.386  0.00  0.00    +0.244 C 
ATOM     33  O   UNL     1       2.847   3.864   1.313  0.00  0.00    -0.270 OA
ATOM     34  N   UNL     1       5.027   3.545   1.605  0.00  0.00    -0.325 N 
ATOM     35  H   UNL     1       5.769   2.924   1.663  0.00  0.00    +0.145 HD
ATOM     36  H   UNL     1       5.182   4.497   1.703  0.00  0.00    +0.145 HD
ENDBRANCH  28  32
ENDBRANCH  25  27
ENDBRANCH  22  23
ENDBRANCH  21  22
ENDBRANCH   5  21
TORSDOF 7
