REMARK  Name = ZINC66909014
REMARK  10 active torsions:
REMARK  status: ('A' for Active; 'I' for Inactive)
REMARK    1  A    between atoms: C_1  and  C_2
REMARK    2  A    between atoms: N_5  and  C_8
REMARK    3  A    between atoms: C_8  and  C_10
REMARK    4  A    between atoms: C_8  and  C_26
REMARK    5  A    between atoms: C_10  and  N_11
REMARK    6  A    between atoms: N_14  and  N_15
REMARK    7  A    between atoms: C_16  and  C_18
REMARK    8  A    between atoms: C_18  and  C_19
REMARK    9  A    between atoms: C_26  and  C_27
REMARK   10  A    between atoms: C_26  and  C_28
REMARK                            x       y       z     vdW  Elec       q    Type
REMARK                         _______ _______ _______ _____ _____    ______ ____
ROOT
ATOM      1  N   UNL     1       1.688  -3.626  -2.382  0.00  0.00    -0.300 N 
ATOM      2  C   UNL     1       2.215  -3.723  -3.619  0.00  0.00    +0.316 C 
ATOM      3  O   UNL     1       3.265  -4.311  -3.788  0.00  0.00    -0.251 OA
ATOM      4  N   UNL     1       1.577  -3.167  -4.668  0.00  0.00    -0.218 N 
ATOM      5  H   UNL     1       0.850  -3.156  -2.247  0.00  0.00    +0.150 HD
ATOM      6  H   UNL     1       1.956  -3.237  -5.558  0.00  0.00    +0.174 HD
ENDROOT
BRANCH   4   7
ATOM      7  N   UNL     1       0.367  -2.489  -4.474  0.00  0.00    -0.233 N 
ATOM      8  C   UNL     1      -0.271  -1.933  -5.523  0.00  0.00    +0.234 C 
ATOM      9  O   UNL     1       0.203  -2.021  -6.636  0.00  0.00    -0.274 OA
ATOM     10  H   UNL     1      -0.012  -2.419  -3.583  0.00  0.00    +0.173 HD
BRANCH   8  11
ATOM     11  C   UNL     1      -1.573  -1.204  -5.314  0.00  0.00    +0.135 C 
BRANCH  11  12
ATOM     12  C   UNL     1      -2.074  -0.682  -6.635  0.00  0.00    -0.003 A 
ATOM     13  C   UNL     1      -1.785   0.614  -7.021  0.00  0.00    +0.007 A 
ATOM     14  C   UNL     1      -2.244   1.093  -8.234  0.00  0.00    +0.000 A 
ATOM     15  C   UNL     1      -2.994   0.278  -9.061  0.00  0.00    +0.003 A 
ATOM     16  C   UNL     1      -3.284  -1.018  -8.678  0.00  0.00    +0.038 A 
ATOM     17  C   UNL     1      -2.820  -1.501  -7.466  0.00  0.00    +0.127 A 
ATOM     18  F   UNL     1      -3.099  -2.768  -7.091  0.00  0.00    -0.205 F 
ENDBRANCH  11  12
ENDBRANCH   8  11
ENDBRANCH   4   7
BRANCH   1  19
ATOM     19  C   UNL     1       2.381  -4.230  -1.241  0.00  0.00    +0.091 C 
BRANCH  19  20
ATOM     20  C   UNL     1       1.689  -3.809   0.057  0.00  0.00    -0.048 C 
BRANCH  20  25
ATOM     21  C   UNL     1       3.334   1.651   0.065  0.00  0.00    +0.007 C 
ATOM     22  C   UNL     1       3.119   0.186  -0.323  0.00  0.00    -0.018 C 
ATOM     23  C   UNL     1       3.701  -0.722   0.764  0.00  0.00    -0.016 C 
ATOM     24  C   UNL     1       3.413  -2.182   0.410  0.00  0.00    -0.078 C 
ATOM     25  N   UNL     1       1.963  -2.390   0.320  0.00  0.00    +0.383 N 
ATOM     26  C   UNL     1       1.409  -1.576  -0.768  0.00  0.00    -0.078 C 
ATOM     27  C   UNL     1       1.620  -0.093  -0.459  0.00  0.00    -0.016 C 
ATOM     28  H   UNL     1       1.531  -2.123   1.192  0.00  0.00    -0.081 HD
ENDBRANCH  20  25
BRANCH  20  29
ATOM     29  C   UNL     1       2.220  -4.655   1.215  0.00  0.00    -0.029 C 
ATOM     30  C   UNL     1       1.522  -4.241   2.512  0.00  0.00    +0.005 C 
ATOM     31  C   UNL     1       1.943  -6.134   0.936  0.00  0.00    +0.005 C 
ENDBRANCH  20  29
ENDBRANCH  19  20
ENDBRANCH   1  19
TORSDOF 7
