REMARK  Name = ZINC13064248
REMARK  11 active torsions:
REMARK  status: ('A' for Active; 'I' for Inactive)
REMARK    1  A    between atoms: C_1  and  C_2
REMARK    2  A    between atoms: C_2  and  C_3
REMARK    3  A    between atoms: C_3  and  C_5
REMARK    4  A    between atoms: C_3  and  N_67
REMARK    5  A    between atoms: N_9  and  C_10
REMARK    6  A    between atoms: C_15  and  C_16
REMARK    7  A    between atoms: C_15  and  N_67
REMARK    8  A    between atoms: C_23  and  C_24
REMARK    9  A    between atoms: C_23  and  N_67
REMARK   10  A    between atoms: C_29  and  O_36
REMARK   11  A    between atoms: O_36  and  C_37
REMARK                            x       y       z     vdW  Elec       q    Type
REMARK                         _______ _______ _______ _____ _____    ______ ____
ROOT
ATOM      1  N   UNL     1      -3.501   9.527   2.396  0.00  0.00    +0.392 N 
ATOM      2  H   UNL     1      -3.825   9.299   1.449  0.00  0.00    -0.080 HD
ENDROOT
BRANCH   1   3
ATOM      3  C   UNL     1      -3.649  10.980   2.618  0.00  0.00    +0.003 C 
BRANCH   3   4
ATOM      4  C   UNL     1      -3.381  11.695   1.319  0.00  0.00    +0.138 A 
ATOM      5  N   UNL     1      -2.435  11.419   0.455  0.00  0.00    -0.115 NA
ATOM      6  N   UNL     1      -2.534  12.251  -0.524  0.00  0.00    -0.023 NA
ATOM      7  N   UNL     1      -3.519  13.051  -0.306  0.00  0.00    -0.044 NA
ATOM      8  N   UNL     1      -4.070  12.737   0.818  0.00  0.00    -0.228 N 
BRANCH   8   9
ATOM      9  C   UNL     1      -5.226  13.393   1.434  0.00  0.00    +0.111 C 
ATOM     10  C   UNL     1      -6.436  13.339   0.478  0.00  0.00    +0.027 C 
ATOM     11  C   UNL     1      -7.143  14.703   0.684  0.00  0.00    +0.002 C 
ATOM     12  C   UNL     1      -5.955  15.682   0.856  0.00  0.00    +0.002 C 
ATOM     13  C   UNL     1      -4.920  14.882   1.674  0.00  0.00    +0.027 C 
ENDBRANCH   8   9
ENDBRANCH   3   4
BRANCH   3  15
ATOM     14  C   UNL     1      -3.015  10.840   5.031  0.00  0.00    +0.002 C 
ATOM     15  C   UNL     1      -2.658  11.462   3.679  0.00  0.00    -0.011 C 
ENDBRANCH   3  15
ENDBRANCH   1   3
BRANCH   1  16
ATOM     16  C   UNL     1      -4.319   8.780   3.375  0.00  0.00    -0.042 C 
BRANCH  16  17
ATOM     17  C   UNL     1      -5.774   8.966   3.033  0.00  0.00    -0.064 A 
ATOM     18  C   UNL     1      -6.517   9.938   3.677  0.00  0.00    +0.004 A 
ATOM     19  C   UNL     1      -7.851  10.112   3.361  0.00  0.00    +0.038 A 
ATOM     20  C   UNL     1      -8.446   9.305   2.406  0.00  0.00    +0.123 A 
ATOM     21  C   UNL     1      -7.703   8.328   1.766  0.00  0.00    +0.038 A 
ATOM     22  C   UNL     1      -6.368   8.159   2.080  0.00  0.00    +0.004 A 
ATOM     23  F   UNL     1      -9.752   9.471   2.099  0.00  0.00    -0.205 F 
ENDBRANCH  16  17
ENDBRANCH   1  16
BRANCH   1  24
ATOM     24  C   UNL     1      -2.080   9.138   2.524  0.00  0.00    -0.036 C 
BRANCH  24  25
ATOM     25  C   UNL     1      -1.910   7.741   1.987  0.00  0.00    +0.001 A 
ATOM     26  C   UNL     1      -1.534   7.554   0.696  0.00  0.00    +0.017 A 
ATOM     27  C   UNL     1      -1.378   6.186   0.205  0.00  0.00    -0.001 A 
ATOM     28  C   UNL     1      -0.993   5.932  -1.117  0.00  0.00    +0.013 A 
ATOM     29  C   UNL     1      -0.849   4.645  -1.546  0.00  0.00    +0.046 A 
ATOM     30  C   UNL     1      -1.094   3.579  -0.682  0.00  0.00    +0.122 A 
ATOM     31  C   UNL     1      -1.476   3.809   0.629  0.00  0.00    +0.072 A 
ATOM     32  C   UNL     1      -1.621   5.112   1.085  0.00  0.00    +0.053 A 
ATOM     33  N   UNL     1      -2.001   5.370   2.385  0.00  0.00    -0.322 N 
ATOM     34  H   UNL     1      -2.168   4.631   2.990  0.00  0.00    +0.169 HD
ATOM     35  C   UNL     1      -2.141   6.633   2.827  0.00  0.00    +0.251 A 
ATOM     36  O   UNL     1      -2.478   6.823   3.983  0.00  0.00    -0.268 OA
BRANCH  30  37
ATOM     37  O   UNL     1      -0.951   2.304  -1.127  0.00  0.00    -0.495 OA
ATOM     38  C   UNL     1      -0.555   2.134  -2.490  0.00  0.00    +0.277 C 
ENDBRANCH  30  37
ENDBRANCH  24  25
ENDBRANCH   1  24
TORSDOF 9
