REMARK  Name = ZINC09222088
REMARK  11 active torsions:
REMARK  status: ('A' for Active; 'I' for Inactive)
REMARK    1  A    between atoms: C_1  and  C_2
REMARK    2  A    between atoms: C_2  and  C_3
REMARK    3  A    between atoms: C_3  and  C_5
REMARK    4  A    between atoms: C_3  and  C_6
REMARK    5  A    between atoms: C_9  and  S_12
REMARK    6  A    between atoms: S_12  and  N_15
REMARK    7  A    between atoms: C_21  and  C_23
REMARK    8  A    between atoms: C_23  and  C_24
REMARK    9  A    between atoms: C_24  and  C_25
REMARK   10  A    between atoms: C_26  and  C_36
REMARK   11  A    between atoms: C_33  and  C_34
REMARK                            x       y       z     vdW  Elec       q    Type
REMARK                         _______ _______ _______ _____ _____    ______ ____
ROOT
ATOM      1  N   UNL     1      -0.137  -0.282  -4.686  0.00  0.00    -0.174 NA
ATOM      2  C   UNL     1      -1.341   0.545  -4.521  0.00  0.00    +0.128 C 
ATOM      3  C   UNL     1      -0.989   1.752  -3.643  0.00  0.00    +0.125 C 
ATOM      4  N   UNL     1      -0.288   1.272  -2.443  0.00  0.00    -0.299 N 
ATOM      5  C   UNL     1       0.919   0.451  -2.609  0.00  0.00    +0.125 C 
ATOM      6  C   UNL     1       0.564  -0.761  -3.487  0.00  0.00    +0.128 C 
ATOM      7  C   UNL     1      -0.742   1.585  -1.213  0.00  0.00    +0.216 C 
ATOM      8  O   UNL     1      -1.736   2.268  -1.088  0.00  0.00    -0.276 OA
ENDROOT
BRANCH   1   9
ATOM      9  S   UNL     1       0.420  -0.666  -6.198  0.00  0.00    +0.061 S 
ATOM     10  O   UNL     1       1.182  -1.857  -6.059  0.00  0.00    -0.153 OA
ATOM     11  O   UNL     1      -0.693  -0.572  -7.077  0.00  0.00    -0.153 OA
BRANCH   9  15
ATOM     12  C   UNL     1       3.317   2.588  -7.425  0.00  0.00    -0.044 A 
ATOM     13  C   UNL     1       3.776   1.474  -6.748  0.00  0.00    +0.006 A 
ATOM     14  C   UNL     1       2.891   0.480  -6.374  0.00  0.00    +0.029 A 
ATOM     15  C   UNL     1       1.548   0.601  -6.676  0.00  0.00    +0.105 A 
ATOM     16  C   UNL     1       1.090   1.713  -7.357  0.00  0.00    +0.029 A 
ATOM     17  C   UNL     1       1.974   2.709  -7.727  0.00  0.00    +0.006 A 
BRANCH  12  18
ATOM     18  C   UNL     1       4.282   3.672  -7.834  0.00  0.00    +0.016 C 
ATOM     19  C   UNL     1       4.258   3.829  -9.355  0.00  0.00    +0.012 C 
BRANCH  18  21
ATOM     20  C   UNL     1       4.919   6.063  -7.491  0.00  0.00    +0.004 C 
ATOM     21  C   UNL     1       3.872   4.993  -7.178  0.00  0.00    +0.004 C 
ENDBRANCH  18  21
ENDBRANCH  12  18
ENDBRANCH   9  15
ENDBRANCH   1   9
BRANCH   7  22
ATOM     22  C   UNL     1      -0.013   1.086   0.008  0.00  0.00    +0.101 C 
BRANCH  22  23
ATOM     23  C   UNL     1      -0.729   1.579   1.267  0.00  0.00    +0.048 C 
BRANCH  23  24
ATOM     24  C   UNL     1       0.000   1.080   2.488  0.00  0.00    -0.005 A 
ATOM     25  C   UNL     1      -0.345  -0.147   3.066  0.00  0.00    +0.047 A 
ATOM     26  N   UNL     1       0.296  -0.583   4.127  0.00  0.00    -0.216 NA
ATOM     27  C   UNL     1       1.278   0.138   4.680  0.00  0.00    +0.255 A 
ATOM     28  N   UNL     1       2.059  -0.074   5.735  0.00  0.00    -0.176 NA
ATOM     29  C   UNL     1       2.895   0.950   5.886  0.00  0.00    +0.234 A 
ATOM     30  N   UNL     1       2.676   1.839   4.939  0.00  0.00    -0.128 NA
ATOM     31  N   UNL     1       1.635   1.342   4.144  0.00  0.00    -0.199 N 
ATOM     32  C   UNL     1       0.996   1.819   3.043  0.00  0.00    +0.048 A 
ATOM     33  C   UNL     1       1.386   3.147   2.448  0.00  0.00    +0.066 C 
ATOM     34  N   UNL     1       3.854   1.063   6.889  0.00  0.00    -0.326 N 
ATOM     35  C   UNL     1      -1.452  -0.975   2.465  0.00  0.00    +0.066 C 
ATOM     36  H   UNL     1       4.426   1.846   6.927  0.00  0.00    +0.145 HD
ATOM     37  H   UNL     1       3.951   0.360   7.550  0.00  0.00    +0.145 HD
ENDBRANCH  23  24
ENDBRANCH  22  23
ENDBRANCH   7  22
TORSDOF 7
