REMARK  Name = ZINC09478628
REMARK  10 active torsions:
REMARK  status: ('A' for Active; 'I' for Inactive)
REMARK    1  A    between atoms: C_1  and  C_2
REMARK    2  A    between atoms: C_2  and  C_3
REMARK    3  A    between atoms: C_2  and  C_4
REMARK    4  A    between atoms: N_6  and  C_7
REMARK    5  A    between atoms: C_10  and  C_13
REMARK    6  A    between atoms: C_13  and  C_15
REMARK    7  A    between atoms: C_15  and  S_16
REMARK    8  A    between atoms: S_16  and  C_17
REMARK    9  A    between atoms: C_20  and  C_25
REMARK   10  A    between atoms: N_21  and  C_22
REMARK                            x       y       z     vdW  Elec       q    Type
REMARK                         _______ _______ _______ _____ _____    ______ ____
ROOT
ATOM      1  C   UNL     1      -5.784   8.532   0.200  0.00  0.00    +0.193 A 
ATOM      2  N   UNL     1      -4.664   9.196   0.034  0.00  0.00    -0.122 NA
ATOM      3  N   UNL     1      -4.896  10.459   0.023  0.00  0.00    -0.128 NA
ATOM      4  C   UNL     1      -6.180  10.681   0.191  0.00  0.00    +0.167 A 
ATOM      5  N   UNL     1      -6.789   9.454   0.310  0.00  0.00    -0.299 N 
ENDROOT
BRANCH   4   6
ATOM      6  C   UNL     1      -6.844  12.000   0.243  0.00  0.00    +0.044 A 
ATOM      7  C   UNL     1      -8.181  12.234   0.286  0.00  0.00    +0.095 A 
ATOM      8  N   UNL     1      -8.412  13.578   0.327  0.00  0.00    -0.360 N 
ATOM      9  H   UNL     1      -9.290  13.989   0.362  0.00  0.00    +0.165 HD
ATOM     10  C   UNL     1      -7.218  14.267   0.311  0.00  0.00    +0.047 A 
ATOM     11  C   UNL     1      -6.184  13.316   0.264  0.00  0.00    +0.010 A 
ATOM     12  C   UNL     1      -4.855  13.732   0.232  0.00  0.00    +0.011 A 
ATOM     13  C   UNL     1      -4.560  15.078   0.258  0.00  0.00    +0.001 A 
ATOM     14  C   UNL     1      -5.580  16.017   0.311  0.00  0.00    +0.002 A 
ATOM     15  C   UNL     1      -6.899  15.621   0.337  0.00  0.00    +0.026 A 
ENDBRANCH   4   6
BRANCH   5  16
ATOM     16  C   UNL     1      -8.216   9.189   0.511  0.00  0.00    +0.091 C 
ATOM     17  C   UNL     1      -8.615   7.787   0.978  0.00  0.00    +0.027 C 
ATOM     18  C   UNL     1      -8.900   8.226  -0.461  0.00  0.00    +0.027 C 
ENDBRANCH   5  16
BRANCH   1  19
ATOM     19  S   UNL     1      -5.960   6.780   0.276  0.00  0.00    -0.078 S 
BRANCH  19  20
ATOM     20  C   UNL     1      -4.234   6.282   0.056  0.00  0.00    +0.157 C 
BRANCH  20  21
ATOM     21  C   UNL     1      -4.138   4.778   0.088  0.00  0.00    +0.173 C 
ATOM     22  O   UNL     1      -5.138   4.109   0.244  0.00  0.00    -0.291 OA
BRANCH  21  26
ATOM     23  C   UNL     1      -0.375   2.887  -0.370  0.00  0.00    +0.033 A 
ATOM     24  C   UNL     1      -0.461   4.276  -0.394  0.00  0.00    +0.024 A 
ATOM     25  C   UNL     1      -1.677   4.892  -0.252  0.00  0.00    +0.013 A 
ATOM     26  C   UNL     1      -2.833   4.122  -0.071  0.00  0.00    +0.018 A 
ATOM     27  C   UNL     1      -2.741   2.725  -0.042  0.00  0.00    +0.013 A 
ATOM     28  C   UNL     1      -1.522   2.117  -0.190  0.00  0.00    +0.024 A 
BRANCH  23  31
ATOM     29  C   UNL     1       1.970   2.834  -0.006  0.00  0.00    +0.220 C 
ATOM     30  O   UNL     1       1.903   3.925   0.519  0.00  0.00    -0.275 OA
ATOM     31  N   UNL     1       0.862   2.265  -0.521  0.00  0.00    -0.285 N 
ATOM     32  H   UNL     1       0.927   1.424  -1.000  0.00  0.00    +0.155 HD
BRANCH  29  34
ATOM     33  C   UNL     1       4.378   2.973   0.569  0.00  0.00    +0.017 C 
ATOM     34  C   UNL     1       3.292   2.115  -0.084  0.00  0.00    +0.069 C 
ATOM     35  C   UNL     1       3.189   0.777   0.651  0.00  0.00    +0.017 C 
ENDBRANCH  29  34
ENDBRANCH  23  31
ENDBRANCH  21  26
ENDBRANCH  20  21
ENDBRANCH  19  20
ENDBRANCH   1  19
TORSDOF 8
