REMARK  Name = ZINC33814017
REMARK  11 active torsions:
REMARK  status: ('A' for Active; 'I' for Inactive)
REMARK    1  A    between atoms: C_1  and  C_2
REMARK    2  A    between atoms: C_3  and  C_11
REMARK    3  A    between atoms: C_11  and  C_12
REMARK    4  A    between atoms: C_13  and  C_26
REMARK    5  A    between atoms: C_23  and  C_25
REMARK    6  A    between atoms: C_30  and  O_32
REMARK    7  A    between atoms: O_32  and  C_33
REMARK    8  A    between atoms: C_33  and  C_34
REMARK    9  A    between atoms: C_34  and  C_35
REMARK   10  A    between atoms: C_35  and  C_36
REMARK   11  A    between atoms: C_35  and  C_37
REMARK                            x       y       z     vdW  Elec       q    Type
REMARK                         _______ _______ _______ _____ _____    ______ ____
ROOT
ATOM      1  C   UNL     1       0.225   5.865   1.420  0.00  0.00    +0.078 C 
ATOM      2  C   UNL     1      -0.065   5.351   0.029  0.00  0.00    +0.152 C 
ATOM      3  N   UNL     1       0.998   5.869  -0.837  0.00  0.00    -0.230 N 
ATOM      4  C   UNL     1       1.840   6.607  -0.094  0.00  0.00    +0.293 C 
ATOM      5  O   UNL     1       2.827   7.175  -0.517  0.00  0.00    -0.266 OA
ATOM      6  C   UNL     1       1.389   6.627   1.320  0.00  0.00    +0.250 C 
ATOM      7  O   UNL     1       1.942   7.211   2.237  0.00  0.00    -0.282 OA
ATOM      8  C   UNL     1       1.116   5.636  -2.201  0.00  0.00    +0.191 A 
ATOM      9  N   UNL     1       0.344   4.929  -3.016  0.00  0.00    -0.125 NA
ATOM     10  N   UNL     1       0.600   4.820  -4.246  0.00  0.00    -0.145 NA
ATOM     11  C   UNL     1       1.647   5.399  -4.800  0.00  0.00    +0.101 A 
ATOM     12  S   UNL     1       2.350   6.209  -3.366  0.00  0.00    -0.035 S 
ATOM     13  C   UNL     1       2.116   5.387  -6.232  0.00  0.00    +0.075 C 
ENDROOT
BRANCH   2  14
ATOM     14  C   UNL     1      -0.049   3.844   0.022  0.00  0.00    -0.019 A 
ATOM     15  C   UNL     1       1.156   3.166   0.007  0.00  0.00    +0.006 A 
ATOM     16  C   UNL     1       1.174   1.783   0.000  0.00  0.00    +0.004 A 
ATOM     17  C   UNL     1      -0.013   1.076   0.008  0.00  0.00    +0.045 A 
ATOM     18  C   UNL     1      -1.223   1.754   0.017  0.00  0.00    +0.121 A 
ATOM     19  C   UNL     1      -1.238   3.141   0.029  0.00  0.00    +0.051 A 
BRANCH  18  20
ATOM     20  O   UNL     1      -2.391   1.060   0.019  0.00  0.00    -0.492 OA
BRANCH  20  21
ATOM     21  C   UNL     1      -2.299  -0.366   0.011  0.00  0.00    +0.229 C 
BRANCH  21  22
ATOM     22  C   UNL     1      -3.706  -0.968   0.014  0.00  0.00    +0.044 C 
BRANCH  22  23
ATOM     23  C   UNL     1      -3.607  -2.495   0.006  0.00  0.00    -0.014 C 
ATOM     24  C   UNL     1      -5.008  -3.097   0.135  0.00  0.00    +0.007 C 
ATOM     25  C   UNL     1      -2.972  -2.957  -1.307  0.00  0.00    +0.007 C 
ENDBRANCH  22  23
ENDBRANCH  21  22
ENDBRANCH  20  21
ENDBRANCH  18  20
ENDBRANCH   2  14
BRANCH   1  26
ATOM     26  C   UNL     1      -0.521   5.627   2.571  0.00  0.00    +0.213 C 
ATOM     27  O   UNL     1      -1.635   4.863   2.509  0.00  0.00    -0.285 OA
BRANCH  26  30
ATOM     28  C   UNL     1       1.990   4.742   4.202  0.00  0.00    +0.068 C 
ATOM     29  C   UNL     1       0.995   5.816   4.556  0.00  0.00    +0.068 A 
ATOM     30  C   UNL     1      -0.116   6.183   3.801  0.00  0.00    +0.116 A 
ATOM     31  N   UNL     1      -0.745   7.197   4.501  0.00  0.00    -0.296 N 
ATOM     32  C   UNL     1      -1.865   7.926   4.250  0.00  0.00    +0.093 A 
ATOM     33  C   UNL     1      -2.274   8.882   5.117  0.00  0.00    +0.018 A 
ATOM     34  C   UNL     1      -1.544   9.129   6.287  0.00  0.00    +0.005 A 
ATOM     35  C   UNL     1      -0.419   8.402   6.545  0.00  0.00    +0.047 A 
ATOM     36  C   UNL     1      -0.011   7.414   5.633  0.00  0.00    +0.138 A 
ATOM     37  N   UNL     1       1.026   6.575   5.637  0.00  0.00    -0.232 NA
ENDBRANCH  26  30
ENDBRANCH   1  26
TORSDOF 7
