REMARK  Name = ZINC45599671
REMARK  5 active torsions:
REMARK  status: ('A' for Active; 'I' for Inactive)
REMARK    1  A    between atoms: N_12  and  C_15
REMARK    2  A    between atoms: C_15  and  C_16
REMARK    3  A    between atoms: C_16  and  O_18
REMARK    4  A    between atoms: O_18  and  C_19
REMARK    5  A    between atoms: C_19  and  C_20
REMARK                            x       y       z     vdW  Elec       q    Type
REMARK                         _______ _______ _______ _____ _____    ______ ____
ROOT
ATOM      1  O   UNL     1       4.230  -7.327   2.016  0.00  0.00    -0.455 OA
ENDROOT
BRANCH   1   2
ATOM      2  C   UNL     1       3.629  -6.127   1.956  0.00  0.00    +0.328 C 
ATOM      3  O   UNL     1       3.407  -5.511   2.971  0.00  0.00    -0.249 OA
BRANCH   2   4
ATOM      4  C   UNL     1       3.233  -5.550   0.621  0.00  0.00    +0.246 C 
BRANCH   4  16
ATOM      5  C   UNL     1      -0.238   1.581   1.724  0.00  0.00    +0.001 A 
ATOM      6  C   UNL     1       0.948   2.296   1.639  0.00  0.00    +0.004 A 
ATOM      7  C   UNL     1       2.145   1.647   1.426  0.00  0.00    +0.047 A 
ATOM      8  C   UNL     1       2.174   0.263   1.294  0.00  0.00    +0.138 A 
ATOM      9  C   UNL     1       0.972  -0.459   1.382  0.00  0.00    +0.046 A 
ATOM     10  C   UNL     1      -0.231   0.210   1.597  0.00  0.00    +0.014 A 
ATOM     11  C   UNL     1       1.342  -1.871   1.204  0.00  0.00    +0.124 A 
ATOM     12  C   UNL     1       2.722  -1.880   1.026  0.00  0.00    +0.219 A 
ATOM     13  O   UNL     1       3.179  -0.612   1.085  0.00  0.00    -0.448 OA
ATOM     14  C   UNL     1       3.359  -3.126   0.829  0.00  0.00    +0.298 A 
ATOM     15  O   UNL     1       4.566  -3.191   0.669  0.00  0.00    -0.264 OA
ATOM     16  N   UNL     1       2.601  -4.244   0.823  0.00  0.00    -0.285 N 
ATOM     17  C   UNL     1       1.259  -4.165   1.002  0.00  0.00    +0.203 A 
ATOM     18  N   UNL     1       0.655  -3.025   1.185  0.00  0.00    -0.233 NA
ENDBRANCH   4  16
ENDBRANCH   2   4
ENDBRANCH   1   2
BRANCH   1  19
ATOM     19  C   UNL     1       4.578  -7.813   3.314  0.00  0.00    +0.308 C 
BRANCH  19  20
ATOM     20  C   UNL     1       5.237  -9.162   3.184  0.00  0.00    +0.170 A 
ATOM     21  N   UNL     1       4.489 -10.251   3.208  0.00  0.00    -0.214 NA
ATOM     22  C   UNL     1       5.007 -11.464   3.099  0.00  0.00    +0.128 A 
ATOM     23  C   UNL     1       6.415 -11.604   2.951  0.00  0.00    +0.051 A 
ATOM     24  C   UNL     1       7.202 -12.835   2.814  0.00  0.00    -0.025 A 
ATOM     25  C   UNL     1       8.536 -12.691   2.692  0.00  0.00    -0.004 A 
ATOM     26  S   UNL     1       8.822 -10.940   2.739  0.00  0.00    -0.073 S 
ATOM     27  C   UNL     1       7.145 -10.400   2.934  0.00  0.00    +0.114 A 
ATOM     28  N   UNL     1       6.547  -9.229   3.044  0.00  0.00    -0.221 NA
ATOM     29  C   UNL     1       9.567 -13.768   2.557  0.00  0.00    +0.043 C 
ATOM     30  C   UNL     1       9.131 -14.754   1.465  0.00  0.00    +0.005 C 
ATOM     31  C   UNL     1       8.290 -15.848   2.114  0.00  0.00    +0.001 C 
ATOM     32  C   UNL     1       7.497 -15.271   3.286  0.00  0.00    +0.005 C 
ATOM     33  C   UNL     1       6.525 -14.203   2.800  0.00  0.00    +0.037 C 
ATOM     34  N   UNL     1       4.191 -12.580   3.129  0.00  0.00    -0.343 N 
ATOM     35  H   UNL     1       4.468 -13.396   2.684  0.00  0.00    +0.144 HD
ATOM     36  H   UNL     1       3.341 -12.547   3.596  0.00  0.00    +0.144 HD
ENDBRANCH  19  20
ENDBRANCH   1  19
TORSDOF 5
