REMARK  Name = ZINC06653525
REMARK  7 active torsions:
REMARK  status: ('A' for Active; 'I' for Inactive)
REMARK    1  A    between atoms: C_1  and  O_2
REMARK    2  A    between atoms: O_2  and  C_3
REMARK    3  A    between atoms: C_8  and  C_9
REMARK    4  A    between atoms: C_9  and  N_45
REMARK    5  A    between atoms: C_10  and  C_11
REMARK    6  A    between atoms: C_10  and  N_45
REMARK    7  A    between atoms: C_17  and  C_22
REMARK                            x       y       z     vdW  Elec       q    Type
REMARK                         _______ _______ _______ _____ _____    ______ ____
ROOT
ATOM      1  C   UNL     1      -3.655  -1.575  -2.785  0.00  0.00    +0.094 A 
ATOM      2  N   UNL     1      -4.824  -2.215  -3.043  0.00  0.00    -0.312 N 
ATOM      3  H   UNL     1      -5.311  -2.667  -2.296  0.00  0.00    +0.170 HD
ATOM      4  C   UNL     1      -5.341  -2.253  -4.285  0.00  0.00    +0.260 A 
ATOM      5  O   UNL     1      -6.392  -2.831  -4.501  0.00  0.00    -0.267 OA
ATOM      6  C   UNL     1      -4.637  -1.604  -5.349  0.00  0.00    +0.080 A 
ATOM      7  C   UNL     1      -4.987  -1.505  -6.761  0.00  0.00    +0.004 A 
ATOM      8  C   UNL     1      -4.157  -0.830  -7.593  0.00  0.00    +0.056 A 
ATOM      9  S   UNL     1      -2.846  -0.285  -6.514  0.00  0.00    -0.076 S 
ATOM     10  C   UNL     1      -3.438  -0.969  -4.987  0.00  0.00    +0.116 A 
ATOM     11  N   UNL     1      -2.993  -0.969  -3.734  0.00  0.00    -0.229 NA
ENDROOT
BRANCH   7  12
ATOM     12  C   UNL     1      -6.227  -2.131  -7.278  0.00  0.00    -0.016 A 
ATOM     13  C   UNL     1      -6.513  -3.464  -6.983  0.00  0.00    +0.010 A 
ATOM     14  C   UNL     1      -7.671  -4.040  -7.463  0.00  0.00    +0.020 A 
ATOM     15  C   UNL     1      -8.544  -3.302  -8.243  0.00  0.00    +0.041 A 
ATOM     16  C   UNL     1      -8.262  -1.980  -8.543  0.00  0.00    +0.020 A 
ATOM     17  C   UNL     1      -7.109  -1.392  -8.065  0.00  0.00    +0.010 A 
ATOM     18 CL   UNL     1      -9.996  -4.035  -8.848  0.00  0.00    -0.084 Cl
ENDBRANCH   7  12
BRANCH   1  19
ATOM     19  C   UNL     1      -3.115  -1.559  -1.378  0.00  0.00    -0.007 C 
BRANCH  19  20
ATOM     20  N   UNL     1      -1.845  -0.808  -1.357  0.00  0.00    +0.386 N 
ATOM     21  H   UNL     1      -1.171  -1.264  -1.983  0.00  0.00    -0.085 HD
ATOM     22  H   UNL     1      -2.014   0.153  -1.676  0.00  0.00    -0.085 HD
BRANCH  20  23
ATOM     23  C   UNL     1      -1.292  -0.776   0.011  0.00  0.00    -0.043 C 
BRANCH  23  29
ATOM     24  C   UNL     1      -0.017   1.383   0.010  0.00  0.00    +0.121 A 
ATOM     25  C   UNL     1       1.177   2.091   0.002  0.00  0.00    +0.046 A 
ATOM     26  C   UNL     1       2.380   1.413  -0.013  0.00  0.00    +0.004 A 
ATOM     27  C   UNL     1       2.396   0.030  -0.021  0.00  0.00    +0.000 A 
ATOM     28  C   UNL     1       1.208  -0.677  -0.013  0.00  0.00    +0.005 A 
ATOM     29  C   UNL     1       0.002  -0.004   0.002  0.00  0.00    -0.023 A 
BRANCH  24  31
ATOM     30  C   UNL     1      -1.145   3.475   0.026  0.00  0.00    +0.277 C 
ATOM     31  O   UNL     1      -1.202   2.047   0.019  0.00  0.00    -0.495 OA
ENDBRANCH  24  31
ENDBRANCH  23  29
ENDBRANCH  20  23
ENDBRANCH  19  20
ENDBRANCH   1  19
TORSDOF 6
