REMARK  Name = ZINC08623372
REMARK  7 active torsions:
REMARK  status: ('A' for Active; 'I' for Inactive)
REMARK    1  A    between atoms: C_1  and  C_2
REMARK    2  A    between atoms: C_4  and  C_28
REMARK    3  A    between atoms: C_6  and  C_8
REMARK    4  A    between atoms: C_16  and  C_18
REMARK    5  A    between atoms: C_18  and  N_19
REMARK    6  A    between atoms: N_19  and  S_20
REMARK    7  A    between atoms: S_20  and  C_23
REMARK                            x       y       z     vdW  Elec       q    Type
REMARK                         _______ _______ _______ _____ _____    ______ ____
ROOT
ATOM      1  C   UNL     1      -1.242  -1.145  -2.450  0.00  0.00    +0.024 C 
ATOM      2  C   UNL     1      -2.061  -0.788  -1.206  0.00  0.00    -0.068 C 
ATOM      3  C   UNL     1      -3.168   1.015  -2.384  0.00  0.00    -0.078 C 
ATOM      4  C   UNL     1      -2.382   0.710  -3.662  0.00  0.00    -0.015 C 
ATOM      5  C   UNL     1      -1.016   0.128  -3.276  0.00  0.00    -0.007 C 
ATOM      6  C   UNL     1      -0.276   1.151  -2.405  0.00  0.00    -0.010 C 
ATOM      7  C   UNL     1      -1.121   1.444  -1.161  0.00  0.00    -0.053 C 
ATOM      8  N   UNL     1      -2.373   0.657  -1.190  0.00  0.00    +0.383 N 
ATOM      9  H   UNL     1      -2.920   0.871  -0.348  0.00  0.00    -0.081 HD
ENDROOT
BRANCH   1  15
ATOM     10  C   UNL     1       1.486  -3.461   0.882  0.00  0.00    +0.088 C 
ATOM     11  C   UNL     1       1.381  -2.808  -0.472  0.00  0.00    +0.127 A 
ATOM     12  N   UNL     1       2.447  -2.759  -1.243  0.00  0.00    -0.232 NA
ATOM     13  C   UNL     1       2.391  -2.189  -2.445  0.00  0.00    +0.076 A 
ATOM     14  C   UNL     1       1.179  -1.643  -2.878  0.00  0.00    +0.052 A 
ATOM     15  C   UNL     1       0.087  -1.719  -2.032  0.00  0.00    +0.047 A 
ATOM     16  N   UNL     1       0.225  -2.297  -0.849  0.00  0.00    -0.237 NA
BRANCH  13  17
ATOM     17  C   UNL     1       3.593  -2.136  -3.311  0.00  0.00    +0.014 A 
ATOM     18  C   UNL     1       3.508  -2.513  -4.651  0.00  0.00    +0.011 A 
ATOM     19  C   UNL     1       4.630  -2.461  -5.452  0.00  0.00    +0.001 A 
ATOM     20  C   UNL     1       5.839  -2.036  -4.929  0.00  0.00    +0.001 A 
ATOM     21  C   UNL     1       5.930  -1.661  -3.601  0.00  0.00    +0.016 A 
ATOM     22  C   UNL     1       4.812  -1.703  -2.791  0.00  0.00    +0.027 A 
ATOM     23 BR   UNL     1       4.937  -1.182  -0.977  0.00  0.00    -0.050 Br
ENDBRANCH  13  17
ENDBRANCH   1  15
BRANCH   7  24
ATOM     24  C   UNL     1      -0.329   1.072   0.093  0.00  0.00    +0.091 C 
BRANCH  24  25
ATOM     25  N   UNL     1      -1.179   1.238   1.275  0.00  0.00    -0.191 NA
ATOM     26  H   UNL     1      -2.002   1.749   1.213  0.00  0.00    +0.148 HD
BRANCH  25  27
ATOM     27  S   UNL     1      -0.737   0.554   2.716  0.00  0.00    +0.065 S 
ATOM     28  O   UNL     1      -1.733   0.917   3.662  0.00  0.00    -0.153 OA
ATOM     29  O   UNL     1      -0.408  -0.801   2.439  0.00  0.00    -0.153 OA
BRANCH  27  30
ATOM     30  C   UNL     1       0.755   1.339   3.230  0.00  0.00    +0.142 A 
ATOM     31  C   UNL     1       0.921   2.392   4.066  0.00  0.00    +0.036 A 
ATOM     32  C   UNL     1       2.200   2.844   4.329  0.00  0.00    +0.010 A 
ATOM     33  C   UNL     1       3.251   2.221   3.743  0.00  0.00    +0.047 A 
ATOM     34  S   UNL     1       2.440   0.948   2.789  0.00  0.00    -0.077 S 
ENDBRANCH  27  30
ENDBRANCH  25  27
ENDBRANCH  24  25
ENDBRANCH   7  24
TORSDOF 6
