REMARK  Name = ZINC17751881
REMARK  4 active torsions:
REMARK  status: ('A' for Active; 'I' for Inactive)
REMARK    1  A    between atoms: C_1  and  C_2
REMARK    2  A    between atoms: C_2  and  C_28
REMARK    3  A    between atoms: C_13  and  C_20
REMARK    4  A    between atoms: C_21  and  C_22
REMARK                            x       y       z     vdW  Elec       q    Type
REMARK                         _______ _______ _______ _____ _____    ______ ____
ROOT
ATOM      1  C   UNL     1      -0.019   1.526   0.010  0.00  0.00    +0.011 C 
ATOM      2  C   UNL     1       0.002  -0.004   0.002  0.00  0.00    -0.023 C 
ATOM      3  C   UNL     1      -1.427  -0.542   0.056  0.00  0.00    +0.058 C 
ATOM      4  C   UNL     1      -1.409  -2.061   0.066  0.00  0.00    +0.017 C 
ATOM      5  N   UNL     1      -2.474  -2.646  -0.538  0.00  0.00    -0.316 N 
ATOM      6  C   UNL     1      -2.397  -3.705  -1.435  0.00  0.00    +0.052 A 
ATOM      7  C   UNL     1      -2.771  -3.581  -2.762  0.00  0.00    +0.025 A 
ATOM      8  C   UNL     1      -2.713  -4.689  -3.590  0.00  0.00    +0.002 A 
ATOM      9  C   UNL     1      -2.290  -5.909  -3.095  0.00  0.00    +0.002 A 
ATOM     10  C   UNL     1      -1.900  -6.031  -1.772  0.00  0.00    +0.025 A 
ATOM     11  C   UNL     1      -1.935  -4.918  -0.948  0.00  0.00    +0.049 A 
ATOM     12  N   UNL     1      -1.447  -4.965   0.358  0.00  0.00    -0.332 N 
ATOM     13  C   UNL     1      -0.261  -4.229   0.737  0.00  0.00    +0.129 C 
ATOM     14  C   UNL     1      -0.400  -2.727   0.653  0.00  0.00    +0.036 C 
ATOM     15  H   UNL     1      -3.356  -2.300  -0.328  0.00  0.00    +0.152 HD
ATOM     16  C   UNL     1       0.667  -2.018   1.253  0.00  0.00    +0.163 C 
ATOM     17  O   UNL     1       1.555  -2.645   1.797  0.00  0.00    -0.292 OA
ATOM     18  C   UNL     1       0.742  -0.521   1.242  0.00  0.00    +0.086 C 
ATOM     19  C   UNL     1       0.698  -0.506  -1.264  0.00  0.00    +0.011 C 
ATOM     20  H   UNL     1      -1.911  -5.499   1.022  0.00  0.00    +0.147 HD
ENDROOT
BRANCH  13  21
ATOM     21  C   UNL     1       0.872  -4.651  -0.163  0.00  0.00    +0.000 C 
ATOM     22  C   UNL     1       1.920  -5.285   0.344  0.00  0.00    +0.006 C 
BRANCH  22  23
ATOM     23  C   UNL     1       3.031  -5.699  -0.539  0.00  0.00    -0.025 A 
ATOM     24  C   UNL     1       2.982  -5.420  -1.905  0.00  0.00    +0.008 A 
ATOM     25  C   UNL     1       4.022  -5.809  -2.724  0.00  0.00    +0.001 A 
ATOM     26  C   UNL     1       5.112  -6.476  -2.193  0.00  0.00    +0.000 A 
ATOM     27  C   UNL     1       5.167  -6.756  -0.839  0.00  0.00    +0.001 A 
ATOM     28  C   UNL     1       4.136  -6.366  -0.009  0.00  0.00    +0.008 A 
ENDBRANCH  22  23
ENDBRANCH  13  21
TORSDOF 2
