REMARK  Name = ZINC22053188
REMARK  9 active torsions:
REMARK  status: ('A' for Active; 'I' for Inactive)
REMARK    1  A    between atoms: C_1  and  C_2
REMARK    2  A    between atoms: C_2  and  C_4
REMARK    3  A    between atoms: C_2  and  N_15
REMARK    4  A    between atoms: N_18  and  S_21
REMARK    5  A    between atoms: S_21  and  C_24
REMARK    6  A    between atoms: C_27  and  C_30
REMARK    7  A    between atoms: C_30  and  C_31
REMARK    8  A    between atoms: C_30  and  C_32
REMARK    9  A    between atoms: C_30  and  C_33
REMARK                            x       y       z     vdW  Elec       q    Type
REMARK                         _______ _______ _______ _____ _____    ______ ____
ROOT
ATOM      1  N   UNL     1       2.696   3.323   3.355  0.00  0.00    +0.388 N 
ATOM      2  C   UNL     1       2.116   4.522   2.736  0.00  0.00    -0.060 C 
ATOM      3  C   UNL     1       0.971   5.042   3.612  0.00  0.00    +0.091 C 
ATOM      4  N   UNL     1       1.479   5.232   4.979  0.00  0.00    -0.180 NA
ATOM      5  C   UNL     1       2.196   4.117   5.617  0.00  0.00    +0.091 C 
ATOM      6  C   UNL     1       3.292   3.633   4.662  0.00  0.00    -0.060 C 
ATOM      7  H   UNL     1       1.881   2.604   3.522  0.00  0.00    -0.081 HD
ENDROOT
BRANCH   4   8
ATOM      8  S   UNL     1       1.250   6.664   5.780  0.00  0.00    +0.061 S 
ATOM      9  O   UNL     1       0.114   7.282   5.190  0.00  0.00    -0.153 OA
ATOM     10  O   UNL     1       1.322   6.369   7.168  0.00  0.00    -0.153 OA
BRANCH   8  11
ATOM     11  C   UNL     1       2.631   7.694   5.412  0.00  0.00    +0.105 A 
ATOM     12  C   UNL     1       3.752   7.663   6.221  0.00  0.00    +0.029 A 
ATOM     13  C   UNL     1       4.837   8.468   5.930  0.00  0.00    +0.006 A 
ATOM     14  C   UNL     1       4.799   9.310   4.834  0.00  0.00    -0.042 A 
ATOM     15  C   UNL     1       3.677   9.344   4.027  0.00  0.00    +0.006 A 
ATOM     16  C   UNL     1       2.593   8.536   4.316  0.00  0.00    +0.029 A 
BRANCH  14  17
ATOM     17  C   UNL     1       5.980  10.191   4.519  0.00  0.00    -0.013 C 
ATOM     18  C   UNL     1       5.546  11.658   4.551  0.00  0.00    +0.015 C 
ATOM     19  C   UNL     1       7.079   9.961   5.559  0.00  0.00    +0.015 C 
ATOM     20  C   UNL     1       6.516   9.848   3.127  0.00  0.00    +0.015 C 
ENDBRANCH  14  17
ENDBRANCH   8  11
ENDBRANCH   4   8
BRANCH   1  22
ATOM     21  C   UNL     1       4.183   1.394   3.096  0.00  0.00    -0.005 C 
ATOM     22  C   UNL     1       3.680   2.694   2.464  0.00  0.00    -0.004 C 
BRANCH  22  23
ATOM     23  C   UNL     1       3.034   2.391   1.137  0.00  0.00    +0.096 A 
ATOM     24  N   UNL     1       3.689   2.687   0.039  0.00  0.00    -0.235 NA
ATOM     25  C   UNL     1       3.150   2.433  -1.162  0.00  0.00    +0.078 A 
ATOM     26  C   UNL     1       3.816   2.746  -2.355  0.00  0.00    +0.028 A 
ATOM     27  C   UNL     1       3.221   2.467  -3.550  0.00  0.00    +0.002 A 
ATOM     28  C   UNL     1       1.960   1.880  -3.604  0.00  0.00    +0.001 A 
ATOM     29  C   UNL     1       1.285   1.562  -2.463  0.00  0.00    +0.015 A 
ATOM     30  C   UNL     1       1.869   1.831  -1.219  0.00  0.00    +0.065 A 
ATOM     31  C   UNL     1       1.222   1.520  -0.001  0.00  0.00    +0.259 A 
ATOM     32  N   UNL     1       1.832   1.837   1.131  0.00  0.00    -0.312 N 
ATOM     33  O   UNL     1      -0.004   0.949   0.007  0.00  0.00    -0.267 OA
ATOM     34  H   UNL     1       1.317   1.630   2.080  0.00  0.00    +0.170 HD
ENDBRANCH  22  23
ENDBRANCH   1  22
TORSDOF 5
