REMARK  Name = ZINC63294172
REMARK  12 active torsions:
REMARK  status: ('A' for Active; 'I' for Inactive)
REMARK    1  A    between atoms: C_1  and  C_2
REMARK    2  A    between atoms: C_3  and  C_19
REMARK    3  A    between atoms: C_5  and  C_7
REMARK    4  A    between atoms: C_9  and  O_17
REMARK    5  A    between atoms: C_10  and  O_15
REMARK    6  A    between atoms: C_11  and  O_13
REMARK    7  A    between atoms: O_13  and  C_14
REMARK    8  A    between atoms: O_15  and  C_16
REMARK    9  A    between atoms: O_17  and  C_18
REMARK   10  A    between atoms: N_21  and  C_22
REMARK   11  A    between atoms: C_22  and  C_23
REMARK   12  A    between atoms: C_23  and  C_24
REMARK                            x       y       z     vdW  Elec       q    Type
REMARK                         _______ _______ _______ _____ _____    ______ ____
ROOT
ATOM      1  C   UNL     1      -0.018   1.503   0.010  0.00  0.00    +0.067 C 
ATOM      2  C   UNL     1       0.002  -0.004   0.002  0.00  0.00    +0.058 A 
ATOM      3  C   UNL     1       0.006  -0.730  -1.183  0.00  0.00    +0.097 A 
ATOM      4  S   UNL     1       0.033  -2.398  -0.546  0.00  0.00    -0.062 S 
ATOM      5  C   UNL     1       0.036  -2.022   1.094  0.00  0.00    +0.109 A 
ATOM      6  N   UNL     1       0.022  -0.699   1.109  0.00  0.00    -0.243 NA
ENDROOT
BRANCH   5   7
ATOM      7  C   UNL     1       0.054  -2.948   2.244  0.00  0.00    +0.014 A 
ATOM      8  C   UNL     1       0.077  -4.328   2.031  0.00  0.00    +0.060 A 
ATOM      9  C   UNL     1       0.095  -5.193   3.109  0.00  0.00    +0.166 A 
ATOM     10  C   UNL     1       0.088  -4.690   4.407  0.00  0.00    +0.204 A 
ATOM     11  C   UNL     1       0.065  -3.315   4.622  0.00  0.00    +0.166 A 
ATOM     12  C   UNL     1       0.054  -2.446   3.547  0.00  0.00    +0.060 A 
BRANCH  11  13
ATOM     13  O   UNL     1       0.059  -2.827   5.892  0.00  0.00    -0.491 OA
ATOM     14  C   UNL     1       0.035  -1.406   6.040  0.00  0.00    +0.277 C 
ENDBRANCH  11  13
BRANCH  10  15
ATOM     15  O   UNL     1       0.105  -5.543   5.466  0.00  0.00    -0.488 OA
ATOM     16  C   UNL     1       1.386  -5.928   5.969  0.00  0.00    +0.277 C 
ENDBRANCH  10  15
BRANCH   9  17
ATOM     17  O   UNL     1       0.117  -6.537   2.902  0.00  0.00    -0.491 OA
ATOM     18  C   UNL     1       0.121  -6.984   1.545  0.00  0.00    +0.277 C 
ENDBRANCH   9  17
ENDBRANCH   5   7
BRANCH   3  19
ATOM     19  C   UNL     1      -0.007  -0.258  -2.570  0.00  0.00    +0.253 C 
ATOM     20  O   UNL     1      -0.025   0.936  -2.806  0.00  0.00    -0.270 OA
ATOM     21  N   UNL     1      -0.000  -1.145  -3.584  0.00  0.00    -0.311 N 
ATOM     22  H   UNL     1       0.014  -2.096  -3.396  0.00  0.00    +0.149 HD
BRANCH  21  23
ATOM     23  C   UNL     1      -0.014  -0.673  -4.971  0.00  0.00    +0.109 C 
BRANCH  23  24
ATOM     24  C   UNL     1      -0.002  -1.874  -5.919  0.00  0.00    +0.052 C 
BRANCH  24  25
ATOM     25  C   UNL     1      -0.016  -1.388  -7.345  0.00  0.00    -0.040 C 
ATOM     26  C   UNL     1       1.053  -1.205  -8.152  0.00  0.00    +0.000 A 
ATOM     27  C   UNL     1       2.495  -1.396  -7.951  0.00  0.00    +0.030 A 
ATOM     28  C   UNL     1       3.342  -1.121  -8.970  0.00  0.00    +0.042 A 
ATOM     29  C   UNL     1       2.877  -0.659 -10.211  0.00  0.00    +0.022 A 
ATOM     30  C   UNL     1       1.567  -0.460 -10.470  0.00  0.00    +0.027 A 
ATOM     31  C   UNL     1       0.589  -0.717  -9.471  0.00  0.00    +0.043 A 
ATOM     32  N   UNL     1      -0.717  -0.603  -9.478  0.00  0.00    -0.380 N 
ATOM     33  C   UNL     1      -1.230  -1.012  -8.166  0.00  0.00    +0.144 C 
ATOM     34 CL   UNL     1       5.047  -1.345  -8.737  0.00  0.00    -0.084 Cl
ATOM     35  H   UNL     1      -1.255  -0.302 -10.227  0.00  0.00    +0.160 HD
ENDBRANCH  24  25
ENDBRANCH  23  24
ENDBRANCH  21  23
ENDBRANCH   3  19
TORSDOF 8
