REMARK  Name = ZINC13064820
REMARK  11 active torsions:
REMARK  status: ('A' for Active; 'I' for Inactive)
REMARK    1  A    between atoms: C_1  and  C_2
REMARK    2  A    between atoms: C_2  and  C_3
REMARK    3  A    between atoms: C_3  and  C_5
REMARK    4  A    between atoms: C_3  and  N_66
REMARK    5  A    between atoms: N_9  and  C_10
REMARK    6  A    between atoms: C_15  and  C_16
REMARK    7  A    between atoms: C_15  and  N_66
REMARK    8  A    between atoms: C_21  and  C_22
REMARK    9  A    between atoms: C_21  and  N_66
REMARK   10  A    between atoms: C_25  and  C_35
REMARK   11  A    between atoms: C_27  and  C_34
REMARK                            x       y       z     vdW  Elec       q    Type
REMARK                         _______ _______ _______ _____ _____    ______ ____
ROOT
ATOM      1  N   UNL     1       2.896  -2.013   0.846  0.00  0.00    +0.392 N 
ATOM      2  H   UNL     1       3.724  -1.442   0.643  0.00  0.00    -0.080 HD
ENDROOT
BRANCH   1   3
ATOM      3  C   UNL     1       1.940  -1.886  -0.274  0.00  0.00    +0.003 C 
BRANCH   3   4
ATOM      4  C   UNL     1       1.466  -0.458  -0.356  0.00  0.00    +0.138 A 
ATOM      5  N   UNL     1       2.207   0.619  -0.258  0.00  0.00    -0.115 NA
ATOM      6  N   UNL     1       1.437   1.645  -0.379  0.00  0.00    -0.023 NA
ATOM      7  N   UNL     1       0.223   1.250  -0.551  0.00  0.00    -0.044 NA
ATOM      8  N   UNL     1       0.200  -0.040  -0.542  0.00  0.00    -0.228 N 
BRANCH   8   9
ATOM      9  C   UNL     1      -0.981  -0.890  -0.706  0.00  0.00    +0.111 C 
ATOM     10  C   UNL     1      -1.674  -0.580  -2.049  0.00  0.00    +0.027 C 
ATOM     11  C   UNL     1      -3.186  -0.702  -1.733  0.00  0.00    +0.002 C 
ATOM     12  C   UNL     1      -3.288  -0.099  -0.310  0.00  0.00    +0.002 C 
ATOM     13  C   UNL     1      -2.007  -0.585   0.400  0.00  0.00    +0.027 C 
ENDBRANCH   8   9
ENDBRANCH   3   4
BRANCH   3  15
ATOM     14  C   UNL     1       1.647  -2.229  -2.732  0.00  0.00    +0.002 C 
ATOM     15  C   UNL     1       2.649  -2.263  -1.576  0.00  0.00    -0.011 C 
ENDBRANCH   3  15
ENDBRANCH   1   3
BRANCH   1  16
ATOM     16  C   UNL     1       2.275  -1.531   2.097  0.00  0.00    -0.034 C 
BRANCH  16  17
ATOM     17  C   UNL     1       3.358  -1.314   3.122  0.00  0.00    -0.027 A 
ATOM     18  C   UNL     1       4.029  -0.176   3.427  0.00  0.00    +0.009 A 
ATOM     19  C   UNL     1       4.993  -0.211   4.417  0.00  0.00    +0.008 A 
ATOM     20  C   UNL     1       5.240  -1.382   5.053  0.00  0.00    +0.045 A 
ATOM     21  S   UNL     1       4.085  -2.486   4.256  0.00  0.00    -0.103 S 
ENDBRANCH  16  17
ENDBRANCH   1  16
BRANCH   1  22
ATOM     22  C   UNL     1       3.311  -3.424   0.998  0.00  0.00    -0.036 C 
BRANCH  22  23
ATOM     23  C   UNL     1       2.104  -4.318   1.129  0.00  0.00    +0.001 A 
ATOM     24  C   UNL     1       1.579  -4.908   0.027  0.00  0.00    +0.017 A 
ATOM     25  C   UNL     1       0.407  -5.771   0.189  0.00  0.00    +0.002 A 
ATOM     26  C   UNL     1      -0.179  -6.408  -0.910  0.00  0.00    -0.041 A 
ATOM     27  C   UNL     1      -1.272  -7.207  -0.727  0.00  0.00    +0.007 A 
ATOM     28  C   UNL     1      -1.806  -7.393   0.541  0.00  0.00    -0.048 A 
ATOM     29  C   UNL     1      -1.245  -6.775   1.638  0.00  0.00    +0.029 A 
ATOM     30  C   UNL     1      -0.132  -5.957   1.476  0.00  0.00    +0.050 A 
ATOM     31  N   UNL     1       0.451  -5.328   2.555  0.00  0.00    -0.322 N 
ATOM     32  H   UNL     1       0.078  -5.458   3.442  0.00  0.00    +0.169 HD
ATOM     33  C   UNL     1       1.530  -4.542   2.398  0.00  0.00    +0.251 A 
ATOM     34  O   UNL     1       2.021  -4.005   3.376  0.00  0.00    -0.268 OA
ATOM     35  C   UNL     1      -3.012  -8.279   0.720  0.00  0.00    +0.044 C 
ATOM     36  C   UNL     1       0.392  -6.213  -2.291  0.00  0.00    +0.044 C 
ENDBRANCH  22  23
ENDBRANCH   1  22
TORSDOF 8
