REMARK  Name = ZINC16488803
REMARK  5 active torsions:
REMARK  status: ('A' for Active; 'I' for Inactive)
REMARK    1  A    between atoms: C_4  and  N_7
REMARK    2  A    between atoms: C_12  and  C_20
REMARK    3  A    between atoms: C_14  and  C_18
REMARK    4  A    between atoms: C_15  and  N_17
REMARK    5  A    between atoms: C_28  and  C_30
REMARK                            x       y       z     vdW  Elec       q    Type
REMARK                         _______ _______ _______ _____ _____    ______ ____
ROOT
ATOM      1  N   UNL     1      -1.496   1.864   0.131  0.00  0.00    -0.185 N 
ATOM      2  C   UNL     1      -1.593   3.324   0.081  0.00  0.00    +0.294 C 
ATOM      3  C   UNL     1      -2.783   3.493   1.083  0.00  0.00    +0.118 C 
ATOM      4  C   UNL     1      -3.324   4.884   0.842  0.00  0.00    +0.081 C 
ATOM      5  C   UNL     1      -2.140   5.831   0.911  0.00  0.00    +0.094 C 
ATOM      6  C   UNL     1      -0.859   5.397   0.818  0.00  0.00    +0.194 C 
ATOM      7  O   UNL     1      -0.528   4.092   0.605  0.00  0.00    -0.455 OA
ATOM      8  C   UNL     1      -3.635   2.325   0.679  0.00  0.00    +0.148 C 
ATOM      9  N   UNL     1      -2.849   1.438   0.154  0.00  0.00    -0.176 NA
ENDROOT
BRANCH   4  10
ATOM     10  C   UNL     1      -3.959   4.947  -0.524  0.00  0.00    -0.002 A 
ATOM     11  C   UNL     1      -4.754   6.026  -0.868  0.00  0.00    +0.046 A 
ATOM     12  C   UNL     1      -5.332   6.085  -2.123  0.00  0.00    +0.020 A 
ATOM     13  C   UNL     1      -5.125   5.062  -3.030  0.00  0.00    +0.003 A 
ATOM     14  C   UNL     1      -4.335   3.982  -2.684  0.00  0.00    +0.020 A 
ATOM     15  C   UNL     1      -3.752   3.924  -1.431  0.00  0.00    +0.046 A 
ATOM     16 CL   UNL     1      -2.760   2.566  -0.997  0.00  0.00    -0.083 Cl
ATOM     17 CL   UNL     1      -5.020   7.307   0.272  0.00  0.00    -0.083 Cl
ENDBRANCH   4  10
BRANCH   1  21
ATOM     18  C   UNL     1       1.941  -0.486   0.167  0.00  0.00    +0.000 A 
ATOM     19  C   UNL     1       0.695  -1.085   0.207  0.00  0.00    +0.002 A 
ATOM     20  C   UNL     1      -0.447  -0.309   0.197  0.00  0.00    +0.025 A 
ATOM     21  C   UNL     1      -0.343   1.076   0.147  0.00  0.00    +0.055 A 
ATOM     22  C   UNL     1       0.910   1.674   0.108  0.00  0.00    +0.025 A 
ATOM     23  C   UNL     1       2.048   0.892   0.117  0.00  0.00    +0.002 A 
ENDBRANCH   1  21
BRANCH   8  24
ATOM     24  C   UNL     1      -5.128   2.208   0.847  0.00  0.00    +0.432 C 
ATOM     25  F   UNL     1      -5.557   0.973   0.350  0.00  0.00    -0.165 F 
ATOM     26  F   UNL     1      -5.454   2.304   2.204  0.00  0.00    -0.165 F 
ATOM     27  F   UNL     1      -5.758   3.239   0.142  0.00  0.00    -0.165 F 
ENDBRANCH   8  24
BRANCH   6  28
ATOM     28  N   UNL     1       0.152   6.315   0.944  0.00  0.00    -0.329 N 
ATOM     29  H   UNL     1       1.077   6.030   0.881  0.00  0.00    +0.145 HD
ATOM     30  H   UNL     1      -0.058   7.250   1.096  0.00  0.00    +0.145 HD
ENDBRANCH   6  28
BRANCH   5  31
ATOM     31  C   UNL     1      -2.384   7.232   1.080  0.00  0.00    +0.100 C 
ATOM     32  N   UNL     1      -2.577   8.343   1.214  0.00  0.00    -0.191 NA
ENDBRANCH   5  31
TORSDOF 5
