REMARK  Name = ZINC63138966
REMARK  10 active torsions:
REMARK  status: ('A' for Active; 'I' for Inactive)
REMARK    1  A    between atoms: C_1  and  O_2
REMARK    2  A    between atoms: O_2  and  C_3
REMARK    3  A    between atoms: C_6  and  C_9
REMARK    4  A    between atoms: N_28  and  C_31
REMARK    5  A    between atoms: C_31  and  C_32
REMARK    6  A    between atoms: C_32  and  C_33
REMARK    7  A    between atoms: C_36  and  O_41
REMARK    8  A    between atoms: C_37  and  O_39
REMARK    9  A    between atoms: O_39  and  C_40
REMARK   10  A    between atoms: O_41  and  C_42
REMARK                            x       y       z     vdW  Elec       q    Type
REMARK                         _______ _______ _______ _____ _____    ______ ____
ROOT
ATOM      1  C   UNL     1      -4.981  -2.629   0.035  0.00  0.00    +0.133 C 
ATOM      2  C   UNL     1      -5.328  -3.055  -1.391  0.00  0.00    +0.131 C 
ATOM      3  C   UNL     1      -4.451  -4.269  -1.689  0.00  0.00    -0.034 C 
ATOM      4  C   UNL     1      -3.683  -3.943  -2.719  0.00  0.00    -0.001 A 
ATOM      5  C   UNL     1      -2.668  -4.705  -3.464  0.00  0.00    +0.010 A 
ATOM      6  C   UNL     1      -2.055  -4.050  -4.485  0.00  0.00    +0.001 A 
ATOM      7  C   UNL     1      -2.348  -2.728  -4.835  0.00  0.00    +0.002 A 
ATOM      8  C   UNL     1      -3.267  -1.953  -4.206  0.00  0.00    +0.026 A 
ATOM      9  C   UNL     1      -3.979  -2.533  -3.116  0.00  0.00    +0.043 A 
ATOM     10  N   UNL     1      -4.921  -2.020  -2.351  0.00  0.00    -0.375 N 
ATOM     11  C   UNL     1      -4.541  -5.518  -0.855  0.00  0.00    +0.065 C 
ATOM     12  C   UNL     1      -4.675  -5.153   0.600  0.00  0.00    +0.167 C 
ATOM     13  N   UNL     1      -4.911  -3.767   0.940  0.00  0.00    -0.279 N 
ATOM     14  C   UNL     1      -5.033  -3.505   2.283  0.00  0.00    +0.234 C 
ATOM     15  O   UNL     1      -5.299  -2.394   2.691  0.00  0.00    -0.274 OA
ATOM     16  C   UNL     1      -4.821  -4.668   3.229  0.00  0.00    +0.203 C 
ATOM     17  N   UNL     1      -3.637  -5.425   2.781  0.00  0.00    -0.291 N 
ATOM     18  C   UNL     1      -3.556  -5.700   1.451  0.00  0.00    +0.237 C 
ATOM     19  O   UNL     1      -2.643  -6.344   0.981  0.00  0.00    -0.274 OA
ATOM     20  H   UNL     1      -5.285  -1.122  -2.401  0.00  0.00    +0.160 HD
ENDROOT
BRANCH   1  24
ATOM     21  C   UNL     1      -1.200  -0.637   0.010  0.00  0.00    +0.120 A 
ATOM     22  C   UNL     1      -2.375   0.101   0.019  0.00  0.00    +0.046 A 
ATOM     23  C   UNL     1      -3.596  -0.545   0.027  0.00  0.00    +0.009 A 
ATOM     24  C   UNL     1      -3.648  -1.927   0.026  0.00  0.00    -0.025 A 
ATOM     25  C   UNL     1      -2.479  -2.665   0.017  0.00  0.00    +0.009 A 
ATOM     26  C   UNL     1      -1.255  -2.024   0.003  0.00  0.00    +0.046 A 
BRANCH  21  28
ATOM     27  C   UNL     1      -0.017   1.425   0.010  0.00  0.00    +0.277 C 
ATOM     28  O   UNL     1       0.002  -0.004   0.002  0.00  0.00    -0.495 OA
ENDBRANCH  21  28
ENDBRANCH   1  24
BRANCH  17  29
ATOM     29  C   UNL     1      -2.601  -5.858   3.722  0.00  0.00    +0.113 C 
BRANCH  29  30
ATOM     30  C   UNL     1      -2.950  -7.246   4.262  0.00  0.00    +0.054 C 
BRANCH  30  31
ATOM     31  C   UNL     1      -1.884  -7.692   5.229  0.00  0.00    -0.042 A 
ATOM     32  C   UNL     1      -0.786  -8.395   4.770  0.00  0.00    +0.007 A 
ATOM     33  C   UNL     1       0.195  -8.806   5.653  0.00  0.00    +0.049 A 
ATOM     34  C   UNL     1       0.079  -8.513   7.002  0.00  0.00    +0.161 A 
ATOM     35  C   UNL     1      -1.026  -7.805   7.465  0.00  0.00    +0.162 A 
ATOM     36  C   UNL     1      -2.003  -7.392   6.574  0.00  0.00    +0.053 A 
BRANCH  35  37
ATOM     37  O   UNL     1      -1.145  -7.515   8.788  0.00  0.00    -0.491 OA
ATOM     38  C   UNL     1      -2.305  -6.785   9.191  0.00  0.00    +0.277 C 
ENDBRANCH  35  37
BRANCH  34  39
ATOM     39  O   UNL     1       1.042  -8.917   7.873  0.00  0.00    -0.491 OA
ATOM     40  C   UNL     1       2.148  -9.640   7.327  0.00  0.00    +0.277 C 
ENDBRANCH  34  39
ENDBRANCH  30  31
ENDBRANCH  29  30
ENDBRANCH  17  29
TORSDOF 7
