REMARK  Name = ZINC44188951
REMARK  4 active torsions:
REMARK  status: ('A' for Active; 'I' for Inactive)
REMARK    1  A    between atoms: C_1  and  C_2
REMARK    2  A    between atoms: C_4  and  C_22
REMARK    3  A    between atoms: N_5  and  C_7
REMARK    4  A    between atoms: C_19  and  O_21
REMARK                            x       y       z     vdW  Elec       q    Type
REMARK                         _______ _______ _______ _____ _____    ______ ____
ROOT
ATOM      1  C   UNL     1       0.054  -3.396   1.432  0.00  0.00    +0.138 C 
ATOM      2  C   UNL     1       1.356  -3.515   2.226  0.00  0.00    +0.029 C 
ATOM      3  C   UNL     1       2.343  -2.447   1.750  0.00  0.00    +0.002 C 
ATOM      4  C   UNL     1       2.841  -1.641   2.951  0.00  0.00    +0.000 C 
ATOM      5  C   UNL     1       2.624  -0.149   2.688  0.00  0.00    +0.000 C 
ATOM      6  C   UNL     1       1.843   0.466   3.852  0.00  0.00    +0.000 C 
ATOM      7  C   UNL     1       0.616   1.201   3.309  0.00  0.00    +0.000 C 
ATOM      8  C   UNL     1      -0.638   0.698   4.027  0.00  0.00    +0.000 C 
ATOM      9  C   UNL     1      -1.674   0.253   2.992  0.00  0.00    +0.000 C 
ATOM     10  C   UNL     1      -2.123  -1.177   3.301  0.00  0.00    +0.003 C 
ATOM     11  C   UNL     1      -1.955  -2.046   2.053  0.00  0.00    +0.033 C 
ATOM     12  C   UNL     1      -1.125  -3.283   2.401  0.00  0.00    +0.139 C 
ENDROOT
BRANCH   1  17
ATOM     13  C   UNL     1       0.371   1.375  -0.085  0.00  0.00    +0.090 C 
ATOM     14  C   UNL     1       0.244  -0.126  -0.060  0.00  0.00    +0.148 A 
ATOM     15  N   UNL     1       0.115  -0.910  -1.130  0.00  0.00    -0.217 NA
ATOM     16  C   UNL     1       0.030  -2.161  -0.756  0.00  0.00    +0.125 A 
ATOM     17  N   UNL     1       0.106  -2.201   0.586  0.00  0.00    -0.244 N 
ATOM     18  N   UNL     1       0.250  -0.872   1.014  0.00  0.00    -0.155 NA
ATOM     19  C   UNL     1      -0.126  -3.349  -1.670  0.00  0.00    +0.088 C 
ENDBRANCH   1  17
BRANCH  12  20
ATOM     20  O   UNL     1      -0.634  -3.167   3.738  0.00  0.00    -0.390 OA
ATOM     21  H   UNL     1      -1.321  -3.221   4.416  0.00  0.00    +0.210 HD
ENDBRANCH  12  20
TORSDOF 2
