REMARK  Name = ZINC09023662
REMARK  12 active torsions:
REMARK  status: ('A' for Active; 'I' for Inactive)
REMARK    1  A    between atoms: C_1  and  C_2
REMARK    2  A    between atoms: C_2  and  O_3
REMARK    3  A    between atoms: O_3  and  C_4
REMARK    4  A    between atoms: C_7  and  O_10
REMARK    5  A    between atoms: O_10  and  C_11
REMARK    6  A    between atoms: C_11  and  C_12
REMARK    7  A    between atoms: C_15  and  S_24
REMARK    8  A    between atoms: N_16  and  C_17
REMARK    9  A    between atoms: S_24  and  C_25
REMARK   10  A    between atoms: C_25  and  C_27
REMARK   11  A    between atoms: C_25  and  C_28
REMARK   12  A    between atoms: N_33  and  C_34
REMARK                            x       y       z     vdW  Elec       q    Type
REMARK                         _______ _______ _______ _____ _____    ______ ____
ROOT
ATOM      1  C   UNL     1       3.651   3.128  -0.017  0.00  0.00    +0.176 A 
ATOM      2  N   UNL     1       3.814   1.835  -0.025  0.00  0.00    -0.130 NA
ATOM      3  N   UNL     1       2.673   1.245  -0.017  0.00  0.00    -0.122 NA
ATOM      4  C   UNL     1       1.708   2.135  -0.003  0.00  0.00    +0.197 A 
ATOM      5  N   UNL     1       2.302   3.368  -0.007  0.00  0.00    -0.271 N 
ENDROOT
BRANCH   5   6
ATOM      6  C   UNL     1       1.663   4.617  -0.001  0.00  0.00    +0.050 A 
ATOM      7  C   UNL     1       1.793   5.469  -1.088  0.00  0.00    +0.028 A 
ATOM      8  C   UNL     1       1.159   6.696  -1.082  0.00  0.00    +0.022 A 
ATOM      9  C   UNL     1       0.403   7.080   0.012  0.00  0.00    +0.041 A 
ATOM     10  C   UNL     1       0.276   6.234   1.099  0.00  0.00    +0.022 A 
ATOM     11  C   UNL     1       0.904   5.003   1.095  0.00  0.00    +0.028 A 
ATOM     12 CL   UNL     1      -0.388   8.626   0.020  0.00  0.00    -0.084 Cl
ENDBRANCH   5   6
BRANCH   1  13
ATOM     13  C   UNL     1       4.742   4.167  -0.021  0.00  0.00    +0.305 C 
BRANCH  13  14
ATOM     14  O   UNL     1       5.074   4.503  -1.370  0.00  0.00    -0.484 OA
BRANCH  14  18
ATOM     15  C   UNL     1       8.033   7.327  -1.923  0.00  0.00    +0.121 A 
ATOM     16  C   UNL     1       7.411   6.751  -3.021  0.00  0.00    +0.049 A 
ATOM     17  C   UNL     1       6.421   5.806  -2.835  0.00  0.00    +0.049 A 
ATOM     18  C   UNL     1       6.049   5.433  -1.552  0.00  0.00    +0.121 A 
ATOM     19  C   UNL     1       6.668   6.013  -0.455  0.00  0.00    +0.049 A 
ATOM     20  C   UNL     1       7.662   6.955  -0.640  0.00  0.00    +0.049 A 
BRANCH  15  21
ATOM     21  O   UNL     1       9.008   8.258  -2.106  0.00  0.00    -0.492 OA
BRANCH  21  23
ATOM     22  C   UNL     1      10.673   9.830  -1.333  0.00  0.00    +0.048 C 
ATOM     23  C   UNL     1       9.606   8.810  -0.931  0.00  0.00    +0.225 C 
ENDBRANCH  21  23
ENDBRANCH  15  21
ENDBRANCH  14  18
ENDBRANCH  13  14
ENDBRANCH   1  13
BRANCH   4  24
ATOM     24  S   UNL     1      -0.022   1.806   0.012  0.00  0.00    -0.073 S 
BRANCH  24  25
ATOM     25  C   UNL     1       0.002  -0.004   0.002  0.00  0.00    +0.137 C 
ATOM     26  C   UNL     1       0.631  -0.513   1.301  0.00  0.00    +0.029 C 
BRANCH  25  27
ATOM     27  C   UNL     1      -1.407  -0.525  -0.111  0.00  0.00    +0.233 C 
ATOM     28  O   UNL     1      -2.343   0.189   0.181  0.00  0.00    -0.274 OA
ATOM     29  N   UNL     1      -1.628  -1.784  -0.537  0.00  0.00    -0.239 N 
ATOM     30  C   UNL     1      -2.889  -2.250  -0.638  0.00  0.00    +0.306 C 
ATOM     31  O   UNL     1      -3.827  -1.535  -0.345  0.00  0.00    -0.252 OA
ATOM     32  N   UNL     1      -3.110  -3.510  -1.064  0.00  0.00    -0.302 N 
ATOM     33  C   UNL     1      -4.480  -4.016  -1.174  0.00  0.00    +0.129 C 
ATOM     34  H   UNL     1      -0.880  -2.356  -0.771  0.00  0.00    +0.159 HD
ATOM     35  H   UNL     1      -2.361  -4.081  -1.298  0.00  0.00    +0.150 HD
ENDBRANCH  25  27
ENDBRANCH  24  25
ENDBRANCH   4  24
TORSDOF 9
