REMARK  Name = ZINC21254232
REMARK  10 active torsions:
REMARK  status: ('A' for Active; 'I' for Inactive)
REMARK    1  A    between atoms: C_1  and  C_2
REMARK    2  A    between atoms: C_2  and  C_3
REMARK    3  A    between atoms: C_2  and  O_4
REMARK    4  A    between atoms: O_4  and  C_5
REMARK    5  A    between atoms: C_8  and  C_13
REMARK    6  A    between atoms: C_10  and  O_11
REMARK    7  A    between atoms: O_11  and  C_12
REMARK    8  A    between atoms: C_18  and  C_23
REMARK    9  A    between atoms: C_28  and  O_29
REMARK   10  A    between atoms: O_29  and  C_30
REMARK                            x       y       z     vdW  Elec       q    Type
REMARK                         _______ _______ _______ _____ _____    ______ ____
ROOT
ATOM      1  C   UNL     1      -2.034   2.267   0.047  0.00  0.00    +0.136 C 
ATOM      2  C   UNL     1      -0.936   1.237   0.156  0.00  0.00    +0.036 C 
ATOM      3  C   UNL     1      -1.103  -0.097   0.159  0.00  0.00    +0.017 C 
ATOM      4  C   UNL     1       0.095  -1.024   0.274  0.00  0.00    +0.060 C 
ATOM      5  C   UNL     1       1.313  -0.387  -0.394  0.00  0.00    +0.035 C 
ATOM      6  C   UNL     1       1.595   0.940   0.321  0.00  0.00    +0.088 C 
ATOM      7  C   UNL     1       0.362   1.792   0.250  0.00  0.00    +0.163 C 
ATOM      8  O   UNL     1       0.483   3.001   0.274  0.00  0.00    -0.292 OA
ATOM      9  N   UNL     1      -2.303  -0.726   0.074  0.00  0.00    -0.316 N 
ATOM     10  C   UNL     1      -3.303  -0.409  -0.838  0.00  0.00    +0.052 A 
ATOM     11  C   UNL     1      -3.710  -1.289  -1.826  0.00  0.00    +0.025 A 
ATOM     12  C   UNL     1      -4.745  -0.927  -2.672  0.00  0.00    +0.002 A 
ATOM     13  C   UNL     1      -5.368   0.299  -2.528  0.00  0.00    +0.002 A 
ATOM     14  C   UNL     1      -4.950   1.187  -1.551  0.00  0.00    +0.025 A 
ATOM     15  C   UNL     1      -3.900   0.836  -0.718  0.00  0.00    +0.049 A 
ATOM     16  N   UNL     1      -3.372   1.739   0.204  0.00  0.00    -0.331 N 
ATOM     17  H   UNL     1      -2.539  -1.554   0.759  0.00  0.00    +0.152 HD
ATOM     18  H   UNL     1      -3.988   2.048   1.061  0.00  0.00    +0.147 HD
ENDROOT
BRANCH   1  22
ATOM     19  C   UNL     1      -1.759   4.137  -3.789  0.00  0.00    +0.162 A 
ATOM     20  C   UNL     1      -2.064   2.789  -3.692  0.00  0.00    +0.050 A 
ATOM     21  C   UNL     1      -2.146   2.186  -2.451  0.00  0.00    +0.009 A 
ATOM     22  C   UNL     1      -1.937   2.928  -1.304  0.00  0.00    -0.019 A 
ATOM     23  C   UNL     1      -1.633   4.274  -1.393  0.00  0.00    +0.055 A 
ATOM     24  C   UNL     1      -1.543   4.883  -2.634  0.00  0.00    +0.162 A 
BRANCH  24  25
ATOM     25  O   UNL     1      -1.243   6.206  -2.724  0.00  0.00    -0.491 OA
ATOM     26  C   UNL     1      -1.033   6.908  -1.497  0.00  0.00    +0.277 C 
ENDBRANCH  24  25
BRANCH  19  27
ATOM     27  O   UNL     1      -1.672   4.730  -5.010  0.00  0.00    -0.486 OA
BRANCH  27  29
ATOM     28  C   UNL     1      -3.261   3.696  -6.508  0.00  0.00    +0.051 C 
ATOM     29  C   UNL     1      -1.784   3.881  -6.153  0.00  0.00    +0.167 C 
ATOM     30  C   UNL     1      -1.052   4.518  -7.336  0.00  0.00    +0.051 C 
ENDBRANCH  27  29
ENDBRANCH  19  27
ENDBRANCH   1  22
BRANCH   5  31
ATOM     31  C   UNL     1       2.503  -1.301  -0.264  0.00  0.00    -0.002 A 
ATOM     32  C   UNL     1       2.969  -1.657   0.987  0.00  0.00    +0.007 A 
ATOM     33  C   UNL     1       4.059  -2.499   1.107  0.00  0.00    +0.001 A 
ATOM     34  C   UNL     1       4.691  -2.981  -0.025  0.00  0.00    +0.004 A 
ATOM     35  C   UNL     1       4.232  -2.624  -1.278  0.00  0.00    +0.046 A 
ATOM     36  C   UNL     1       3.136  -1.783  -1.401  0.00  0.00    +0.124 A 
BRANCH  36  37
ATOM     37  O   UNL     1       2.683  -1.430  -2.633  0.00  0.00    -0.495 OA
ATOM     38  C   UNL     1       3.383  -1.963  -3.759  0.00  0.00    +0.277 C 
ENDBRANCH  36  37
ENDBRANCH   5  31
TORSDOF 6
