REMARK  Name = ZINC63617447
REMARK  7 active torsions:
REMARK  status: ('A' for Active; 'I' for Inactive)
REMARK    1  A    between atoms: C_1  and  O_2
REMARK    2  A    between atoms: O_2  and  C_3
REMARK    3  A    between atoms: C_8  and  C_13
REMARK    4  A    between atoms: N_15  and  C_16
REMARK    5  A    between atoms: C_18  and  C_24
REMARK    6  A    between atoms: C_21  and  O_22
REMARK    7  A    between atoms: O_22  and  C_23
REMARK                            x       y       z     vdW  Elec       q    Type
REMARK                         _______ _______ _______ _____ _____    ______ ____
ROOT
ATOM      1  C   UNL     1       1.052  -5.704  -6.934  0.00  0.00    +0.076 A 
ATOM      2  C   UNL     1      -0.207  -6.199  -6.631  0.00  0.00    +0.036 A 
ATOM      3  C   UNL     1      -0.901  -6.942  -7.567  0.00  0.00    +0.013 A 
ATOM      4  C   UNL     1      -0.342  -7.195  -8.806  0.00  0.00    +0.012 A 
ATOM      5  C   UNL     1       0.913  -6.705  -9.116  0.00  0.00    +0.048 A 
ATOM      6  C   UNL     1       1.612  -5.954  -8.185  0.00  0.00    +0.141 A 
ENDROOT
BRANCH   3   7
ATOM      7  C   UNL     1      -2.269  -7.480  -7.236  0.00  0.00    +0.292 C 
ATOM      8  N   UNL     1      -3.075  -7.601  -8.458  0.00  0.00    -0.303 N 
ATOM      9  C   UNL     1      -3.397  -8.960  -8.582  0.00  0.00    +0.072 A 
ATOM     10  C   UNL     1      -4.135  -9.638  -9.543  0.00  0.00    +0.027 A 
ATOM     11  C   UNL     1      -4.315 -11.005  -9.441  0.00  0.00    +0.002 A 
ATOM     12  C   UNL     1      -3.761 -11.698  -8.381  0.00  0.00    +0.004 A 
ATOM     13  C   UNL     1      -3.025 -11.029  -7.421  0.00  0.00    +0.047 A 
ATOM     14  C   UNL     1      -2.838  -9.656  -7.515  0.00  0.00    +0.144 A 
ATOM     15  O   UNL     1      -2.163  -8.801  -6.699  0.00  0.00    -0.465 OA
ATOM     16  H   UNL     1      -3.331  -6.885  -9.060  0.00  0.00    +0.150 HD
ENDBRANCH   3   7
BRANCH   1  19
ATOM     17  C   UNL     1       1.644  -5.238  -4.676  0.00  0.00    +0.244 C 
ATOM     18  O   UNL     1       0.871  -6.097  -4.309  0.00  0.00    -0.273 OA
ATOM     19  N   UNL     1       1.757  -4.949  -5.987  0.00  0.00    -0.281 N 
ATOM     20  H   UNL     1       2.327  -4.219  -6.276  0.00  0.00    +0.155 HD
BRANCH  17  26
ATOM     21  C   UNL     1       0.816  -2.602   0.189  0.00  0.00    +0.122 A 
ATOM     22  C   UNL     1       0.798  -1.435  -0.600  0.00  0.00    +0.046 A 
ATOM     23  C   UNL     1       1.209  -1.444  -1.887  0.00  0.00    +0.013 A 
ATOM     24  C   UNL     1       1.686  -2.703  -2.475  0.00  0.00    -0.003 A 
ATOM     25  C   UNL     1       2.150  -3.018  -3.705  0.00  0.00    +0.016 C 
ATOM     26  C   UNL     1       2.478  -4.493  -3.665  0.00  0.00    +0.190 C 
ATOM     27  N   UNL     1       2.150  -4.943  -2.308  0.00  0.00    -0.370 N 
ATOM     28  C   UNL     1       1.697  -3.916  -1.626  0.00  0.00    +0.047 A 
ATOM     29  C   UNL     1       1.249  -3.797  -0.287  0.00  0.00    +0.071 A 
ATOM     30  H   UNL     1       2.252  -5.846  -1.970  0.00  0.00    +0.161 HD
BRANCH  21  32
ATOM     31  C   UNL     1      -0.056  -1.250   1.935  0.00  0.00    +0.277 C 
ATOM     32  O   UNL     1       0.391  -2.526   1.474  0.00  0.00    -0.495 OA
ENDBRANCH  21  32
ENDBRANCH  17  26
ENDBRANCH   1  19
BRANCH   6  33
ATOM     33  O   UNL     1       2.844  -5.466  -8.490  0.00  0.00    -0.493 OA
ATOM     34  C   UNL     1       3.355  -5.762  -9.791  0.00  0.00    +0.277 C 
ENDBRANCH   6  33
TORSDOF 5
