REMARK  Name = ZINC39852754
REMARK  8 active torsions:
REMARK  status: ('A' for Active; 'I' for Inactive)
REMARK    1  A    between atoms: C_5  and  C_7
REMARK    2  A    between atoms: C_9  and  C_18
REMARK    3  A    between atoms: C_18  and  C_19
REMARK    4  A    between atoms: C_19  and  C_20
REMARK    5  A    between atoms: C_20  and  C_21
REMARK    6  A    between atoms: N_23  and  N_24
REMARK    7  A    between atoms: C_25  and  C_27
REMARK    8  A    between atoms: C_30  and  N_33
REMARK                            x       y       z     vdW  Elec       q    Type
REMARK                         _______ _______ _______ _____ _____    ______ ____
ROOT
ATOM      1  C   UNL     1       4.622  -2.207  -0.025  0.00  0.00    +0.014 C 
ENDROOT
BRANCH   1   2
ATOM      2  C   UNL     1       3.567  -2.388  -1.118  0.00  0.00    +0.038 C 
BRANCH   2   5
ATOM      3  C   UNL     1       1.269  -2.143  -0.022  0.00  0.00    +0.069 A 
ATOM      4  H   UNL     1      -0.552  -2.662   0.864  0.00  0.00    +0.166 HD
ATOM      5  C   UNL     1       2.289  -2.896  -0.504  0.00  0.00    -0.013 A 
ATOM      6  C   UNL     1       1.911  -4.295  -0.314  0.00  0.00    +0.005 A 
ATOM      7  C   UNL     1       2.533  -5.514  -0.603  0.00  0.00    +0.030 A 
ATOM      8  C   UNL     1       1.904  -6.687  -0.293  0.00  0.00    +0.042 A 
ATOM      9  C   UNL     1       0.650  -6.679   0.305  0.00  0.00    +0.022 A 
ATOM     10  C   UNL     1       0.019  -5.489   0.598  0.00  0.00    +0.027 A 
ATOM     11  C   UNL     1       0.640  -4.283   0.293  0.00  0.00    +0.047 A 
ATOM     12  N   UNL     1       0.278  -2.965   0.464  0.00  0.00    -0.353 N 
ATOM     13 CL   UNL     1       2.676  -8.200  -0.653  0.00  0.00    -0.084 Cl
BRANCH   3  18
ATOM     14  C   UNL     1      -0.017   1.379   0.010  0.00  0.00    +0.004 A 
ATOM     15  C   UNL     1       1.194   2.059   0.002  0.00  0.00    +0.020 A 
ATOM     16  C   UNL     1       2.375   1.341  -0.013  0.00  0.00    +0.111 A 
ATOM     17  N   UNL     1       2.367   0.024  -0.020  0.00  0.00    -0.254 NA
ATOM     18  C   UNL     1       1.231  -0.665  -0.013  0.00  0.00    +0.087 A 
ATOM     19  C   UNL     1       0.002  -0.004   0.002  0.00  0.00    +0.030 A 
ENDBRANCH   3  18
ENDBRANCH   2   5
ENDBRANCH   1   2
BRANCH   1  20
ATOM     20  C   UNL     1       5.920  -1.691  -0.649  0.00  0.00    +0.097 C 
BRANCH  20  21
ATOM     21  C   UNL     1       6.959  -1.513   0.428  0.00  0.00    +0.229 C 
ATOM     22  O   UNL     1       6.688  -1.774   1.581  0.00  0.00    -0.274 OA
ATOM     23  N   UNL     1       8.190  -1.065   0.109  0.00  0.00    -0.234 N 
ATOM     24  H   UNL     1       8.406  -0.857  -0.813  0.00  0.00    +0.173 HD
BRANCH  23  25
ATOM     25  N   UNL     1       9.156  -0.899   1.110  0.00  0.00    -0.230 N 
ATOM     26  C   UNL     1      10.386  -0.451   0.792  0.00  0.00    +0.260 C 
ATOM     27  O   UNL     1      10.658  -0.190  -0.364  0.00  0.00    -0.269 OA
ATOM     28  H   UNL     1       8.939  -1.108   2.033  0.00  0.00    +0.173 HD
BRANCH  26  29
ATOM     29  C   UNL     1      11.406  -0.277   1.848  0.00  0.00    +0.038 A 
ATOM     30  C   UNL     1      11.099  -0.581   3.176  0.00  0.00    +0.015 A 
ATOM     31  C   UNL     1      12.055  -0.416   4.157  0.00  0.00    +0.033 A 
ATOM     32  C   UNL     1      13.315   0.050   3.827  0.00  0.00    +0.126 A 
ATOM     33  C   UNL     1      13.626   0.353   2.513  0.00  0.00    +0.033 A 
ATOM     34  C   UNL     1      12.681   0.188   1.522  0.00  0.00    +0.015 A 
BRANCH  32  35
ATOM     35  N   UNL     1      14.336   0.225   4.885  0.00  0.00    +0.056 N 
ATOM     36  O   UNL     1      14.067  -0.039   6.034  0.00  0.00    -0.126 OA
ATOM     37  O   UNL     1      15.438   0.632   4.600  0.00  0.00    -0.126 OA
ENDBRANCH  32  35
ENDBRANCH  26  29
ENDBRANCH  23  25
ENDBRANCH  20  21
ENDBRANCH   1  20
TORSDOF 8
