REMARK  Name = ZINC55189309
REMARK  5 active torsions:
REMARK  status: ('A' for Active; 'I' for Inactive)
REMARK    1  A    between atoms: C_1  and  C_2
REMARK    2  A    between atoms: C_2  and  C_3
REMARK    3  A    between atoms: C_2  and  C_9
REMARK    4  A    between atoms: C_2  and  N_12
REMARK    5  A    between atoms: C_13  and  C_15
REMARK                            x       y       z     vdW  Elec       q    Type
REMARK                         _______ _______ _______ _____ _____    ______ ____
ROOT
ATOM      1  N   UNL     1      -1.375  -0.505   0.012  0.00  0.00    -0.291 N 
ATOM      2  C   UNL     1      -2.186  -0.268  -1.038  0.00  0.00    +0.264 C 
ATOM      3  O   UNL     1      -1.775   0.362  -1.994  0.00  0.00    -0.268 OA
ATOM      4  H   UNL     1      -1.702  -1.007   0.774  0.00  0.00    +0.150 HD
ENDROOT
BRANCH   2   5
ATOM      5  C   UNL     1      -3.569  -0.771  -1.028  0.00  0.00    +0.135 A 
ATOM      6  C   UNL     1      -4.402  -0.539  -2.093  0.00  0.00    +0.081 A 
ATOM      7  S   UNL     1      -5.892  -1.354  -1.535  0.00  0.00    -0.060 S 
ATOM      8  C   UNL     1      -5.267  -1.916   0.042  0.00  0.00    +0.156 A 
ATOM      9  N   UNL     1      -4.030  -1.464   0.016  0.00  0.00    -0.221 NA
ATOM     10  N   UNL     1      -5.913  -2.640   1.030  0.00  0.00    -0.338 N 
ATOM     11  H   UNL     1      -6.836  -2.912   0.908  0.00  0.00    +0.144 HD
ATOM     12  H   UNL     1      -5.442  -2.876   1.845  0.00  0.00    +0.144 HD
ENDBRANCH   2   5
BRANCH   1  14
ATOM     13  C   UNL     1      -0.010   1.518  -0.149  0.00  0.00    +0.049 C 
ATOM     14  C   UNL     1       0.002  -0.004   0.002  0.00  0.00    +0.159 C 
BRANCH  14  15
ATOM     15  C   UNL     1       0.681  -0.375   1.295  0.00  0.00    -0.014 A 
ATOM     16  C   UNL     1       0.248  -1.475   2.013  0.00  0.00    +0.006 A 
ATOM     17  C   UNL     1       0.871  -1.815   3.199  0.00  0.00    +0.000 A 
ATOM     18  C   UNL     1       1.927  -1.056   3.667  0.00  0.00    +0.000 A 
ATOM     19  C   UNL     1       2.361   0.042   2.949  0.00  0.00    +0.000 A 
ATOM     20  C   UNL     1       1.741   0.380   1.761  0.00  0.00    +0.006 A 
ENDBRANCH  14  15
BRANCH  14  21
ATOM     21  C   UNL     1       0.751  -0.617  -1.153  0.00  0.00    +0.383 C 
ATOM     22  O   UNL     1       1.921  -0.331  -1.342  0.00  0.00    -0.244 OA
ATOM     23  O   UNL     1       0.187  -1.400  -1.898  0.00  0.00    -0.244 OA
ENDBRANCH  14  21
ENDBRANCH   1  14
TORSDOF 4
