REMARK  Name = ZINC10255670
REMARK  2 active torsions:
REMARK  status: ('A' for Active; 'I' for Inactive)
REMARK    1  A    between atoms: C_8  and  C_20
REMARK    2  A    between atoms: C_11  and  C_13
REMARK                            x       y       z     vdW  Elec       q    Type
REMARK                         _______ _______ _______ _____ _____    ______ ____
ROOT
ATOM      1  C   UNL     1      -5.329   1.302  -3.747  0.00  0.00    +0.000 A 
ATOM      2  C   UNL     1      -6.000   2.102  -2.840  0.00  0.00    +0.002 A 
ATOM      3  C   UNL     1      -5.450   2.359  -1.603  0.00  0.00    +0.024 A 
ATOM      4  C   UNL     1      -4.212   1.816  -1.255  0.00  0.00    +0.041 A 
ATOM      5  C   UNL     1      -3.548   1.016  -2.171  0.00  0.00    -0.024 A 
ATOM      6  C   UNL     1      -4.103   0.760  -3.411  0.00  0.00    +0.005 A 
ATOM      7  C   UNL     1      -2.244   0.559  -1.555  0.00  0.00    +0.069 C 
ATOM      8  C   UNL     1      -2.233   1.197  -0.157  0.00  0.00    +0.171 C 
ATOM      9  N   UNL     1      -3.487   1.951  -0.068  0.00  0.00    -0.255 N 
ATOM     10  C   UNL     1      -3.882   2.669   1.001  0.00  0.00    +0.252 C 
ATOM     11  O   UNL     1      -4.926   3.292   0.963  0.00  0.00    -0.270 OA
ENDROOT
BRANCH  10  12
ATOM     12  C   UNL     1      -3.048   2.700   2.220  0.00  0.00    +0.037 A 
ATOM     13  C   UNL     1      -1.930   1.870   2.326  0.00  0.00    +0.014 A 
ATOM     14  C   UNL     1      -1.153   1.906   3.464  0.00  0.00    +0.021 A 
ATOM     15  C   UNL     1      -1.485   2.757   4.506  0.00  0.00    +0.041 A 
ATOM     16  C   UNL     1      -2.596   3.579   4.409  0.00  0.00    +0.021 A 
ATOM     17  C   UNL     1      -3.378   3.555   3.274  0.00  0.00    +0.014 A 
ATOM     18 CL   UNL     1      -0.505   2.793   5.938  0.00  0.00    -0.084 Cl
ENDBRANCH  10  12
BRANCH   8  19
ATOM     19  C   UNL     1      -1.054   2.125  -0.015  0.00  0.00    +0.232 C 
ATOM     20  O   UNL     1      -1.234   3.314   0.146  0.00  0.00    -0.274 OA
ATOM     21  N   UNL     1       0.200   1.634  -0.067  0.00  0.00    -0.328 N 
ATOM     22  H   UNL     1       0.344   0.684  -0.196  0.00  0.00    +0.145 HD
ATOM     23  H   UNL     1       0.959   2.232   0.020  0.00  0.00    +0.145 HD
ENDBRANCH   8  19
TORSDOF 2
