REMARK  Name = ZINC19520171
REMARK  5 active torsions:
REMARK  status: ('A' for Active; 'I' for Inactive)
REMARK    1  A    between atoms: C_1  and  C_2
REMARK    2  A    between atoms: C_2  and  O_3
REMARK    3  A    between atoms: O_3  and  C_4
REMARK    4  A    between atoms: C_9  and  C_10
REMARK    5  A    between atoms: C_10  and  N_11
REMARK                            x       y       z     vdW  Elec       q    Type
REMARK                         _______ _______ _______ _____ _____    ______ ____
ROOT
ATOM      1  N   UNL     1       2.766   4.382   1.364  0.00  0.00    +0.383 N 
ATOM      2  C   UNL     1       1.776   5.359   1.835  0.00  0.00    -0.076 C 
ATOM      3  C   UNL     1       2.041   5.687   3.306  0.00  0.00    +0.016 C 
ATOM      4  C   UNL     1       3.458   6.241   3.453  0.00  0.00    +0.070 C 
ATOM      5  C   UNL     1       4.471   5.239   2.900  0.00  0.00    +0.016 C 
ATOM      6  C   UNL     1       4.128   4.927   1.441  0.00  0.00    -0.076 C 
ATOM      7  C   UNL     1       3.757   6.514   4.939  0.00  0.00    +0.082 C 
ATOM      8  C   UNL     1       3.996   8.036   4.995  0.00  0.00    +0.125 C 
ATOM      9  C   UNL     1       3.310   8.539   3.709  0.00  0.00    +0.206 C 
ATOM     10  O   UNL     1       3.572   7.488   2.752  0.00  0.00    -0.370 OA
ATOM     11  N   UNL     1       5.429   8.324   4.953  0.00  0.00    -0.321 N 
ATOM     12  C   UNL     1       6.156   8.173   6.131  0.00  0.00    +0.041 A 
ATOM     13  C   UNL     1       7.493   7.818   6.128  0.00  0.00    +0.024 A 
ATOM     14  C   UNL     1       8.164   7.670   7.327  0.00  0.00    +0.002 A 
ATOM     15  C   UNL     1       7.507   7.874   8.531  0.00  0.00    +0.001 A 
ATOM     16  C   UNL     1       6.175   8.232   8.551  0.00  0.00    +0.015 A 
ATOM     17  C   UNL     1       5.488   8.388   7.349  0.00  0.00    +0.058 A 
ATOM     18  C   UNL     1       4.069   8.792   7.315  0.00  0.00    +0.247 C 
ATOM     19  O   UNL     1       3.541   9.277   8.297  0.00  0.00    -0.270 OA
ATOM     20  N   UNL     1       3.366   8.613   6.173  0.00  0.00    -0.288 N 
ATOM     21  H   UNL     1       5.897   8.649   4.012  0.00  0.00    +0.148 HD
ATOM     22  H   UNL     1       2.308   8.909   6.141  0.00  0.00    +0.151 HD
ATOM     23  H   UNL     1       2.717   3.508   2.030  0.00  0.00    -0.081 HD
ENDROOT
BRANCH   1  24
ATOM     24  C   UNL     1       2.456   3.933   0.000  0.00  0.00    -0.039 C 
BRANCH  24  30
ATOM     25  C   UNL     1      -0.050   3.842   0.023  0.00  0.00    +0.122 A 
ATOM     26  C   UNL     1      -1.242   3.131   0.031  0.00  0.00    +0.046 A 
ATOM     27  C   UNL     1      -1.220   1.750   0.017  0.00  0.00    +0.004 A 
ATOM     28  C   UNL     1      -0.013   1.076   0.008  0.00  0.00    +0.000 A 
ATOM     29  C   UNL     1       1.176   1.782   0.000  0.00  0.00    +0.005 A 
ATOM     30  C   UNL     1       1.160   3.164   0.008  0.00  0.00    -0.022 A 
BRANCH  25  31
ATOM     31  O   UNL     1      -0.069   5.201   0.031  0.00  0.00    -0.492 OA
BRANCH  31  33
ATOM     32  C   UNL     1      -1.171   7.351   0.054  0.00  0.00    +0.048 C 
ATOM     33  C   UNL     1      -1.350   5.832   0.047  0.00  0.00    +0.225 C 
ENDBRANCH  31  33
ENDBRANCH  25  31
ENDBRANCH  24  30
ENDBRANCH   1  24
TORSDOF 4
