REMARK  Name = ZINC06750419
REMARK  7 active torsions:
REMARK  status: ('A' for Active; 'I' for Inactive)
REMARK    1  A    between atoms: C_1  and  C_2
REMARK    2  A    between atoms: C_3  and  C_26
REMARK    3  A    between atoms: C_5  and  N_21
REMARK    4  A    between atoms: C_6  and  C_7
REMARK    5  A    between atoms: C_7  and  C_9
REMARK    6  A    between atoms: C_7  and  N_10
REMARK    7  A    between atoms: N_13  and  C_14
REMARK                            x       y       z     vdW  Elec       q    Type
REMARK                         _______ _______ _______ _____ _____    ______ ____
ROOT
ATOM      1  C   UNL     1       0.366   1.578   0.139  0.00  0.00    +0.104 C 
ATOM      2  C   UNL     1      -0.866   2.073  -0.622  0.00  0.00    +0.033 C 
ENDROOT
BRANCH   1   8
ATOM      3  C   UNL     1       1.595   3.595   1.844  0.00  0.00    +0.045 C 
ATOM      4  C   UNL     1       2.166   3.294   0.482  0.00  0.00    -0.034 A 
ATOM      5  C   UNL     1       3.262   3.954   0.035  0.00  0.00    -0.008 A 
ATOM      6  S   UNL     1       3.496   3.235  -1.582  0.00  0.00    -0.075 S 
ATOM      7  C   UNL     1       2.122   2.095  -1.553  0.00  0.00    +0.090 A 
ATOM      8  C   UNL     1       1.582   2.337  -0.327  0.00  0.00    +0.007 A 
ATOM      9  C   UNL     1       4.071   5.023   0.724  0.00  0.00    +0.052 C 
BRANCH   7  10
ATOM     10  N   UNL     1       1.707   1.190  -2.536  0.00  0.00    -0.317 N 
ATOM     11  C   UNL     1       0.562   0.447  -2.502  0.00  0.00    +0.092 A 
ATOM     12  C   UNL     1       0.511  -0.301  -3.624  0.00  0.00    +0.019 A 
ATOM     13  C   UNL     1       1.670  -0.018  -4.374  0.00  0.00    +0.019 A 
ATOM     14  C   UNL     1       2.384   0.897  -3.686  0.00  0.00    +0.092 A 
ENDBRANCH   7  10
ENDBRANCH   1   8
BRANCH   1  15
ATOM     15  N   UNL     1       0.555   0.148  -0.116  0.00  0.00    -0.292 N 
ATOM     16  C   UNL     1      -0.296  -0.750   0.417  0.00  0.00    +0.304 C 
ATOM     17  O   UNL     1      -1.221  -0.374   1.111  0.00  0.00    -0.252 OA
ATOM     18  N   UNL     1      -0.122  -2.066   0.183  0.00  0.00    -0.267 N 
ATOM     19  H   UNL     1       1.293  -0.152  -0.670  0.00  0.00    +0.151 HD
ATOM     20  H   UNL     1       0.652  -2.371  -0.317  0.00  0.00    +0.156 HD
BRANCH  18  21
ATOM     21  C   UNL     1      -1.058  -2.993   0.660  0.00  0.00    +0.070 A 
ATOM     22  C   UNL     1      -1.734  -2.750   1.847  0.00  0.00    +0.026 A 
ATOM     23  C   UNL     1      -2.661  -3.663   2.312  0.00  0.00    +0.002 A 
ATOM     24  C   UNL     1      -2.908  -4.823   1.603  0.00  0.00    +0.003 A 
ATOM     25  C   UNL     1      -2.233  -5.072   0.422  0.00  0.00    +0.040 A 
ATOM     26  C   UNL     1      -1.308  -4.160  -0.052  0.00  0.00    +0.145 A 
ATOM     27  F   UNL     1      -0.648  -4.404  -1.206  0.00  0.00    -0.204 F 
ENDBRANCH  18  21
ENDBRANCH   1  15
TORSDOF 4
