REMARK  Name = ZINC38654597
REMARK  8 active torsions:
REMARK  status: ('A' for Active; 'I' for Inactive)
REMARK    1  A    between atoms: C_4  and  C_7
REMARK    2  A    between atoms: C_8  and  C_9
REMARK    3  A    between atoms: C_9  and  O_11
REMARK    4  A    between atoms: O_11  and  C_12
REMARK    5  A    between atoms: C_19  and  N_34
REMARK    6  A    between atoms: C_20  and  C_32
REMARK    7  A    between atoms: C_21  and  C_23
REMARK    8  A    between atoms: C_26  and  N_29
REMARK                            x       y       z     vdW  Elec       q    Type
REMARK                         _______ _______ _______ _____ _____    ______ ____
ROOT
ATOM      1  C   UNL     1       6.176  -4.792  -0.119  0.00  0.00    +0.135 A 
ATOM      2  C   UNL     1       7.394  -4.127  -0.085  0.00  0.00    +0.047 A 
ATOM      3  C   UNL     1       8.573  -4.843  -0.136  0.00  0.00    +0.012 A 
ATOM      4  C   UNL     1       8.546  -6.224  -0.220  0.00  0.00    +0.008 A 
ATOM      5  C   UNL     1       7.333  -6.894  -0.255  0.00  0.00    +0.138 A 
ATOM      6  C   UNL     1       6.146  -6.174  -0.198  0.00  0.00    +0.093 A 
ATOM      7  O   UNL     1       7.287  -8.246  -0.338  0.00  0.00    -0.441 OA
ATOM      8  C   UNL     1       8.365  -8.975  -0.005  0.00  0.00    +0.199 C 
ATOM      9  C   UNL     1       9.606  -8.437   0.043  0.00  0.00    +0.098 C 
ATOM     10  C   UNL     1       9.843  -6.988  -0.275  0.00  0.00    +0.098 C 
ENDROOT
BRANCH  10  11
ATOM     11  C   UNL     1      10.434  -6.870  -1.656  0.00  0.00    -0.035 A 
ATOM     12  C   UNL     1       9.725  -7.324  -2.752  0.00  0.00    +0.007 A 
ATOM     13  C   UNL     1      10.267  -7.216  -4.019  0.00  0.00    +0.033 A 
ATOM     14  C   UNL     1      11.518  -6.653  -4.190  0.00  0.00    +0.126 A 
ATOM     15  C   UNL     1      12.226  -6.198  -3.094  0.00  0.00    +0.033 A 
ATOM     16  C   UNL     1      11.683  -6.302  -1.827  0.00  0.00    +0.007 A 
BRANCH  14  17
ATOM     17  N   UNL     1      12.099  -6.538  -5.547  0.00  0.00    +0.056 N 
ATOM     18  O   UNL     1      11.479  -6.937  -6.505  0.00  0.00    -0.126 OA
ATOM     19  O   UNL     1      13.193  -6.046  -5.696  0.00  0.00    -0.126 OA
ENDBRANCH  14  17
ENDBRANCH  10  11
BRANCH   8  20
ATOM     20  N   UNL     1       8.203 -10.305   0.294  0.00  0.00    -0.328 N 
ATOM     21  H   UNL     1       7.320 -10.705   0.264  0.00  0.00    +0.145 HD
ATOM     22  H   UNL     1       8.972 -10.845   0.536  0.00  0.00    +0.145 HD
ENDBRANCH   8  20
BRANCH   9  23
ATOM     23  C   UNL     1      10.716  -9.267   0.405  0.00  0.00    +0.101 C 
ATOM     24  N   UNL     1      11.597  -9.924   0.692  0.00  0.00    -0.191 NA
ENDBRANCH   9  23
BRANCH   1  25
ATOM     25  O   UNL     1       5.014  -4.087  -0.070  0.00  0.00    -0.423 OA
BRANCH  25  26
ATOM     26  C   UNL     1       4.604  -3.463  -1.193  0.00  0.00    +0.337 C 
ATOM     27  O   UNL     1       5.311  -3.465  -2.183  0.00  0.00    -0.245 OA
BRANCH  26  29
ATOM     28  C   UNL     1       2.899  -2.159  -2.344  0.00  0.00    +0.015 C 
ATOM     29  C   UNL     1       3.309  -2.784  -1.221  0.00  0.00    +0.092 C 
BRANCH  28  33
ATOM     30  C   UNL     1      -0.857  -0.190  -2.424  0.00  0.00    +0.000 A 
ATOM     31  C   UNL     1      -0.055  -0.189  -3.552  0.00  0.00    +0.001 A 
ATOM     32  C   UNL     1       1.167  -0.827  -3.534  0.00  0.00    +0.008 A 
ATOM     33  C   UNL     1       1.596  -1.475  -2.372  0.00  0.00    -0.025 A 
ATOM     34  C   UNL     1       0.780  -1.471  -1.236  0.00  0.00    +0.008 A 
ATOM     35  C   UNL     1      -0.440  -0.829  -1.270  0.00  0.00    +0.001 A 
ENDBRANCH  28  33
ENDBRANCH  26  29
ENDBRANCH  25  26
ENDBRANCH   1  25
TORSDOF 8
