REMARK  Name = ZINC09591223
REMARK  4 active torsions:
REMARK  status: ('A' for Active; 'I' for Inactive)
REMARK    1  A    between atoms: N_11  and  C_12
REMARK    2  A    between atoms: C_17  and  C_18
REMARK    3  A    between atoms: C_17  and  N_55
REMARK    4  A    between atoms: N_23  and  C_24
REMARK                            x       y       z     vdW  Elec       q    Type
REMARK                         _______ _______ _______ _____ _____    ______ ____
ROOT
ATOM      1  C   UNL     1       8.848  -3.158   4.264  0.00  0.00    +0.019 C 
ENDROOT
BRANCH   1   2
ATOM      2  C   UNL     1       9.083  -2.172   5.379  0.00  0.00    +0.204 C 
ATOM      3  O   UNL     1       9.268  -2.568   6.510  0.00  0.00    -0.277 OA
ATOM      4  N   UNL     1       9.087  -0.849   5.120  0.00  0.00    -0.241 N 
ATOM      5  C   UNL     1       9.297   0.033   6.117  0.00  0.00    +0.310 C 
ATOM      6  O   UNL     1       9.483  -0.365   7.250  0.00  0.00    -0.252 OA
ATOM      7  N   UNL     1       9.302   1.355   5.857  0.00  0.00    -0.269 N 
ATOM      8  H   UNL     1       8.939  -0.532   4.215  0.00  0.00    +0.159 HD
ATOM      9  H   UNL     1       9.079   1.676   4.970  0.00  0.00    +0.156 HD
BRANCH   7  10
ATOM     10  C   UNL     1       9.629   2.267   6.870  0.00  0.00    +0.038 A 
ATOM     11  C   UNL     1      10.554   1.919   7.845  0.00  0.00    +0.027 A 
ATOM     12  C   UNL     1      10.878   2.817   8.844  0.00  0.00    +0.051 A 
ATOM     13  C   UNL     1      10.280   4.067   8.876  0.00  0.00    +0.166 A 
ATOM     14  C   UNL     1       9.352   4.418   7.899  0.00  0.00    +0.168 A 
ATOM     15  C   UNL     1       9.028   3.518   6.898  0.00  0.00    +0.073 A 
ATOM     16  O   UNL     1       8.914   5.687   8.150  0.00  0.00    -0.453 OA
ATOM     17  C   UNL     1       9.884   6.258   9.048  0.00  0.00    +0.466 C 
ATOM     18  O   UNL     1      10.424   5.116   9.739  0.00  0.00    -0.453 OA
ENDBRANCH   7  10
ENDBRANCH   1   2
BRANCH   1  24
ATOM     19  C   UNL     1      10.083  -7.213   4.821  0.00  0.00    +0.089 C 
ATOM     20  C   UNL     1      10.559  -6.138   5.802  0.00  0.00    +0.006 C 
ATOM     21  C   UNL     1      10.432  -4.762   5.145  0.00  0.00    -0.076 C 
ATOM     22  C   UNL     1       8.568  -5.516   3.793  0.00  0.00    -0.076 C 
ATOM     23  C   UNL     1       8.639  -6.915   4.409  0.00  0.00    +0.006 C 
ATOM     24  N   UNL     1       9.015  -4.526   4.796  0.00  0.00    +0.386 N 
ATOM     25  H   UNL     1       8.442  -4.627   5.642  0.00  0.00    -0.081 HD
BRANCH  19  36
ATOM     26  C   UNL     1      12.159 -12.056   4.675  0.00  0.00    +0.002 A 
ATOM     27  C   UNL     1      12.388 -11.023   3.783  0.00  0.00    +0.002 A 
ATOM     28  C   UNL     1      11.766  -9.802   3.956  0.00  0.00    +0.028 A 
ATOM     29  C   UNL     1      10.908  -9.611   5.028  0.00  0.00    +0.070 A 
ATOM     30  C   UNL     1      10.676 -10.654   5.928  0.00  0.00    +0.067 A 
ATOM     31  C   UNL     1      11.306 -11.876   5.746  0.00  0.00    +0.028 A 
ATOM     32  N   UNL     1       9.785 -10.171   6.883  0.00  0.00    -0.306 N 
ATOM     33  H   UNL     1       9.437 -10.669   7.639  0.00  0.00    +0.170 HD
ATOM     34  C   UNL     1       9.491  -8.892   6.580  0.00  0.00    +0.328 A 
ATOM     35  O   UNL     1       8.742  -8.175   7.218  0.00  0.00    -0.247 OA
ATOM     36  N   UNL     1      10.149  -8.528   5.464  0.00  0.00    -0.289 N 
ENDBRANCH  19  36
ENDBRANCH   1  24
TORSDOF 4
