REMARK  Name = ZINC23101380
REMARK  8 active torsions:
REMARK  status: ('A' for Active; 'I' for Inactive)
REMARK    1  A    between atoms: C_1  and  C_2
REMARK    2  A    between atoms: C_7  and  N_8
REMARK    3  A    between atoms: N_8  and  C_9
REMARK    4  A    between atoms: N_8  and  S_25
REMARK    5  A    between atoms: C_9  and  C_10
REMARK    6  A    between atoms: N_12  and  C_13
REMARK    7  A    between atoms: C_13  and  C_14
REMARK    8  A    between atoms: S_25  and  C_28
REMARK                            x       y       z     vdW  Elec       q    Type
REMARK                         _______ _______ _______ _____ _____    ______ ____
ROOT
ATOM      1  C   UNL     1      -1.134  -0.653   2.274  0.00  0.00    +0.232 C 
ATOM      2  O   UNL     1      -0.175  -0.306   2.931  0.00  0.00    -0.274 OA
ATOM      3  N   UNL     1      -1.731  -1.834   2.525  0.00  0.00    -0.310 N 
ATOM      4  H   UNL     1      -2.601  -2.148   1.928  0.00  0.00    +0.149 HD
ENDROOT
BRANCH   1   5
ATOM      5  C   UNL     1      -1.656   0.238   1.176  0.00  0.00    +0.226 C 
BRANCH   5   6
ATOM      6  N   UNL     1      -0.842   1.454   1.105  0.00  0.00    -0.199 N 
BRANCH   6  13
ATOM      7  C   UNL     1      -3.144   3.020   0.523  0.00  0.00    +0.046 C 
ATOM      8  C   UNL     1      -2.244   3.329   1.691  0.00  0.00    -0.028 A 
ATOM      9  C   UNL     1      -2.525   4.399   2.517  0.00  0.00    +0.005 A 
ATOM     10  C   UNL     1      -1.700   4.683   3.590  0.00  0.00    +0.000 A 
ATOM     11  C   UNL     1      -0.589   3.896   3.838  0.00  0.00    +0.002 A 
ATOM     12  C   UNL     1      -0.305   2.822   3.019  0.00  0.00    +0.025 A 
ATOM     13  C   UNL     1      -1.129   2.537   1.938  0.00  0.00    +0.054 A 
ENDBRANCH   6  13
BRANCH   6  14
ATOM     14  S   UNL     1       0.420   1.543   0.035  0.00  0.00    +0.043 S 
ATOM     15  O   UNL     1       0.901   0.210  -0.070  0.00  0.00    -0.155 OA
ATOM     16  O   UNL     1       1.253   2.576   0.544  0.00  0.00    -0.155 OA
ATOM     17  C   UNL     1      -0.333   2.062  -1.531  0.00  0.00    +0.218 C 
ENDBRANCH   6  14
ENDBRANCH   5   6
ENDBRANCH   1   5
BRANCH   3  18
ATOM     18  C   UNL     1      -1.223  -2.700   3.591  0.00  0.00    +0.141 C 
BRANCH  18  19
ATOM     19  C   UNL     1      -2.061  -3.951   3.665  0.00  0.00    -0.014 A 
ATOM     20  C   UNL     1      -1.720  -5.069   2.916  0.00  0.00    +0.010 A 
ATOM     21  C   UNL     1      -2.515  -6.196   3.012  0.00  0.00    +0.042 A 
ATOM     22  C   UNL     1      -3.624  -6.172   3.852  0.00  0.00    +0.099 A 
ATOM     23  N   UNL     1      -3.916  -5.086   4.551  0.00  0.00    -0.349 N 
ATOM     24  C   UNL     1      -3.172  -3.998   4.482  0.00  0.00    +0.089 A 
ATOM     25  N   UNL     1      -4.433  -7.298   3.959  0.00  0.00    -0.317 N 
ATOM     26  C   UNL     1      -3.673  -8.447   4.513  0.00  0.00    +0.106 C 
ATOM     27  C   UNL     1      -4.787  -9.385   5.043  0.00  0.00    +0.020 C 
ATOM     28  C   UNL     1      -5.830  -8.396   5.612  0.00  0.00    +0.020 C 
ATOM     29  C   UNL     1      -5.550  -7.061   4.898  0.00  0.00    +0.106 C 
ATOM     30  H   UNL     1      -4.798  -5.076   5.209  0.00  0.00    +0.167 HD
ENDBRANCH  18  19
ENDBRANCH   3  18
TORSDOF 6
