REMARK  Name = ZINC64131448
REMARK  8 active torsions:
REMARK  status: ('A' for Active; 'I' for Inactive)
REMARK    1  A    between atoms: C_4  and  S_7
REMARK    2  A    between atoms: S_7  and  C_8
REMARK    3  A    between atoms: C_8  and  C_9
REMARK    4  A    between atoms: C_9  and  N_10
REMARK    5  A    between atoms: C_11  and  C_13
REMARK    6  A    between atoms: C_13  and  N_14
REMARK    7  A    between atoms: C_17  and  C_22
REMARK    8  A    between atoms: C_22  and  C_23
REMARK                            x       y       z     vdW  Elec       q    Type
REMARK                         _______ _______ _______ _____ _____    ______ ____
ROOT
ATOM      1  N   UNL     1       6.104  -8.103  -0.102  0.00  0.00    -0.216 N 
ATOM      2  C   UNL     1       6.719  -8.523  -1.226  0.00  0.00    +0.244 C 
ATOM      3  O   UNL     1       6.391  -8.291  -2.370  0.00  0.00    -0.273 OA
ATOM      4  C   UNL     1       7.906  -9.343  -0.762  0.00  0.00    +0.165 C 
ATOM      5  N   UNL     1       7.814  -9.284   0.707  0.00  0.00    -0.287 N 
ATOM      6  C   UNL     1       6.734  -8.535   0.996  0.00  0.00    +0.310 C 
ATOM      7  O   UNL     1       6.370  -8.282   2.127  0.00  0.00    -0.252 OA
ATOM      8  H   UNL     1       8.416  -9.702   1.343  0.00  0.00    +0.151 HD
ENDROOT
BRANCH   1   9
ATOM      9  C   UNL     1       4.899  -7.271  -0.086  0.00  0.00    +0.213 C 
BRANCH   9  11
ATOM     10  N   UNL     1       4.342  -4.861  -0.067  0.00  0.00    -0.313 N 
ATOM     11  C   UNL     1       5.292  -5.816  -0.082  0.00  0.00    +0.231 C 
ATOM     12  O   UNL     1       6.464  -5.505  -0.092  0.00  0.00    -0.274 OA
ATOM     13  H   UNL     1       3.404  -5.109  -0.059  0.00  0.00    +0.149 HD
BRANCH  10  14
ATOM     14  C   UNL     1       4.724  -3.447  -0.064  0.00  0.00    +0.115 C 
BRANCH  14  15
ATOM     15  C   UNL     1       3.465  -2.578  -0.046  0.00  0.00    +0.093 C 
BRANCH  15  16
ATOM     16  S   UNL     1       3.939  -0.827  -0.042  0.00  0.00    -0.124 S 
BRANCH  16  20
ATOM     17  C   UNL     1      -0.017   1.379   0.010  0.00  0.00    +0.000 A 
ATOM     18  C   UNL     1       1.169   2.090   0.002  0.00  0.00    +0.001 A 
ATOM     19  C   UNL     1       2.377   1.421  -0.013  0.00  0.00    +0.015 A 
ATOM     20  C   UNL     1       2.400   0.031  -0.021  0.00  0.00    +0.008 A 
ATOM     21  C   UNL     1       1.206  -0.680  -0.013  0.00  0.00    +0.015 A 
ATOM     22  C   UNL     1       0.002  -0.004   0.002  0.00  0.00    +0.001 A 
ENDBRANCH  16  20
ENDBRANCH  15  16
ENDBRANCH  14  15
ENDBRANCH  10  14
ENDBRANCH   9  11
ENDBRANCH   1   9
BRANCH   4  23
ATOM     23  C   UNL     1       7.789 -10.786  -1.255  0.00  0.00    +0.065 C 
BRANCH  23  24
ATOM     24  C   UNL     1       9.037 -11.546  -0.886  0.00  0.00    -0.039 C 
ATOM     25  C   UNL     1       9.223 -12.321   0.207  0.00  0.00    -0.001 A 
ATOM     26  C   UNL     1       8.354 -12.675   1.336  0.00  0.00    +0.010 A 
ATOM     27  C   UNL     1       8.833 -13.491   2.302  0.00  0.00    +0.001 A 
ATOM     28  C   UNL     1      10.135 -14.007   2.252  0.00  0.00    +0.002 A 
ATOM     29  C   UNL     1      10.992 -13.728   1.248  0.00  0.00    +0.026 A 
ATOM     30  C   UNL     1      10.594 -12.880   0.178  0.00  0.00    +0.043 A 
ATOM     31  N   UNL     1      11.230 -12.465  -0.891  0.00  0.00    -0.380 N 
ATOM     32  C   UNL     1      10.332 -11.601  -1.665  0.00  0.00    +0.144 C 
ATOM     33  H   UNL     1      12.142 -12.695  -1.132  0.00  0.00    +0.160 HD
ENDBRANCH  23  24
ENDBRANCH   4  23
TORSDOF 8
