REMARK  Name = ZINC63830630
REMARK  12 active torsions:
REMARK  status: ('A' for Active; 'I' for Inactive)
REMARK    1  A    between atoms: C_1  and  C_2
REMARK    2  A    between atoms: C_2  and  C_3
REMARK    3  A    between atoms: C_3  and  N_4
REMARK    4  A    between atoms: C_8  and  S_29
REMARK    5  A    between atoms: C_12  and  C_13
REMARK    6  A    between atoms: C_13  and  C_14
REMARK    7  A    between atoms: C_14  and  C_15
REMARK    8  A    between atoms: N_17  and  C_18
REMARK    9  A    between atoms: C_18  and  C_19
REMARK   10  A    between atoms: C_21  and  C_28
REMARK   11  A    between atoms: C_23  and  C_27
REMARK   12  A    between atoms: S_29  and  N_32
REMARK                            x       y       z     vdW  Elec       q    Type
REMARK                         _______ _______ _______ _____ _____    ______ ____
ROOT
ATOM      1  N   UNL     1       0.738  -1.962  -1.265  0.00  0.00    -0.328 N 
ATOM      2  C   UNL     1       1.714  -2.770  -0.717  0.00  0.00    +0.069 A 
ATOM      3  C   UNL     1       2.900  -2.529  -0.036  0.00  0.00    +0.030 A 
ATOM      4  C   UNL     1       3.671  -3.589   0.390  0.00  0.00    +0.030 A 
ATOM      5  C   UNL     1       3.269  -4.894   0.143  0.00  0.00    +0.108 A 
ATOM      6  C   UNL     1       2.107  -5.151  -0.526  0.00  0.00    +0.058 A 
ATOM      7  C   UNL     1       1.309  -4.092  -0.967  0.00  0.00    +0.091 A 
ATOM      8  N   UNL     1       0.131  -4.024  -1.639  0.00  0.00    -0.232 NA
ATOM      9  C   UNL     1      -0.205  -2.779  -1.808  0.00  0.00    +0.111 A 
ENDROOT
BRANCH   5  10
ATOM     10  S   UNL     1       4.271  -6.234   0.698  0.00  0.00    +0.061 S 
ATOM     11  O   UNL     1       3.958  -7.345  -0.131  0.00  0.00    -0.153 OA
ATOM     12  O   UNL     1       5.592  -5.728   0.825  0.00  0.00    -0.153 OA
BRANCH  10  13
ATOM     13  N   UNL     1       3.764  -6.625   2.225  0.00  0.00    -0.177 NA
ATOM     14  C   UNL     1       4.281  -6.047   3.474  0.00  0.00    +0.109 C 
ATOM     15  C   UNL     1       3.534  -6.729   4.638  0.00  0.00    +0.018 C 
ATOM     16  C   UNL     1       3.041  -8.057   4.005  0.00  0.00    +0.018 C 
ATOM     17  C   UNL     1       2.715  -7.606   2.557  0.00  0.00    +0.109 C 
ENDBRANCH  10  13
ENDBRANCH   5  10
BRANCH   1  18
ATOM     18  C   UNL     1       0.718  -0.497  -1.257  0.00  0.00    +0.123 C 
BRANCH  18  20
ATOM     19  C   UNL     1      -0.019   1.526   0.010  0.00  0.00    +0.005 C 
ATOM     20  C   UNL     1       0.002  -0.004   0.002  0.00  0.00    +0.018 C 
ENDBRANCH  18  20
ENDBRANCH   1  18
BRANCH   9  21
ATOM     21  C   UNL     1      -1.455  -2.308  -2.507  0.00  0.00    +0.083 C 
BRANCH  21  22
ATOM     22  C   UNL     1      -1.169  -2.132  -3.999  0.00  0.00    +0.103 C 
BRANCH  22  23
ATOM     23  C   UNL     1      -2.419  -1.662  -4.698  0.00  0.00    +0.213 C 
ATOM     24  O   UNL     1      -3.438  -1.485  -4.064  0.00  0.00    -0.276 OA
ATOM     25  N   UNL     1      -2.404  -1.438  -6.027  0.00  0.00    -0.314 N 
ATOM     26  H   UNL     1      -1.589  -1.579  -6.534  0.00  0.00    +0.149 HD
BRANCH  25  27
ATOM     27  C   UNL     1      -3.619  -0.981  -6.706  0.00  0.00    +0.121 C 
BRANCH  27  28
ATOM     28  C   UNL     1      -3.333  -0.804  -8.199  0.00  0.00    +0.120 C 
ATOM     29  C   UNL     1      -4.651  -0.538  -8.900  0.00  0.00    -0.058 C 
ATOM     30  C   UNL     1      -4.760   0.606  -9.594  0.00  0.00    +0.020 C 
ATOM     31  C   UNL     1      -3.690   1.518  -9.664  0.00  0.00    +0.031 C 
ATOM     32  N   UNL     1      -2.536   1.340  -9.081  0.00  0.00    -0.185 NA
ATOM     33  C   UNL     1      -2.259   0.254  -8.348  0.00  0.00    +0.245 C 
ATOM     34  O   UNL     1      -1.175   0.120  -7.819  0.00  0.00    -0.273 OA
ATOM     35  C   UNL     1      -3.890   2.780 -10.463  0.00  0.00    +0.063 C 
ATOM     36  C   UNL     1      -5.793  -1.519  -8.822  0.00  0.00    +0.040 C 
ENDBRANCH  27  28
ENDBRANCH  25  27
ENDBRANCH  22  23
ENDBRANCH  21  22
ENDBRANCH   9  21
TORSDOF 9
