REMARK  Name = ZINC63690656
REMARK  7 active torsions:
REMARK  status: ('A' for Active; 'I' for Inactive)
REMARK    1  A    between atoms: C_7  and  C_10
REMARK    2  A    between atoms: C_10  and  C_11
REMARK    3  A    between atoms: C_11  and  N_12
REMARK    4  A    between atoms: C_13  and  C_15
REMARK    5  A    between atoms: C_19  and  S_22
REMARK    6  A    between atoms: S_22  and  C_23
REMARK    7  A    between atoms: C_23  and  C_24
REMARK                            x       y       z     vdW  Elec       q    Type
REMARK                         _______ _______ _______ _____ _____    ______ ____
ROOT
ATOM      1  N   UNL     1      -0.276  -4.945  -1.464  0.00  0.00    -0.311 N 
ATOM      2  C   UNL     1      -0.630  -5.553  -2.613  0.00  0.00    +0.238 C 
ATOM      3  O   UNL     1      -0.035  -5.299  -3.645  0.00  0.00    -0.271 OA
ATOM      4  H   UNL     1      -0.750  -5.147  -0.642  0.00  0.00    +0.149 HD
ENDROOT
BRANCH   2   5
ATOM      5  C   UNL     1      -1.694  -6.485  -2.622  0.00  0.00    +0.086 C 
ATOM      6  C   UNL     1      -2.126  -7.005  -3.789  0.00  0.00    +0.020 C 
ATOM      7  C   UNL     1      -3.163  -8.120  -3.849  0.00  0.00    +0.122 C 
ATOM      8  S   UNL     1      -2.666  -8.921  -5.436  0.00  0.00    -0.122 S 
ATOM      9  C   UNL     1      -1.772  -7.475  -6.145  0.00  0.00    +0.188 C 
ATOM     10  N   UNL     1      -1.675  -6.568  -4.983  0.00  0.00    -0.326 N 
ATOM     11  H   UNL     1      -1.294  -5.681  -5.075  0.00  0.00    +0.148 HD
BRANCH   9  12
ATOM     12  S   UNL     1      -0.127  -7.959  -6.738  0.00  0.00    -0.123 S 
BRANCH  12  13
ATOM     13  C   UNL     1       0.689  -8.636  -5.266  0.00  0.00    +0.106 C 
BRANCH  13  14
ATOM     14  C   UNL     1       2.083  -9.082  -5.624  0.00  0.00    -0.037 A 
ATOM     15  C   UNL     1       2.303 -10.374  -6.063  0.00  0.00    +0.007 A 
ATOM     16  C   UNL     1       3.581 -10.784  -6.393  0.00  0.00    +0.038 A 
ATOM     17  C   UNL     1       4.641  -9.900  -6.283  0.00  0.00    +0.123 A 
ATOM     18  C   UNL     1       4.419  -8.606  -5.843  0.00  0.00    +0.038 A 
ATOM     19  C   UNL     1       3.140  -8.197  -5.519  0.00  0.00    +0.007 A 
ATOM     20  F   UNL     1       5.891 -10.300  -6.604  0.00  0.00    -0.205 F 
ENDBRANCH  13  14
ENDBRANCH  12  13
ENDBRANCH   9  12
ENDBRANCH   2   5
BRANCH   1  21
ATOM     21  C   UNL     1       0.826  -3.980  -1.455  0.00  0.00    +0.109 C 
BRANCH  21  22
ATOM     22  C   UNL     1       1.022  -3.442  -0.036  0.00  0.00    +0.052 C 
BRANCH  22  29
ATOM     23  C   UNL     1       1.137   1.133  -0.375  0.00  0.00    +0.001 A 
ATOM     24  C   UNL     1       2.432   1.668  -0.320  0.00  0.00    +0.002 A 
ATOM     25  C   UNL     1       3.533   0.900  -0.180  0.00  0.00    +0.026 A 
ATOM     26  C   UNL     1       3.416  -0.514  -0.081  0.00  0.00    +0.043 A 
ATOM     27  N   UNL     1       4.315  -1.457   0.057  0.00  0.00    -0.380 N 
ATOM     28  C   UNL     1       3.631  -2.754   0.105  0.00  0.00    +0.144 C 
ATOM     29  C   UNL     1       2.155  -2.449  -0.027  0.00  0.00    -0.040 C 
ATOM     30  C   UNL     1       2.059  -1.104  -0.136  0.00  0.00    -0.001 A 
ATOM     31  C   UNL     1       0.914  -0.198  -0.289  0.00  0.00    +0.010 A 
ATOM     32  H   UNL     1       5.274  -1.321   0.117  0.00  0.00    +0.160 HD
ENDBRANCH  22  29
ENDBRANCH  21  22
ENDBRANCH   1  21
TORSDOF 7
