REMARK  Name = ZINC39601308
REMARK  9 active torsions:
REMARK  status: ('A' for Active; 'I' for Inactive)
REMARK    1  A    between atoms: C_1  and  C_2
REMARK    2  A    between atoms: C_2  and  C_3
REMARK    3  A    between atoms: C_2  and  C_4
REMARK    4  A    between atoms: C_4  and  C_5
REMARK    5  A    between atoms: C_5  and  N_6
REMARK    6  A    between atoms: C_7  and  C_9
REMARK    7  A    between atoms: C_20  and  C_22
REMARK    8  A    between atoms: C_27  and  S_28
REMARK    9  A    between atoms: S_28  and  C_29
REMARK                            x       y       z     vdW  Elec       q    Type
REMARK                         _______ _______ _______ _____ _____    ______ ____
ROOT
ATOM      1  C   UNL     1      -5.734  -0.926  -2.308  0.00  0.00    +0.100 C 
ATOM      2  C   UNL     1      -6.507  -0.380  -1.087  0.00  0.00    +0.121 C 
ATOM      3  N   UNL     1      -7.212   0.820  -1.595  0.00  0.00    -0.296 N 
ATOM      4  C   UNL     1      -7.666   0.433  -2.952  0.00  0.00    +0.115 C 
ATOM      5  C   UNL     1      -6.500  -0.393  -3.531  0.00  0.00    -0.004 C 
ATOM      6  C   UNL     1      -5.594   0.496  -4.376  0.00  0.00    -0.010 C 
ATOM      7  C   UNL     1      -6.361   0.968  -5.615  0.00  0.00    -0.082 C 
ATOM      8  N   UNL     1      -6.801  -0.196  -6.393  0.00  0.00    +0.379 N 
ATOM      9  C   UNL     1      -7.745  -0.997  -5.604  0.00  0.00    -0.082 C 
ATOM     10  C   UNL     1      -7.037  -1.552  -4.365  0.00  0.00    -0.010 C 
ATOM     11  C   UNL     1      -7.397   1.998  -0.966  0.00  0.00    +0.249 C 
ATOM     12  O   UNL     1      -6.878   2.198   0.115  0.00  0.00    -0.270 OA
ATOM     13  H   UNL     1      -7.253   0.118  -7.239  0.00  0.00    -0.086 HD
ATOM     14  H   UNL     1      -6.000  -0.762  -6.632  0.00  0.00    -0.086 HD
ENDROOT
BRANCH  11  15
ATOM     15  C   UNL     1      -8.230   3.042  -1.589  0.00  0.00    +0.069 A 
ATOM     16  C   UNL     1      -9.358   2.699  -2.344  0.00  0.00    +0.017 A 
ATOM     17  C   UNL     1     -10.107   3.717  -2.907  0.00  0.00    +0.020 A 
ATOM     18  C   UNL     1      -9.726   5.033  -2.710  0.00  0.00    +0.112 A 
ATOM     19  N   UNL     1      -8.661   5.336  -1.995  0.00  0.00    -0.248 NA
ATOM     20  C   UNL     1      -7.911   4.402  -1.429  0.00  0.00    +0.114 A 
BRANCH  20  21
ATOM     21  S   UNL     1      -6.502   4.866  -0.478  0.00  0.00    -0.069 S 
BRANCH  21  22
ATOM     22  C   UNL     1      -6.412   6.614  -0.675  0.00  0.00    +0.014 A 
ATOM     23  C   UNL     1      -6.984   7.453   0.274  0.00  0.00    +0.015 A 
ATOM     24  C   UNL     1      -6.910   8.823   0.116  0.00  0.00    +0.001 A 
ATOM     25  C   UNL     1      -6.269   9.360  -0.985  0.00  0.00    +0.000 A 
ATOM     26  C   UNL     1      -5.699   8.529  -1.932  0.00  0.00    +0.001 A 
ATOM     27  C   UNL     1      -5.763   7.158  -1.777  0.00  0.00    +0.015 A 
ENDBRANCH  21  22
ENDBRANCH  20  21
ENDBRANCH  11  15
BRANCH   1  29
ATOM     28  N   UNL     1      -3.329  -1.151  -2.841  0.00  0.00    -0.315 N 
ATOM     29  C   UNL     1      -4.319  -0.407  -2.309  0.00  0.00    +0.218 C 
ATOM     30  O   UNL     1      -4.071   0.679  -1.831  0.00  0.00    -0.275 OA
ATOM     31  H   UNL     1      -3.527  -2.021  -3.223  0.00  0.00    +0.149 HD
BRANCH  28  32
ATOM     32  C   UNL     1      -1.954  -0.647  -2.841  0.00  0.00    +0.104 C 
BRANCH  32  33
ATOM     33  C   UNL     1      -1.033  -1.678  -3.498  0.00  0.00    +0.022 C 
BRANCH  33  35
ATOM     34  C   UNL     1       0.901  -1.025  -2.058  0.00  0.00    +0.007 C 
ATOM     35  C   UNL     1       0.404  -1.151  -3.499  0.00  0.00    -0.016 C 
ATOM     36  C   UNL     1       1.302  -2.123  -4.266  0.00  0.00    +0.007 C 
ENDBRANCH  33  35
ENDBRANCH  32  33
ENDBRANCH  28  32
ENDBRANCH   1  29
TORSDOF 7
