REMARK  Name = ZINC41584044
REMARK  14 active torsions:
REMARK  status: ('A' for Active; 'I' for Inactive)
REMARK    1  A    between atoms: C_1  and  C_2
REMARK    2  A    between atoms: C_2  and  C_3
REMARK    3  A    between atoms: C_3  and  C_4
REMARK    4  A    between atoms: C_4  and  N_5
REMARK    5  A    between atoms: N_5  and  C_6
REMARK    6  A    between atoms: N_5  and  C_7
REMARK    7  A    between atoms: C_7  and  C_8
REMARK    8  A    between atoms: C_9  and  O_30
REMARK    9  A    between atoms: C_11  and  C_29
REMARK   10  A    between atoms: C_16  and  C_17
REMARK   11  A    between atoms: C_21  and  O_25
REMARK   12  A    between atoms: C_22  and  O_23
REMARK   13  A    between atoms: O_23  and  C_24
REMARK   14  A    between atoms: O_25  and  C_26
REMARK                            x       y       z     vdW  Elec       q    Type
REMARK                         _______ _______ _______ _____ _____    ______ ____
ROOT
ATOM      1  C   UNL     1       2.257  -3.541  -4.169  0.00  0.00    +0.020 A 
ATOM      2  C   UNL     1       1.528  -3.523  -5.347  0.00  0.00    +0.122 A 
ATOM      3  C   UNL     1       2.051  -4.076  -6.512  0.00  0.00    +0.050 A 
ATOM      4  C   UNL     1       3.293  -4.645  -6.505  0.00  0.00    -0.033 A 
ATOM      5  C   UNL     1       4.039  -4.671  -5.326  0.00  0.00    +0.071 A 
ATOM      6  C   UNL     1       3.525  -4.111  -4.145  0.00  0.00    +0.145 A 
ATOM      7  O   UNL     1       4.424  -4.248  -3.147  0.00  0.00    -0.451 OA
ATOM      8  C   UNL     1       5.550  -4.873  -3.566  0.00  0.00    +0.176 C 
ATOM      9  C   UNL     1       6.637  -5.161  -2.806  0.00  0.00    +0.062 C 
ATOM     10  C   UNL     1       5.375  -5.195  -4.989  0.00  0.00    +0.232 C 
ATOM     11  O   UNL     1       6.164  -5.757  -5.729  0.00  0.00    -0.283 OA
ATOM     12  C   UNL     1       3.857  -5.244  -7.768  0.00  0.00    +0.045 C 
ENDROOT
BRANCH   9  13
ATOM     13  C   UNL     1       6.710  -4.684  -1.419  0.00  0.00    +0.024 A 
ATOM     14  C   UNL     1       5.551  -4.259  -0.758  0.00  0.00    +0.012 A 
ATOM     15  C   UNL     1       5.625  -3.814   0.542  0.00  0.00    +0.004 A 
ATOM     16  C   UNL     1       6.842  -3.783   1.204  0.00  0.00    +0.049 A 
ATOM     17  C   UNL     1       7.998  -4.200   0.565  0.00  0.00    +0.162 A 
ATOM     18  C   UNL     1       7.941  -4.658  -0.746  0.00  0.00    +0.169 A 
BRANCH  18  19
ATOM     19  O   UNL     1       9.072  -5.073  -1.374  0.00  0.00    -0.491 OA
ATOM     20  C   UNL     1       9.815  -4.085  -2.091  0.00  0.00    +0.277 C 
ENDBRANCH  18  19
BRANCH  17  21
ATOM     21  O   UNL     1       9.188  -4.166   1.222  0.00  0.00    -0.491 OA
ATOM     22  C   UNL     1       9.172  -3.688   2.569  0.00  0.00    +0.277 C 
ENDBRANCH  17  21
ENDBRANCH   9  13
BRANCH   2  23
ATOM     23  O   UNL     1       0.293  -2.960  -5.364  0.00  0.00    -0.506 OA
ATOM     24  H   UNL     1       0.293  -2.017  -5.579  0.00  0.00    +0.292 HD
ENDBRANCH   2  23
BRANCH   1  25
ATOM     25  C   UNL     1       1.679  -2.938  -2.915  0.00  0.00    -0.036 C 
BRANCH  25  26
ATOM     26  N   UNL     1       2.047  -1.518  -2.839  0.00  0.00    +0.381 N 
ATOM     27  C   UNL     1       3.504  -1.397  -2.692  0.00  0.00    -0.096 C 
ATOM     28  H   UNL     1       1.754  -1.050  -3.683  0.00  0.00    -0.082 HD
BRANCH  26  29
ATOM     29  C   UNL     1       1.385  -0.902  -1.681  0.00  0.00    -0.079 C 
BRANCH  29  30
ATOM     30  C   UNL     1       1.668   0.602  -1.673  0.00  0.00    -0.019 C 
BRANCH  30  32
ATOM     31  C   UNL     1       1.261   2.747  -0.460  0.00  0.00    +0.004 C 
ATOM     32  C   UNL     1       0.979   1.244  -0.468  0.00  0.00    -0.005 C 
ENDBRANCH  30  32
ENDBRANCH  29  30
ENDBRANCH  26  29
ENDBRANCH  25  26
ENDBRANCH   1  25
TORSDOF 9
