REMARK  Name = ZINC16653015
REMARK  11 active torsions:
REMARK  status: ('A' for Active; 'I' for Inactive)
REMARK    1  A    between atoms: C_1  and  C_2
REMARK    2  A    between atoms: C_6  and  N_9
REMARK    3  A    between atoms: C_7  and  C_8
REMARK    4  A    between atoms: N_12  and  C_13
REMARK    5  A    between atoms: N_12  and  C_20
REMARK    6  A    between atoms: C_13  and  C_14
REMARK    7  A    between atoms: C_20  and  C_21
REMARK    8  A    between atoms: N_23  and  C_24
REMARK    9  A    between atoms: N_23  and  C_34
REMARK   10  A    between atoms: C_24  and  C_25
REMARK   11  A    between atoms: C_34  and  C_35
REMARK                            x       y       z     vdW  Elec       q    Type
REMARK                         _______ _______ _______ _____ _____    ______ ____
ROOT
ATOM      1  C   UNL     1      -1.822   2.476   3.951  0.00  0.00    +0.205 C 
ENDROOT
BRANCH   1   5
ATOM      2  N   UNL     1      -4.702   0.492   2.815  0.00  0.00    -0.269 N 
ATOM      3  C   UNL     1      -3.739   1.012   3.601  0.00  0.00    +0.307 C 
ATOM      4  O   UNL     1      -3.653   0.671   4.765  0.00  0.00    -0.252 OA
ATOM      5  N   UNL     1      -2.870   1.910   3.097  0.00  0.00    -0.274 N 
ATOM      6  H   UNL     1      -4.822   0.823   1.911  0.00  0.00    +0.156 HD
BRANCH   2  12
ATOM      7  C   UNL     1      -8.977  -1.931   2.650  0.00  0.00    +0.044 C 
ATOM      8  C   UNL     1      -7.606  -1.723   3.241  0.00  0.00    -0.046 A 
ATOM      9  C   UNL     1      -7.165  -2.538   4.267  0.00  0.00    +0.004 A 
ATOM     10  C   UNL     1      -5.909  -2.350   4.812  0.00  0.00    +0.002 A 
ATOM     11  C   UNL     1      -5.088  -1.349   4.329  0.00  0.00    +0.023 A 
ATOM     12  C   UNL     1      -5.530  -0.526   3.303  0.00  0.00    +0.038 A 
ATOM     13  C   UNL     1      -6.792  -0.717   2.757  0.00  0.00    -0.026 A 
ATOM     14  C   UNL     1      -7.274   0.171   1.639  0.00  0.00    +0.046 C 
ENDBRANCH   2  12
BRANCH   5  15
ATOM     15  C   UNL     1      -2.972   2.322   1.694  0.00  0.00    +0.141 C 
BRANCH  15  16
ATOM     16  C   UNL     1      -2.120   1.393   0.827  0.00  0.00    +0.136 C 
ATOM     17  C   UNL     1      -2.214   1.809  -0.658  0.00  0.00    +0.035 C 
ATOM     18  C   UNL     1      -0.789   1.568  -1.206  0.00  0.00    +0.031 C 
ATOM     19  C   UNL     1      -0.004   1.035   0.013  0.00  0.00    +0.160 C 
ATOM     20  O   UNL     1      -0.720   1.534   1.164  0.00  0.00    -0.375 OA
ENDBRANCH  15  16
ENDBRANCH   5  15
ENDBRANCH   1   5
BRANCH   1  21
ATOM     21  C   UNL     1      -2.337   3.725   4.617  0.00  0.00    +0.234 C 
ATOM     22  O   UNL     1      -3.468   4.106   4.400  0.00  0.00    -0.274 OA
ATOM     23  N   UNL     1      -1.542   4.419   5.455  0.00  0.00    -0.289 N 
BRANCH  23  24
ATOM     24  C   UNL     1      -2.043   5.634   6.103  0.00  0.00    +0.143 C 
BRANCH  24  25
ATOM     25  C   UNL     1      -2.686   5.273   7.417  0.00  0.00    -0.026 A 
ATOM     26  C   UNL     1      -4.035   4.975   7.466  0.00  0.00    +0.009 A 
ATOM     27  C   UNL     1      -4.628   4.639   8.669  0.00  0.00    +0.050 A 
ATOM     28  C   UNL     1      -3.874   4.611   9.830  0.00  0.00    +0.166 A 
ATOM     29  C   UNL     1      -2.516   4.917   9.782  0.00  0.00    +0.167 A 
ATOM     30  C   UNL     1      -1.927   5.247   8.572  0.00  0.00    +0.054 A 
ATOM     31  O   UNL     1      -2.002   4.820  11.043  0.00  0.00    -0.453 OA
ATOM     32  C   UNL     1      -2.965   4.056  11.793  0.00  0.00    +0.466 C 
ATOM     33  O   UNL     1      -4.211   4.322  11.121  0.00  0.00    -0.453 OA
ENDBRANCH  24  25
ENDBRANCH  23  24
BRANCH  23  34
ATOM     34  C   UNL     1      -0.176   3.959   5.717  0.00  0.00    +0.182 C 
BRANCH  34  35
ATOM     35  C   UNL     1       0.764   4.579   4.715  0.00  0.00    +0.122 A 
ATOM     36  C   UNL     1       1.407   5.751   4.860  0.00  0.00    +0.046 A 
ATOM     37  C   UNL     1       2.179   5.942   3.691  0.00  0.00    +0.041 A 
ATOM     38  C   UNL     1       1.955   4.879   2.898  0.00  0.00    +0.195 A 
ATOM     39  O   UNL     1       1.097   4.056   3.523  0.00  0.00    -0.466 OA
ENDBRANCH  34  35
ENDBRANCH  23  34
ENDBRANCH   1  21
TORSDOF 9
