REMARK  Name = ZINC09409955
REMARK  6 active torsions:
REMARK  status: ('A' for Active; 'I' for Inactive)
REMARK    1  A    between atoms: C_1  and  C_2
REMARK    2  A    between atoms: C_2  and  C_4
REMARK    3  A    between atoms: C_2  and  N_20
REMARK    4  A    between atoms: C_21  and  C_23
REMARK    5  A    between atoms: C_23  and  O_24
REMARK    6  A    between atoms: O_24  and  C_25
REMARK                            x       y       z     vdW  Elec       q    Type
REMARK                         _______ _______ _______ _____ _____    ______ ____
ROOT
ATOM      1  C   UNL     1       0.027   1.303  -0.061  0.00  0.00    +0.236 C 
ATOM      2  O   UNL     1       0.272   0.172   0.301  0.00  0.00    -0.274 OA
ATOM      3  N   UNL     1       1.014   2.088  -0.535  0.00  0.00    -0.300 N 
ATOM      4  C   UNL     1       0.714   3.416  -1.088  0.00  0.00    +0.107 C 
ATOM      5  C   UNL     1       1.312   3.517  -2.490  0.00  0.00    +0.013 C 
ATOM      6  C   UNL     1       2.802   3.179  -2.433  0.00  0.00    -0.020 C 
ATOM      7  C   UNL     1       2.989   1.748  -1.927  0.00  0.00    +0.013 C 
ATOM      8  C   UNL     1       2.410   1.630  -0.513  0.00  0.00    +0.107 C 
ATOM      9  C   UNL     1       3.405   3.314  -3.808  0.00  0.00    +0.051 A 
ATOM     10  C   UNL     1       4.162   4.371  -4.183  0.00  0.00    +0.035 A 
ATOM     11  N   UNL     1       4.533   4.161  -5.473  0.00  0.00    -0.348 N 
ATOM     12  H   UNL     1       5.099   4.763  -6.035  0.00  0.00    +0.166 HD
ATOM     13  C   UNL     1       3.991   2.979  -5.852  0.00  0.00    +0.196 A 
ATOM     14  N   UNL     1       3.318   2.482  -4.846  0.00  0.00    -0.242 NA
ATOM     15  C   UNL     1       4.483   5.529  -3.273  0.00  0.00    +0.036 C 
ATOM     16  C   UNL     1       3.513   5.477  -2.084  0.00  0.00    -0.075 C 
ATOM     17  N   UNL     1       3.491   4.112  -1.516  0.00  0.00    +0.387 N 
ATOM     18  H   UNL     1       4.456   3.792  -1.370  0.00  0.00    -0.085 HD
ATOM     19  H   UNL     1       2.996   4.129  -0.617  0.00  0.00    -0.085 HD
ENDROOT
BRANCH   1  21
ATOM     20  C   UNL     1      -1.512   2.779   1.206  0.00  0.00    +0.038 C 
ATOM     21  C   UNL     1      -1.384   1.828   0.014  0.00  0.00    +0.156 C 
BRANCH  21  22
ATOM     22  N   UNL     1      -2.314   0.709   0.180  0.00  0.00    -0.301 N 
ATOM     23  C   UNL     1      -3.595   0.832  -0.221  0.00  0.00    +0.251 C 
ATOM     24  O   UNL     1      -3.978   1.869  -0.719  0.00  0.00    -0.272 OA
ATOM     25  H   UNL     1      -2.008  -0.121   0.578  0.00  0.00    +0.150 HD
BRANCH  23  26
ATOM     26  C   UNL     1      -4.552  -0.320  -0.050  0.00  0.00    +0.324 C 
BRANCH  26  27
ATOM     27  O   UNL     1      -5.839   0.052  -0.546  0.00  0.00    -0.483 OA
BRANCH  27  28
ATOM     28  C   UNL     1      -6.825  -0.880  -0.467  0.00  0.00    +0.121 A 
ATOM     29  C   UNL     1      -6.556  -2.130   0.073  0.00  0.00    +0.047 A 
ATOM     30  C   UNL     1      -7.561  -3.074   0.158  0.00  0.00    +0.023 A 
ATOM     31  C   UNL     1      -8.831  -2.779  -0.304  0.00  0.00    +0.041 A 
ATOM     32  C   UNL     1      -9.099  -1.535  -0.848  0.00  0.00    +0.023 A 
ATOM     33  C   UNL     1      -8.098  -0.586  -0.930  0.00  0.00    +0.047 A 
ATOM     34 CL   UNL     1     -10.090  -3.970  -0.202  0.00  0.00    -0.084 Cl
ENDBRANCH  27  28
ENDBRANCH  26  27
ENDBRANCH  23  26
ENDBRANCH  21  22
ENDBRANCH   1  21
TORSDOF 5
