REMARK  Name = ZINC27550559
REMARK  10 active torsions:
REMARK  status: ('A' for Active; 'I' for Inactive)
REMARK    1  A    between atoms: C_1  and  C_2
REMARK    2  A    between atoms: C_4  and  C_9
REMARK    3  A    between atoms: C_5  and  S_7
REMARK    4  A    between atoms: S_7  and  C_8
REMARK    5  A    between atoms: C_11  and  C_33
REMARK    6  A    between atoms: C_12  and  N_32
REMARK    7  A    between atoms: N_13  and  C_23
REMARK    8  A    between atoms: C_19  and  C_21
REMARK    9  A    between atoms: C_19  and  C_22
REMARK   10  A    between atoms: C_27  and  N_29
REMARK                            x       y       z     vdW  Elec       q    Type
REMARK                         _______ _______ _______ _____ _____    ______ ____
ROOT
ATOM      1  C   UNL     1      -0.035   7.949  -0.780  0.00  0.00    +0.099 C 
ATOM      2  C   UNL     1      -1.296   7.216  -0.430  0.00  0.00    +0.077 C 
ATOM      3  C   UNL     1      -1.270   5.910  -0.061  0.00  0.00    +0.107 C 
ATOM      4  N   UNL     1      -0.071   5.236   0.008  0.00  0.00    -0.260 N 
ATOM      5  C   UNL     1       1.109   5.925   0.110  0.00  0.00    +0.025 C 
ATOM      6  C   UNL     1       1.180   7.223  -0.260  0.00  0.00    +0.025 C 
ATOM      7  C   UNL     1       2.388   7.936  -0.167  0.00  0.00    +0.162 C 
ATOM      8  O   UNL     1       2.414   9.108  -0.489  0.00  0.00    -0.292 OA
ATOM      9  C   UNL     1       3.647   7.277   0.325  0.00  0.00    +0.086 C 
ATOM     10  C   UNL     1       3.587   5.781  -0.002  0.00  0.00    -0.023 C 
ATOM     11  C   UNL     1       2.322   5.198   0.632  0.00  0.00    +0.058 C 
ATOM     12  C   UNL     1       3.538   5.587  -1.519  0.00  0.00    +0.011 C 
ATOM     13  C   UNL     1       4.822   5.080   0.567  0.00  0.00    +0.011 C 
ENDROOT
BRANCH   1  17
ATOM     14  C   UNL     1       0.260   6.021  -5.485  0.00  0.00    +0.051 C 
ATOM     15  C   UNL     1       0.199   7.085  -4.419  0.00  0.00    -0.012 A 
ATOM     16  C   UNL     1       0.114   6.940  -3.075  0.00  0.00    +0.016 A 
ATOM     17  C   UNL     1       0.067   8.070  -2.279  0.00  0.00    -0.014 A 
ATOM     18  C   UNL     1       0.120   9.295  -2.874  0.00  0.00    +0.049 A 
ATOM     19  S   UNL     1       0.230   8.860  -4.602  0.00  0.00    -0.087 S 
BRANCH  18  20
ATOM     20  S   UNL     1       0.087  10.893  -2.132  0.00  0.00    -0.121 S 
ATOM     21  C   UNL     1       0.194  12.033  -3.539  0.00  0.00    +0.090 C 
ENDBRANCH  18  20
ENDBRANCH   1  17
BRANCH   4  22
ATOM     22  C   UNL     1      -0.058   3.836  -0.022  0.00  0.00    +0.042 A 
ATOM     23  C   UNL     1      -0.144   3.114   1.162  0.00  0.00    +0.024 A 
ATOM     24  C   UNL     1      -0.131   1.734   1.129  0.00  0.00    +0.004 A 
ATOM     25  C   UNL     1      -0.033   1.070  -0.080  0.00  0.00    +0.033 A 
ATOM     26  C   UNL     1       0.058   1.786  -1.260  0.00  0.00    +0.128 A 
ATOM     27  C   UNL     1       0.040   3.167  -1.234  0.00  0.00    +0.056 A 
BRANCH  26  28
ATOM     28  N   UNL     1       0.169   1.072  -2.551  0.00  0.00    +0.056 N 
ATOM     29  O   UNL     1       0.180  -0.146  -2.575  0.00  0.00    -0.126 OA
ATOM     30  O   UNL     1       0.249   1.702  -3.591  0.00  0.00    -0.126 OA
ENDBRANCH  26  28
ENDBRANCH   4  22
BRANCH   3  31
ATOM     31  N   UNL     1      -2.441   5.259   0.246  0.00  0.00    -0.345 N 
ATOM     32  H   UNL     1      -2.420   4.201   0.546  0.00  0.00    +0.144 HD
ATOM     33  H   UNL     1      -3.399   5.797   0.192  0.00  0.00    +0.144 HD
ENDBRANCH   3  31
BRANCH   2  34
ATOM     34  C   UNL     1      -2.550   7.906  -0.487  0.00  0.00    +0.099 C 
ATOM     35  N   UNL     1      -3.544   8.454  -0.532  0.00  0.00    -0.191 NA
ENDBRANCH   2  34
TORSDOF 6
