REMARK  Name = ZINC06559786
REMARK  6 active torsions:
REMARK  status: ('A' for Active; 'I' for Inactive)
REMARK    1  A    between atoms: C_1  and  C_2
REMARK    2  A    between atoms: C_12  and  C_14
REMARK    3  A    between atoms: C_14  and  C_16
REMARK    4  A    between atoms: C_14  and  S_17
REMARK    5  A    between atoms: S_17  and  C_18
REMARK    6  A    between atoms: N_23  and  C_24
REMARK                            x       y       z     vdW  Elec       q    Type
REMARK                         _______ _______ _______ _____ _____    ______ ____
ROOT
ATOM      1  C   UNL     1      -5.977  -3.001   0.552  0.00  0.00    +0.136 C 
ATOM      2  C   UNL     1      -6.270  -2.244  -0.746  0.00  0.00    +0.029 C 
ENDROOT
BRANCH   1  13
ATOM      3  C   UNL     1      -9.744  -5.266  -0.012  0.00  0.00    +0.029 C 
ATOM      4  C   UNL     1      -9.429  -4.561   1.309  0.00  0.00    +0.083 C 
ATOM      5  C   UNL     1     -10.601  -3.657   1.726  0.00  0.00    +0.059 C 
ATOM      6  C   UNL     1     -10.016  -2.264   1.757  0.00  0.00    -0.024 A 
ATOM      7  C   UNL     1     -10.593  -1.045   2.059  0.00  0.00    +0.005 A 
ATOM      8  C   UNL     1      -9.836   0.111   2.017  0.00  0.00    +0.000 A 
ATOM      9  C   UNL     1      -8.499   0.045   1.671  0.00  0.00    +0.002 A 
ATOM     10  C   UNL     1      -7.919  -1.168   1.369  0.00  0.00    +0.024 A 
ATOM     11  C   UNL     1      -8.677  -2.340   1.409  0.00  0.00    +0.040 A 
ATOM     12  N   UNL     1      -8.288  -3.657   1.143  0.00  0.00    -0.267 N 
ATOM     13  C   UNL     1      -7.047  -4.037   0.780  0.00  0.00    +0.233 C 
ATOM     14  O   UNL     1      -6.791  -5.215   0.639  0.00  0.00    -0.274 OA
ENDBRANCH   1  13
BRANCH   1  15
ATOM     15  S   UNL     1      -4.362  -3.817   0.425  0.00  0.00    -0.084 S 
BRANCH  15  16
ATOM     16  C   UNL     1      -3.218  -2.482   0.310  0.00  0.00    +0.161 A 
ATOM     17  N   UNL     1      -3.447  -1.182   0.313  0.00  0.00    -0.133 NA
ATOM     18  N   UNL     1      -2.393  -0.302   0.218  0.00  0.00    -0.125 NA
ATOM     19  C   UNL     1      -1.162  -0.761   0.113  0.00  0.00    +0.187 A 
ATOM     20  S   UNL     1      -1.439  -2.525   0.159  0.00  0.00    -0.024 S 
ATOM     21  N   UNL     1       0.034  -0.060   0.003  0.00  0.00    -0.292 N 
ATOM     22  H   UNL     1       0.867  -0.539  -0.128  0.00  0.00    +0.154 HD
BRANCH  21  23
ATOM     23  C   UNL     1       0.034   1.335   0.078  0.00  0.00    +0.033 A 
ATOM     24  C   UNL     1      -1.055   2.059  -0.390  0.00  0.00    +0.023 A 
ATOM     25  C   UNL     1      -1.053   3.438  -0.309  0.00  0.00    +0.002 A 
ATOM     26  C   UNL     1       0.036   4.098   0.228  0.00  0.00    +0.000 A 
ATOM     27  C   UNL     1       1.125   3.382   0.691  0.00  0.00    +0.002 A 
ATOM     28  C   UNL     1       1.127   2.003   0.618  0.00  0.00    +0.023 A 
ENDBRANCH  21  23
ENDBRANCH  15  16
ENDBRANCH   1  15
TORSDOF 4
