REMARK  Name = ZINC12800300
REMARK  11 active torsions:
REMARK  status: ('A' for Active; 'I' for Inactive)
REMARK    1  A    between atoms: C_1  and  C_2
REMARK    2  A    between atoms: C_5  and  N_8
REMARK    3  A    between atoms: C_9  and  C_32
REMARK    4  A    between atoms: C_10  and  N_14
REMARK    5  A    between atoms: C_11  and  C_13
REMARK    6  A    between atoms: C_15  and  C_17
REMARK    7  A    between atoms: C_17  and  S_18
REMARK    8  A    between atoms: S_18  and  C_19
REMARK    9  A    between atoms: N_23  and  C_24
REMARK   10  A    between atoms: C_28  and  C_31
REMARK   11  A    between atoms: C_29  and  C_30
REMARK                            x       y       z     vdW  Elec       q    Type
REMARK                         _______ _______ _______ _____ _____    ______ ____
ROOT
ATOM      1  N   UNL     1      -0.294   1.151  -0.906  0.00  0.00    -0.282 N 
ATOM      2  C   UNL     1      -1.318   1.801  -0.318  0.00  0.00    +0.228 C 
ATOM      3  O   UNL     1      -1.247   2.996  -0.126  0.00  0.00    -0.275 OA
ATOM      4  H   UNL     1      -0.382   0.212  -1.135  0.00  0.00    +0.155 HD
ENDROOT
BRANCH   1   7
ATOM      5  N   UNL     1       3.028   2.343  -1.370  0.00  0.00    -0.235 N 
ATOM      6  C   UNL     1       2.159   1.386  -0.944  0.00  0.00    +0.063 A 
ATOM      7  C   UNL     1       0.902   1.835  -1.192  0.00  0.00    +0.078 A 
ATOM      8  C   UNL     1       1.008   3.100  -1.791  0.00  0.00    +0.082 A 
ATOM      9  N   UNL     1       2.276   3.404  -1.892  0.00  0.00    -0.170 NA
ATOM     10  C   UNL     1      -0.144   3.962  -2.239  0.00  0.00    +0.069 C 
ATOM     11  C   UNL     1       2.526   0.068  -0.312  0.00  0.00    +0.068 C 
BRANCH   5  16
ATOM     12  C   UNL     1       8.690   2.085  -1.082  0.00  0.00    +0.044 C 
ATOM     13  C   UNL     1       7.186   2.154  -1.158  0.00  0.00    -0.050 A 
ATOM     14  C   UNL     1       6.463   1.036  -1.533  0.00  0.00    +0.005 A 
ATOM     15  C   UNL     1       5.085   1.096  -1.604  0.00  0.00    +0.028 A 
ATOM     16  C   UNL     1       4.426   2.280  -1.298  0.00  0.00    +0.066 A 
ATOM     17  C   UNL     1       5.156   3.401  -0.927  0.00  0.00    +0.028 A 
ATOM     18  C   UNL     1       6.533   3.334  -0.854  0.00  0.00    +0.005 A 
ENDBRANCH   5  16
ENDBRANCH   1   7
BRANCH   2  19
ATOM     19  C   UNL     1      -2.550   1.042   0.101  0.00  0.00    +0.173 C 
BRANCH  19  20
ATOM     20  S   UNL     1      -3.735   2.184   0.854  0.00  0.00    -0.075 S 
BRANCH  20  21
ATOM     21  C   UNL     1      -5.039   1.064   1.238  0.00  0.00    +0.214 A 
ATOM     22  N   UNL     1      -5.056  -0.230   0.997  0.00  0.00    -0.101 NA
ATOM     23  N   UNL     1      -6.156  -0.750   1.406  0.00  0.00    -0.022 NA
ATOM     24  N   UNL     1      -6.917   0.155   1.922  0.00  0.00    -0.038 NA
ATOM     25  N   UNL     1      -6.219   1.372   1.833  0.00  0.00    -0.187 N 
BRANCH  25  26
ATOM     26  C   UNL     1      -6.651   2.634   2.265  0.00  0.00    +0.073 A 
ATOM     27  C   UNL     1      -5.816   3.427   3.042  0.00  0.00    +0.028 A 
ATOM     28  C   UNL     1      -6.241   4.672   3.461  0.00  0.00    +0.002 A 
ATOM     29  C   UNL     1      -7.502   5.125   3.118  0.00  0.00    +0.004 A 
ATOM     30  C   UNL     1      -8.338   4.336   2.350  0.00  0.00    -0.046 A 
ATOM     31  C   UNL     1      -7.916   3.092   1.923  0.00  0.00    -0.022 A 
ATOM     32  C   UNL     1      -8.827   2.232   1.085  0.00  0.00    +0.046 C 
ATOM     33  C   UNL     1      -9.711   4.833   1.978  0.00  0.00    +0.044 C 
ENDBRANCH  25  26
ENDBRANCH  20  21
ENDBRANCH  19  20
ENDBRANCH   2  19
TORSDOF 6
