REMARK  Name = ZINC08705647
REMARK  6 active torsions:
REMARK  status: ('A' for Active; 'I' for Inactive)
REMARK    1  A    between atoms: C_4  and  C_7
REMARK    2  A    between atoms: C_8  and  S_9
REMARK    3  A    between atoms: S_9  and  N_12
REMARK    4  A    between atoms: C_17  and  C_18
REMARK    5  A    between atoms: C_17  and  N_62
REMARK    6  A    between atoms: N_20  and  N_21
REMARK                            x       y       z     vdW  Elec       q    Type
REMARK                         _______ _______ _______ _____ _____    ______ ____
ROOT
ATOM      1  C   UNL     1       2.361   0.336  -5.192  0.00  0.00    +0.020 C 
ENDROOT
BRANCH   1   7
ATOM      2  N   UNL     1       0.475  -0.502  -1.538  0.00  0.00    -0.181 NA
ATOM      3  C   UNL     1      -0.223  -0.929  -2.760  0.00  0.00    +0.091 C 
ATOM      4  C   UNL     1       0.339  -0.124  -3.942  0.00  0.00    -0.061 C 
ATOM      5  C   UNL     1       2.422   0.291  -2.772  0.00  0.00    -0.061 C 
ATOM      6  C   UNL     1       1.945  -0.491  -1.543  0.00  0.00    +0.091 C 
ATOM      7  N   UNL     1       1.807  -0.301  -3.980  0.00  0.00    +0.387 N 
ATOM      8  H   UNL     1       2.020  -1.306  -4.004  0.00  0.00    -0.081 HD
BRANCH   2   9
ATOM      9  S   UNL     1      -0.373  -0.050  -0.189  0.00  0.00    +0.054 S 
ATOM     10  O   UNL     1       0.493  -0.248   0.920  0.00  0.00    -0.153 OA
ATOM     11  O   UNL     1      -1.647  -0.674  -0.282  0.00  0.00    -0.153 OA
BRANCH   9  13
ATOM     12  C   UNL     1      -1.888   2.151  -0.434  0.00  0.00    +0.028 C 
ATOM     13  C   UNL     1      -0.653   1.685  -0.306  0.00  0.00    +0.153 C 
BRANCH  12  17
ATOM     14  C   UNL     1      -2.563   6.334  -0.717  0.00  0.00    +0.000 A 
ATOM     15  C   UNL     1      -3.634   5.460  -0.759  0.00  0.00    +0.001 A 
ATOM     16  C   UNL     1      -3.421   4.099  -0.668  0.00  0.00    +0.008 A 
ATOM     17  C   UNL     1      -2.123   3.607  -0.533  0.00  0.00    -0.024 A 
ATOM     18  C   UNL     1      -1.048   4.495  -0.486  0.00  0.00    +0.008 A 
ATOM     19  C   UNL     1      -1.273   5.852  -0.584  0.00  0.00    +0.001 A 
ENDBRANCH  12  17
ENDBRANCH   9  13
ENDBRANCH   2   9
ENDBRANCH   1   7
BRANCH   1  20
ATOM     20  C   UNL     1       2.013   1.802  -5.226  0.00  0.00    +0.213 C 
ATOM     21  O   UNL     1       1.451   2.314  -4.282  0.00  0.00    -0.276 OA
ATOM     22  N   UNL     1       2.327   2.544  -6.307  0.00  0.00    -0.225 N 
ATOM     23  H   UNL     1       2.777   2.134  -7.062  0.00  0.00    +0.173 HD
BRANCH  22  24
ATOM     24  N   UNL     1       2.004   3.907  -6.339  0.00  0.00    -0.137 N 
ATOM     25  C   UNL     1       2.900   4.902  -6.180  0.00  0.00    +0.263 C 
ATOM     26  O   UNL     1       4.092   4.793  -5.990  0.00  0.00    -0.271 OA
ATOM     27  C   UNL     1       2.104   6.183  -6.289  0.00  0.00    +0.114 C 
ATOM     28  C   UNL     1       2.596   7.015  -7.468  0.00  0.00    +0.035 C 
ATOM     29  C   UNL     1       1.760   8.293  -7.579  0.00  0.00    +0.003 C 
ATOM     30  C   UNL     1       1.882   9.095  -6.282  0.00  0.00    +0.000 C 
ATOM     31  C   UNL     1       1.363   8.256  -5.112  0.00  0.00    +0.003 C 
ATOM     32  C   UNL     1       2.197   6.978  -4.991  0.00  0.00    +0.035 C 
ATOM     33  N   UNL     1       0.727   5.729  -6.518  0.00  0.00    -0.284 N 
ATOM     34  C   UNL     1       0.768   4.383  -6.537  0.00  0.00    +0.326 C 
ATOM     35  O   UNL     1      -0.207   3.679  -6.711  0.00  0.00    -0.251 OA
ATOM     36  H   UNL     1      -0.057   6.287  -6.636  0.00  0.00    +0.151 HD
ENDBRANCH  22  24
ENDBRANCH   1  20
TORSDOF 6
