REMARK  Name = ZINC42554527
REMARK  7 active torsions:
REMARK  status: ('A' for Active; 'I' for Inactive)
REMARK    1  A    between atoms: C_1  and  C_2
REMARK    2  A    between atoms: C_2  and  C_3
REMARK    3  A    between atoms: C_3  and  C_5
REMARK    4  A    between atoms: C_3  and  C_6
REMARK    5  A    between atoms: C_6  and  C_8
REMARK    6  A    between atoms: C_6  and  N_9
REMARK    7  A    between atoms: N_9  and  C_10
REMARK                            x       y       z     vdW  Elec       q    Type
REMARK                         _______ _______ _______ _____ _____    ______ ____
ROOT
ATOM      1  C   UNL     1       1.820  -3.860  -2.312  0.00  0.00    +0.049 C 
ATOM      2  C   UNL     1       2.766  -4.264  -3.419  0.00  0.00    -0.030 A 
ATOM      3  C   UNL     1       4.087  -3.973  -3.675  0.00  0.00    +0.004 A 
ATOM      4  C   UNL     1       4.706  -4.499  -4.795  0.00  0.00    +0.001 A 
ATOM      5  C   UNL     1       3.994  -5.317  -5.654  0.00  0.00    +0.017 A 
ATOM      6  C   UNL     1       2.670  -5.611  -5.400  0.00  0.00    +0.039 A 
ATOM      7  C   UNL     1       2.040  -5.084  -4.273  0.00  0.00    +0.049 A 
ATOM      8  N   UNL     1       0.733  -5.230  -3.806  0.00  0.00    -0.285 N 
ATOM      9  C   UNL     1       0.519  -4.549  -2.664  0.00  0.00    +0.208 C 
ATOM     10  O   UNL     1      -0.517  -4.496  -2.036  0.00  0.00    -0.277 OA
ATOM     11 BR   UNL     1       1.707  -6.729  -6.583  0.00  0.00    -0.048 Br
ATOM     12  H   UNL     1       0.055  -5.762  -4.253  0.00  0.00    +0.155 HD
ENDROOT
BRANCH   1  13
ATOM     13  N   UNL     1       1.642  -2.401  -2.295  0.00  0.00    +0.391 N 
ATOM     14  H   UNL     1       1.237  -2.102  -3.169  0.00  0.00    -0.084 HD
ATOM     15  H   UNL     1       2.537  -1.954  -2.168  0.00  0.00    -0.084 HD
BRANCH  13  16
ATOM     16  C   UNL     1       0.749  -2.030  -1.189  0.00  0.00    -0.071 C 
ATOM     17  C   UNL     1       0.455  -0.530  -1.252  0.00  0.00    -0.013 C 
BRANCH  16  18
ATOM     18  C   UNL     1       1.423  -2.362   0.144  0.00  0.00    -0.029 C 
ATOM     19  C   UNL     1       2.667  -1.488   0.318  0.00  0.00    +0.006 C 
BRANCH  18  21
ATOM     20  C   UNL     1       1.074  -2.540   2.612  0.00  0.00    +0.004 C 
ATOM     21  C   UNL     1       0.446  -2.092   1.291  0.00  0.00    -0.002 C 
ENDBRANCH  18  21
ENDBRANCH  16  18
ENDBRANCH  13  16
ENDBRANCH   1  13
TORSDOF 4
