REMARK  Name = ZINC42934150
REMARK  8 active torsions:
REMARK  status: ('A' for Active; 'I' for Inactive)
REMARK    1  A    between atoms: C_1  and  C_2
REMARK    2  A    between atoms: C_2  and  C_3
REMARK    3  A    between atoms: C_2  and  C_4
REMARK    4  A    between atoms: C_4  and  C_6
REMARK    5  A    between atoms: C_4  and  S_21
REMARK    6  A    between atoms: N_8  and  C_9
REMARK    7  A    between atoms: C_12  and  C_15
REMARK    8  A    between atoms: S_21  and  C_22
REMARK                            x       y       z     vdW  Elec       q    Type
REMARK                         _______ _______ _______ _____ _____    ______ ____
ROOT
ATOM      1  C   UNL     1       2.156   0.010   1.232  0.00  0.00    +0.231 C 
ATOM      2  O   UNL     1       3.051  -0.675   0.785  0.00  0.00    -0.274 OA
ATOM      3  N   UNL     1       2.427   1.234   1.728  0.00  0.00    -0.285 N 
ATOM      4  H   UNL     1       1.703   1.808   2.025  0.00  0.00    +0.155 HD
ENDROOT
BRANCH   3   5
ATOM      5  C   UNL     1       3.750   1.676   1.815  0.00  0.00    +0.033 A 
ATOM      6  C   UNL     1       4.668   1.315   0.835  0.00  0.00    +0.024 A 
ATOM      7  C   UNL     1       5.973   1.750   0.918  0.00  0.00    +0.010 A 
ATOM      8  C   UNL     1       6.373   2.552   1.986  0.00  0.00    -0.018 A 
ATOM      9  C   UNL     1       5.451   2.913   2.967  0.00  0.00    +0.010 A 
ATOM     10  C   UNL     1       4.145   2.480   2.877  0.00  0.00    +0.024 A 
BRANCH   8  11
ATOM     11  C   UNL     1       7.778   3.020   2.078  0.00  0.00    -0.018 A 
ATOM     12  C   UNL     1       8.700   2.664   1.095  0.00  0.00    +0.008 A 
ATOM     13  C   UNL     1      10.005   3.103   1.186  0.00  0.00    +0.001 A 
ATOM     14  C   UNL     1      10.399   3.894   2.250  0.00  0.00    +0.000 A 
ATOM     15  C   UNL     1       9.489   4.250   3.228  0.00  0.00    +0.001 A 
ATOM     16  C   UNL     1       8.179   3.822   3.145  0.00  0.00    +0.008 A 
ENDBRANCH   8  11
ENDBRANCH   3   5
BRANCH   1  17
ATOM     17  C   UNL     1       0.741  -0.508   1.235  0.00  0.00    +0.142 C 
BRANCH  17  19
ATOM     18  C   UNL     1      -0.006   1.527  -0.007  0.00  0.00    +0.009 C 
ATOM     19  C   UNL     1       0.011  -0.003  -0.011  0.00  0.00    +0.005 C 
ATOM     20  C   UNL     1       0.734  -0.502  -1.264  0.00  0.00    +0.009 C 
ENDBRANCH  17  19
BRANCH  17  21
ATOM     21  S   UNL     1       0.760  -2.322   1.230  0.00  0.00    -0.084 S 
BRANCH  21  22
ATOM     22  C   UNL     1      -0.938  -2.767   1.383  0.00  0.00    +0.161 A 
ATOM     23  N   UNL     1      -2.000  -1.990   1.474  0.00  0.00    -0.133 NA
ATOM     24  N   UNL     1      -3.251  -2.553   1.586  0.00  0.00    -0.125 NA
ATOM     25  C   UNL     1      -3.381  -3.865   1.603  0.00  0.00    +0.180 A 
ATOM     26  S   UNL     1      -1.681  -4.390   1.447  0.00  0.00    -0.025 S 
ATOM     27  N   UNL     1      -4.535  -4.634   1.708  0.00  0.00    -0.336 N 
ATOM     28  H   UNL     1      -5.400  -4.203   1.782  0.00  0.00    +0.144 HD
ATOM     29  H   UNL     1      -4.473  -5.602   1.706  0.00  0.00    +0.144 HD
ENDBRANCH  21  22
ENDBRANCH  17  21
ENDBRANCH   1  17
TORSDOF 6
