REMARK  Name = ZINC39660326
REMARK  10 active torsions:
REMARK  status: ('A' for Active; 'I' for Inactive)
REMARK    1  A    between atoms: C_1  and  C_2
REMARK    2  A    between atoms: C_2  and  C_3
REMARK    3  A    between atoms: C_3  and  C_4
REMARK    4  A    between atoms: C_4  and  C_5
REMARK    5  A    between atoms: C_5  and  C_6
REMARK    6  A    between atoms: C_6  and  N_7
REMARK    7  A    between atoms: C_8  and  C_10
REMARK    8  A    between atoms: C_21  and  C_23
REMARK    9  A    between atoms: C_24  and  C_36
REMARK   10  A    between atoms: C_27  and  C_28
REMARK                            x       y       z     vdW  Elec       q    Type
REMARK                         _______ _______ _______ _____ _____    ______ ____
ROOT
ATOM      1  C   UNL     1      -6.091  -5.534   0.353  0.00  0.00    +0.100 C 
ATOM      2  C   UNL     1      -6.808  -5.242  -0.984  0.00  0.00    +0.121 C 
ATOM      3  N   UNL     1      -6.645  -6.485  -1.775  0.00  0.00    -0.296 N 
ATOM      4  C   UNL     1      -6.816  -7.576  -0.786  0.00  0.00    +0.115 C 
ATOM      5  C   UNL     1      -6.102  -7.067   0.481  0.00  0.00    -0.004 C 
ATOM      6  C   UNL     1      -6.874  -7.487   1.728  0.00  0.00    -0.010 C 
ATOM      7  C   UNL     1      -6.822  -9.011   1.865  0.00  0.00    -0.082 C 
ATOM      8  N   UNL     1      -5.424  -9.448   1.961  0.00  0.00    +0.379 N 
ATOM      9  C   UNL     1      -4.712  -9.122   0.719  0.00  0.00    -0.082 C 
ATOM     10  C   UNL     1      -4.675  -7.603   0.533  0.00  0.00    -0.010 C 
ATOM     11  C   UNL     1      -6.397  -6.598  -3.095  0.00  0.00    +0.252 C 
ATOM     12  O   UNL     1      -6.290  -7.698  -3.602  0.00  0.00    -0.270 OA
ATOM     13  H   UNL     1      -4.978  -8.979   2.735  0.00  0.00    -0.086 HD
ATOM     14  H   UNL     1      -5.394 -10.445   2.112  0.00  0.00    -0.086 HD
ENDROOT
BRANCH  11  15
ATOM     15  C   UNL     1      -6.257  -5.388  -3.924  0.00  0.00    +0.106 A 
ATOM     16  C   UNL     1      -5.102  -4.711  -4.186  0.00  0.00    +0.147 A 
ATOM     17  O   UNL     1      -5.395  -3.673  -4.974  0.00  0.00    -0.359 OA
ATOM     18  N   UNL     1      -6.782  -3.662  -5.243  0.00  0.00    -0.077 NA
ATOM     19  C   UNL     1      -7.334  -4.682  -4.634  0.00  0.00    +0.130 A 
ATOM     20  C   UNL     1      -3.732  -5.071  -3.672  0.00  0.00    +0.090 C 
BRANCH  19  21
ATOM     21  C   UNL     1      -8.769  -5.051  -4.653  0.00  0.00    +0.058 A 
ATOM     22  C   UNL     1      -9.154  -6.353  -4.975  0.00  0.00    +0.134 A 
ATOM     23  C   UNL     1     -10.495  -6.690  -4.991  0.00  0.00    +0.039 A 
ATOM     24  C   UNL     1     -11.453  -5.740  -4.687  0.00  0.00    +0.004 A 
ATOM     25  C   UNL     1     -11.078  -4.448  -4.367  0.00  0.00    +0.021 A 
ATOM     26  C   UNL     1      -9.741  -4.099  -4.343  0.00  0.00    +0.053 A 
ATOM     27 CL   UNL     1      -9.273  -2.479  -3.934  0.00  0.00    -0.083 Cl
ATOM     28  F   UNL     1      -8.219  -7.282  -5.272  0.00  0.00    -0.205 F 
ENDBRANCH  19  21
ENDBRANCH  11  15
BRANCH   1  30
ATOM     29  N   UNL     1      -4.030  -4.730   1.459  0.00  0.00    -0.315 N 
ATOM     30  C   UNL     1      -4.675  -5.021   0.312  0.00  0.00    +0.218 C 
ATOM     31  O   UNL     1      -4.115  -4.871  -0.753  0.00  0.00    -0.275 OA
ATOM     32  H   UNL     1      -4.478  -4.850   2.311  0.00  0.00    +0.149 HD
BRANCH  29  33
ATOM     33  C   UNL     1      -2.653  -4.231   1.420  0.00  0.00    +0.104 C 
BRANCH  33  34
ATOM     34  C   UNL     1      -2.160  -3.981   2.846  0.00  0.00    +0.019 C 
BRANCH  34  35
ATOM     35  C   UNL     1      -0.722  -3.460   2.805  0.00  0.00    +0.002 C 
BRANCH  35  36
ATOM     36  C   UNL     1      -0.229  -3.209   4.231  0.00  0.00    -0.000 C 
BRANCH  36  38
ATOM     37  C   UNL     1       1.702  -2.438   5.616  0.00  0.00    +0.004 C 
ATOM     38  C   UNL     1       1.209  -2.689   4.189  0.00  0.00    -0.003 C 
ENDBRANCH  36  38
ENDBRANCH  35  36
ENDBRANCH  34  35
ENDBRANCH  33  34
ENDBRANCH  29  33
ENDBRANCH   1  30
TORSDOF 8
