REMARK  Name = ZINC02337077
REMARK  6 active torsions:
REMARK  status: ('A' for Active; 'I' for Inactive)
REMARK    1  A    between atoms: C_1  and  C_2
REMARK    2  A    between atoms: C_2  and  N_3
REMARK    3  A    between atoms: C_15  and  S_16
REMARK    4  A    between atoms: S_16  and  C_17
REMARK    5  A    between atoms: C_17  and  C_18
REMARK    6  A    between atoms: N_20  and  C_21
REMARK                            x       y       z     vdW  Elec       q    Type
REMARK                         _______ _______ _______ _____ _____    ______ ____
ROOT
ATOM      1  N   UNL     1       4.315   4.606  -0.042  0.00  0.00    -0.277 N 
ATOM      2  C   UNL     1       3.754   5.826  -0.022  0.00  0.00    +0.264 A 
ATOM      3  O   UNL     1       4.455   6.822  -0.027  0.00  0.00    -0.267 OA
ATOM      4  C   UNL     1       2.279   5.955   0.006  0.00  0.00    +0.074 A 
ATOM      5  C   UNL     1       1.482   7.183   0.032  0.00  0.00    -0.023 A 
ATOM      6  C   UNL     1       0.144   7.018   0.054  0.00  0.00    -0.004 A 
ATOM      7  S   UNL     1      -0.094   5.264   0.040  0.00  0.00    -0.074 S 
ATOM      8  C   UNL     1       1.557   4.766   0.009  0.00  0.00    +0.102 A 
ATOM      9  N   UNL     1       2.176   3.537  -0.013  0.00  0.00    -0.249 N 
ATOM     10  C   UNL     1       3.545   3.455  -0.037  0.00  0.00    +0.240 A 
ATOM     11  N   UNL     1       3.874   2.185  -0.052  0.00  0.00    -0.109 NA
ATOM     12  N   UNL     1       2.696   1.429  -0.032  0.00  0.00    -0.120 NA
ATOM     13  C   UNL     1       1.681   2.259  -0.015  0.00  0.00    +0.198 A 
ATOM     14  C   UNL     1      -0.899   8.092   0.083  0.00  0.00    +0.043 C 
ATOM     15  C   UNL     1      -0.219   9.415   0.465  0.00  0.00    +0.005 C 
ATOM     16  C   UNL     1       1.039   9.588  -0.391  0.00  0.00    +0.005 C 
ATOM     17  C   UNL     1       2.103   8.575   0.036  0.00  0.00    +0.037 C 
ENDROOT
BRANCH   1  19
ATOM     18  C   UNL     1       6.258   4.460  -1.521  0.00  0.00    +0.027 C 
ATOM     19  C   UNL     1       5.776   4.489  -0.069  0.00  0.00    +0.125 C 
ENDBRANCH   1  19
BRANCH  13  20
ATOM     20  S   UNL     1      -0.022   1.810   0.010  0.00  0.00    -0.076 S 
BRANCH  20  21
ATOM     21  C   UNL     1       0.002  -0.004  -0.005  0.00  0.00    +0.173 C 
BRANCH  21  22
ATOM     22  C   UNL     1      -1.412  -0.526   0.015  0.00  0.00    +0.227 C 
ATOM     23  O   UNL     1      -2.344   0.250   0.036  0.00  0.00    -0.275 OA
ATOM     24  N   UNL     1      -1.640  -1.854   0.008  0.00  0.00    -0.285 N 
ATOM     25  H   UNL     1      -0.898  -2.473  -0.077  0.00  0.00    +0.155 HD
BRANCH  24  26
ATOM     26  C   UNL     1      -2.948  -2.340   0.123  0.00  0.00    +0.033 A 
ATOM     27  C   UNL     1      -3.192  -3.521   0.811  0.00  0.00    +0.025 A 
ATOM     28  C   UNL     1      -4.484  -3.996   0.927  0.00  0.00    +0.022 A 
ATOM     29  C   UNL     1      -5.533  -3.301   0.351  0.00  0.00    +0.041 A 
ATOM     30  C   UNL     1      -5.291  -2.126  -0.339  0.00  0.00    +0.022 A 
ATOM     31  C   UNL     1      -4.002  -1.644  -0.454  0.00  0.00    +0.025 A 
ATOM     32 CL   UNL     1      -7.154  -3.903   0.494  0.00  0.00    -0.084 Cl
ENDBRANCH  24  26
ENDBRANCH  21  22
ENDBRANCH  20  21
ENDBRANCH  13  20
TORSDOF 5
