REMARK  Name = ZINC08870731
REMARK  9 active torsions:
REMARK  status: ('A' for Active; 'I' for Inactive)
REMARK    1  A    between atoms: C_1  and  C_2
REMARK    2  A    between atoms: C_4  and  C_34
REMARK    3  A    between atoms: C_5  and  S_9
REMARK    4  A    between atoms: C_7  and  C_8
REMARK    5  A    between atoms: S_9  and  N_12
REMARK    6  A    between atoms: N_12  and  C_13
REMARK    7  A    between atoms: C_15  and  S_24
REMARK    8  A    between atoms: C_16  and  O_23
REMARK    9  A    between atoms: S_24  and  C_25
REMARK                            x       y       z     vdW  Elec       q    Type
REMARK                         _______ _______ _______ _____ _____    ______ ____
ROOT
ATOM      1  C   UNL     1       4.332   1.262  -0.339  0.00  0.00    +0.057 A 
ATOM      2  C   UNL     1       2.962   1.132  -0.314  0.00  0.00    +0.044 A 
ATOM      3  C   UNL     1       2.142   2.245  -0.112  0.00  0.00    +0.061 A 
ATOM      4  C   UNL     1       2.690   3.500   0.078  0.00  0.00    +0.138 A 
ATOM      5  C   UNL     1       4.087   3.661   0.063  0.00  0.00    +0.026 A 
ATOM      6  C   UNL     1       4.918   2.531  -0.147  0.00  0.00    +0.008 A 
ATOM      7  C   UNL     1       6.312   2.696  -0.160  0.00  0.00    +0.010 A 
ATOM      8  C   UNL     1       6.848   3.933   0.027  0.00  0.00    +0.001 A 
ATOM      9  C   UNL     1       6.031   5.044   0.234  0.00  0.00    +0.001 A 
ATOM     10  C   UNL     1       4.676   4.923   0.254  0.00  0.00    +0.012 A 
ENDROOT
BRANCH   1  11
ATOM     11  N   UNL     1       5.139   0.141  -0.546  0.00  0.00    -0.216 N 
ATOM     12  H   UNL     1       5.994   0.068  -0.093  0.00  0.00    +0.174 HD
BRANCH  11  13
ATOM     13  S   UNL     1       4.637  -1.063  -1.566  0.00  0.00    +0.073 S 
ATOM     14  O   UNL     1       5.719  -1.977  -1.678  0.00  0.00    -0.150 OA
ATOM     15  O   UNL     1       3.347  -1.460  -1.122  0.00  0.00    -0.150 OA
BRANCH  13  20
ATOM     16  C   UNL     1       3.898   1.410  -7.020  0.00  0.00    +0.044 C 
ATOM     17  C   UNL     1       4.082   0.792  -5.658  0.00  0.00    -0.047 A 
ATOM     18  C   UNL     1       5.341   0.737  -5.089  0.00  0.00    +0.009 A 
ATOM     19  C   UNL     1       5.511   0.171  -3.839  0.00  0.00    -0.024 A 
ATOM     20  C   UNL     1       4.421  -0.341  -3.159  0.00  0.00    +0.112 A 
ATOM     21  C   UNL     1       3.164  -0.290  -3.730  0.00  0.00    +0.032 A 
ATOM     22  C   UNL     1       2.993   0.280  -4.978  0.00  0.00    -0.046 A 
ATOM     23  C   UNL     1       1.621   0.341  -5.598  0.00  0.00    +0.044 C 
ATOM     24  C   UNL     1       6.883   0.111  -3.219  0.00  0.00    +0.046 C 
ENDBRANCH  13  20
ENDBRANCH  11  13
ENDBRANCH   1  11
BRANCH   4  25
ATOM     25  O   UNL     1       1.881   4.576   0.278  0.00  0.00    -0.505 OA
ATOM     26  H   UNL     1       1.672   4.744   1.207  0.00  0.00    +0.292 HD
ENDBRANCH   4  25
BRANCH   3  27
ATOM     27  S   UNL     1       0.391   2.047  -0.093  0.00  0.00    -0.027 S 
BRANCH  27  28
ATOM     28  C   UNL     1      -0.007   2.693  -1.683  0.00  0.00    +0.263 A 
ATOM     29  N   UNL     1       0.849   3.248  -2.504  0.00  0.00    -0.203 NA
ATOM     30  C   UNL     1       0.189   3.625  -3.633  0.00  0.00    +0.110 A 
ATOM     31  C   UNL     1       0.585   4.247  -4.818  0.00  0.00    +0.031 A 
ATOM     32  C   UNL     1      -0.347   4.507  -5.798  0.00  0.00    +0.002 A 
ATOM     33  C   UNL     1      -1.675   4.154  -5.614  0.00  0.00    +0.004 A 
ATOM     34  C   UNL     1      -2.080   3.538  -4.447  0.00  0.00    +0.048 A 
ATOM     35  C   UNL     1      -1.156   3.270  -3.451  0.00  0.00    +0.156 A 
ATOM     36  O   UNL     1      -1.237   2.694  -2.229  0.00  0.00    -0.430 OA
ENDBRANCH  27  28
ENDBRANCH   3  27
TORSDOF 6
