REMARK  Name = ZINC51730372
REMARK  4 active torsions:
REMARK  status: ('A' for Active; 'I' for Inactive)
REMARK    1  A    between atoms: C_1  and  C_2
REMARK    2  A    between atoms: N_6  and  C_11
REMARK    3  A    between atoms: C_7  and  C_10
REMARK    4  A    between atoms: C_16  and  N_17
REMARK                            x       y       z     vdW  Elec       q    Type
REMARK                         _______ _______ _______ _____ _____    ______ ____
ROOT
ATOM      1  C   UNL     1       2.341  -3.435  -0.038  0.00  0.00    +0.053 A 
ATOM      2  C   UNL     1       3.644  -2.973  -0.043  0.00  0.00    +0.053 A 
ATOM      3  C   UNL     1       4.700  -3.883  -0.057  0.00  0.00    +0.080 A 
ATOM      4  C   UNL     1       4.425  -5.270  -0.067  0.00  0.00    +0.067 A 
ATOM      5  C   UNL     1       3.106  -5.724  -0.063  0.00  0.00    +0.040 A 
ATOM      6  C   UNL     1       2.071  -4.811  -0.043  0.00  0.00    +0.047 A 
ATOM      7  C   UNL     1       5.562  -6.198  -0.083  0.00  0.00    +0.259 A 
ATOM      8  O   UNL     1       5.394  -7.404  -0.092  0.00  0.00    -0.267 OA
ATOM      9  N   UNL     1       6.805  -5.663  -0.086  0.00  0.00    -0.313 N 
ATOM     10  H   UNL     1       7.580  -6.247  -0.097  0.00  0.00    +0.170 HD
ATOM     11  C   UNL     1       6.978  -4.314  -0.076  0.00  0.00    +0.199 A 
ATOM     12  N   UNL     1       5.993  -3.469  -0.062  0.00  0.00    -0.237 NA
ENDROOT
BRANCH   1  17
ATOM     13  C   UNL     1      -0.019   1.526   0.010  0.00  0.00    +0.007 C 
ATOM     14  C   UNL     1       0.002  -0.004   0.002  0.00  0.00    -0.011 C 
ATOM     15  C   UNL     1       0.718  -0.497  -1.258  0.00  0.00    +0.022 C 
ATOM     16  C   UNL     1       0.706  -2.029  -1.280  0.00  0.00    +0.106 C 
ATOM     17  N   UNL     1       1.285  -2.525  -0.024  0.00  0.00    -0.326 N 
ATOM     18  C   UNL     1       0.730  -2.043   1.248  0.00  0.00    +0.071 C 
ATOM     19  C   UNL     1       0.742  -0.511   1.242  0.00  0.00    +0.025 C 
ATOM     20  C   UNL     1      -0.706  -2.547   1.406  0.00  0.00    +0.028 C 
ENDBRANCH   1  17
BRANCH   6  21
ATOM     21  N   UNL     1       0.745  -5.261  -0.033  0.00  0.00    -0.357 N 
ATOM     22  H   UNL     1       0.016  -4.621  -0.022  0.00  0.00    +0.142 HD
ATOM     23  H   UNL     1       0.556  -6.212  -0.036  0.00  0.00    +0.142 HD
ENDBRANCH   6  21
TORSDOF 2
