REMARK  Name = ZINC09140781
REMARK  9 active torsions:
REMARK  status: ('A' for Active; 'I' for Inactive)
REMARK    1  A    between atoms: C_1  and  C_2
REMARK    2  A    between atoms: C_5  and  S_23
REMARK    3  A    between atoms: C_7  and  N_8
REMARK    4  A    between atoms: C_9  and  C_11
REMARK    5  A    between atoms: C_11  and  N_66
REMARK    6  A    between atoms: C_13  and  C_22
REMARK    7  A    between atoms: C_18  and  C_20
REMARK    8  A    between atoms: C_18  and  C_21
REMARK    9  A    between atoms: S_23  and  N_26
REMARK                            x       y       z     vdW  Elec       q    Type
REMARK                         _______ _______ _______ _____ _____    ______ ____
ROOT
ATOM      1  N   UNL     1      -0.033   0.011  -2.413  0.00  0.00    -0.287 N 
ATOM      2  C   UNL     1       0.061  -0.653  -3.582  0.00  0.00    +0.201 C 
ATOM      3  O   UNL     1       0.078  -1.866  -3.590  0.00  0.00    -0.278 OA
ATOM      4  H   UNL     1      -0.127   0.977  -2.410  0.00  0.00    +0.155 HD
ENDROOT
BRANCH   1  11
ATOM      5  C   UNL     1      -1.257   1.194  -0.133  0.00  0.00    +0.045 C 
ATOM      6  C   UNL     1      -0.580  -0.151  -0.066  0.00  0.00    -0.029 A 
ATOM      7  C   UNL     1      -0.546  -0.850   1.125  0.00  0.00    +0.007 A 
ATOM      8  C   UNL     1       0.074  -2.084   1.187  0.00  0.00    +0.029 A 
ATOM      9  C   UNL     1       0.662  -2.623   0.057  0.00  0.00    +0.107 A 
ATOM     10  C   UNL     1       0.631  -1.930  -1.137  0.00  0.00    +0.052 A 
ATOM     11  C   UNL     1       0.005  -0.692  -1.203  0.00  0.00    +0.038 A 
BRANCH   9  12
ATOM     12  S   UNL     1       1.450  -4.197   0.140  0.00  0.00    +0.061 S 
ATOM     13  O   UNL     1       2.397  -4.233  -0.919  0.00  0.00    -0.153 OA
ATOM     14  O   UNL     1       1.818  -4.395   1.498  0.00  0.00    -0.153 OA
BRANCH  12  15
ATOM     15  N   UNL     1       0.303  -5.338  -0.211  0.00  0.00    -0.172 NA
ATOM     16  C   UNL     1      -0.511  -5.947   0.853  0.00  0.00    +0.137 C 
ATOM     17  C   UNL     1      -1.988  -5.847   0.442  0.00  0.00    +0.177 C 
ATOM     18  O   UNL     1      -2.148  -6.393  -0.870  0.00  0.00    -0.377 OA
ATOM     19  C   UNL     1      -1.430  -5.691  -1.887  0.00  0.00    +0.177 C 
ATOM     20  C   UNL     1       0.072  -5.778  -1.596  0.00  0.00    +0.137 C 
ENDBRANCH  12  15
ENDBRANCH   9  12
ENDBRANCH   1  11
BRANCH   2  21
ATOM     21  C   UNL     1       0.146   0.110  -4.878  0.00  0.00    +0.019 C 
BRANCH  21  32
ATOM     22  C   UNL     1       1.468  -1.633  -5.983  0.00  0.00    -0.071 C 
ATOM     23  C   UNL     1       1.914  -1.749  -7.461  0.00  0.00    -0.048 C 
ATOM     24  C   UNL     1       0.638  -1.357  -8.255  0.00  0.00    -0.011 C 
ATOM     25  C   UNL     1       0.098  -0.232  -7.327  0.00  0.00    -0.067 C 
ATOM     26  C   UNL     1       0.982   0.987  -7.514  0.00  0.00    -0.009 C 
ATOM     27  C   UNL     1       2.475   0.749  -7.560  0.00  0.00    -0.036 C 
ATOM     28  C   UNL     1       2.963  -0.675  -7.730  0.00  0.00    +0.011 C 
ATOM     29  C   UNL     1       3.120   1.349  -6.295  0.00  0.00    +0.011 C 
ATOM     30  C   UNL     1       3.033   1.567  -8.753  0.00  0.00    +0.011 C 
ATOM     31  C   UNL     1       2.406  -3.163  -7.808  0.00  0.00    +0.009 C 
ATOM     32  N   UNL     1       0.212  -0.883  -6.003  0.00  0.00    +0.388 N 
ATOM     33  H   UNL     1      -0.568  -1.541  -5.890  0.00  0.00    -0.081 HD
ENDBRANCH  21  32
ENDBRANCH   2  21
TORSDOF 5
