REMARK  Name = ZINC36627118
REMARK  10 active torsions:
REMARK  status: ('A' for Active; 'I' for Inactive)
REMARK    1  A    between atoms: C_1  and  C_2
REMARK    2  A    between atoms: C_2  and  O_3
REMARK    3  A    between atoms: O_3  and  C_4
REMARK    4  A    between atoms: C_4  and  C_6
REMARK    5  A    between atoms: C_7  and  C_20
REMARK    6  A    between atoms: C_12  and  C_14
REMARK    7  A    between atoms: C_20  and  S_21
REMARK    8  A    between atoms: S_21  and  C_22
REMARK    9  A    between atoms: C_25  and  C_28
REMARK   10  A    between atoms: N_26  and  C_27
REMARK                            x       y       z     vdW  Elec       q    Type
REMARK                         _______ _______ _______ _____ _____    ______ ____
ROOT
ATOM      1  C   UNL     1       0.630  -1.758  -1.783  0.00  0.00    +0.079 C 
ATOM      2  C   UNL     1       1.113  -2.994  -2.035  0.00  0.00    +0.034 C 
ATOM      3  N   UNL     1       1.909  -3.232  -3.118  0.00  0.00    -0.272 N 
ATOM      4  C   UNL     1       2.269  -2.289  -3.997  0.00  0.00    +0.304 C 
ATOM      5  O   UNL     1       2.983  -2.597  -4.932  0.00  0.00    -0.252 OA
ATOM      6  N   UNL     1       1.866  -1.008  -3.880  0.00  0.00    -0.288 N 
ATOM      7  C   UNL     1       0.998  -0.648  -2.747  0.00  0.00    +0.144 C 
ATOM      8  H   UNL     1       2.233  -4.136  -3.258  0.00  0.00    +0.156 HD
ATOM      9  H   UNL     1       2.139  -0.340  -4.528  0.00  0.00    +0.151 HD
ENDROOT
BRANCH   7  10
ATOM     10  C   UNL     1       1.690   0.437  -1.963  0.00  0.00    -0.023 A 
ATOM     11  C   UNL     1       3.027   0.307  -1.635  0.00  0.00    +0.006 A 
ATOM     12  C   UNL     1       3.662   1.302  -0.916  0.00  0.00    +0.000 A 
ATOM     13  C   UNL     1       2.961   2.427  -0.525  0.00  0.00    +0.000 A 
ATOM     14  C   UNL     1       1.625   2.558  -0.854  0.00  0.00    +0.000 A 
ATOM     15  C   UNL     1       0.990   1.565  -1.576  0.00  0.00    +0.006 A 
ENDBRANCH   7  10
BRANCH   1  16
ATOM     16  C   UNL     1      -0.196  -1.510  -0.662  0.00  0.00    +0.339 C 
ATOM     17  O   UNL     1      -1.398  -1.394  -0.806  0.00  0.00    -0.245 OA
BRANCH  16  18
ATOM     18  O   UNL     1       0.350  -1.402   0.567  0.00  0.00    -0.462 OA
BRANCH  18  20
ATOM     19  C   UNL     1       0.253  -1.061   2.958  0.00  0.00    +0.048 C 
ATOM     20  C   UNL     1      -0.543  -1.151   1.654  0.00  0.00    +0.229 C 
ENDBRANCH  18  20
ENDBRANCH  16  18
ENDBRANCH   1  16
BRANCH   2  21
ATOM     21  C   UNL     1       0.767  -4.128  -1.105  0.00  0.00    +0.128 C 
BRANCH  21  22
ATOM     22  S   UNL     1      -0.481  -5.190  -1.883  0.00  0.00    -0.080 S 
BRANCH  22  23
ATOM     23  C   UNL     1      -0.774  -6.450  -0.688  0.00  0.00    +0.192 A 
ATOM     24  N   UNL     1      -0.202  -6.556   0.491  0.00  0.00    -0.122 NA
ATOM     25  N   UNL     1      -0.647  -7.592   1.107  0.00  0.00    -0.128 NA
ATOM     26  C   UNL     1      -1.531  -8.212   0.360  0.00  0.00    +0.165 A 
ATOM     27  N   UNL     1      -1.643  -7.497  -0.810  0.00  0.00    -0.305 N 
ATOM     28  C   UNL     1      -2.512  -7.797  -1.951  0.00  0.00    +0.153 C 
BRANCH  26  29
ATOM     29  C   UNL     1      -2.270  -9.443   0.712  0.00  0.00    +0.019 A 
ATOM     30  C   UNL     1      -2.880 -10.203  -0.286  0.00  0.00    +0.013 A 
ATOM     31  C   UNL     1      -3.568 -11.351   0.048  0.00  0.00    +0.021 A 
ATOM     32  C   UNL     1      -3.654 -11.749   1.372  0.00  0.00    +0.041 A 
ATOM     33  C   UNL     1      -3.051 -10.998   2.367  0.00  0.00    +0.021 A 
ATOM     34  C   UNL     1      -2.355  -9.852   2.044  0.00  0.00    +0.013 A 
ATOM     35 CL   UNL     1      -4.522 -13.195   1.785  0.00  0.00    -0.084 Cl
ENDBRANCH  26  29
ENDBRANCH  22  23
ENDBRANCH  21  22
ENDBRANCH   2  21
TORSDOF 8
