REMARK  Name = ZINC08343761
REMARK  8 active torsions:
REMARK  status: ('A' for Active; 'I' for Inactive)
REMARK    1  A    between atoms: C_1  and  O_2
REMARK    2  A    between atoms: O_2  and  C_3
REMARK    3  A    between atoms: C_6  and  C_9
REMARK    4  A    between atoms: C_9  and  C_11
REMARK    5  A    between atoms: C_9  and  N_56
REMARK    6  A    between atoms: C_11  and  N_12
REMARK    7  A    between atoms: C_13  and  C_15
REMARK    8  A    between atoms: C_15  and  C_16
REMARK                            x       y       z     vdW  Elec       q    Type
REMARK                         _______ _______ _______ _____ _____    ______ ____
ROOT
ATOM      1  C   UNL     1       2.442   1.058   0.019  0.00  0.00    -0.020 C 
ENDROOT
BRANCH   1   7
ATOM      2  C   UNL     1       4.716   1.434   0.763  0.00  0.00    -0.049 C 
ATOM      3  C   UNL     1       5.600   2.346   1.617  0.00  0.00    +0.141 C 
ATOM      4  O   UNL     1       5.129   2.331   2.967  0.00  0.00    -0.383 OA
ATOM      5  C   UNL     1       3.770   2.755   3.108  0.00  0.00    +0.141 C 
ATOM      6  C   UNL     1       2.868   1.847   2.269  0.00  0.00    -0.049 C 
ATOM      7  N   UNL     1       3.317   1.901   0.862  0.00  0.00    +0.388 N 
ATOM      8  H   UNL     1       3.265   2.872   0.532  0.00  0.00    -0.081 HD
ENDBRANCH   1   7
BRANCH   1  12
ATOM      9  C   UNL     1      -1.559   2.542   0.255  0.00  0.00    +0.120 A 
ATOM     10  C   UNL     1      -1.326   1.175   0.223  0.00  0.00    +0.046 A 
ATOM     11  C   UNL     1      -0.031   0.698   0.152  0.00  0.00    +0.005 A 
ATOM     12  C   UNL     1       1.031   1.581   0.102  0.00  0.00    -0.059 A 
ATOM     13  C   UNL     1       0.801   2.945   0.127  0.00  0.00    +0.005 A 
ATOM     14  C   UNL     1      -0.492   3.427   0.203  0.00  0.00    +0.046 A 
BRANCH   9  16
ATOM     15  C   UNL     1      -3.881   2.045   0.378  0.00  0.00    +0.277 C 
ATOM     16  O   UNL     1      -2.831   3.014   0.329  0.00  0.00    -0.495 OA
ENDBRANCH   9  16
ENDBRANCH   1  12
BRANCH   1  17
ATOM     17  C   UNL     1       2.928   1.130  -1.430  0.00  0.00    +0.093 C 
BRANCH  17  18
ATOM     18  N   UNL     1       2.103   0.253  -2.266  0.00  0.00    -0.316 N 
ATOM     19  C   UNL     1       2.398   0.093  -3.571  0.00  0.00    +0.217 C 
ATOM     20  O   UNL     1       3.346   0.675  -4.054  0.00  0.00    -0.276 OA
ATOM     21  H   UNL     1       1.345  -0.212  -1.879  0.00  0.00    +0.149 HD
BRANCH  19  22
ATOM     22  C   UNL     1       1.550  -0.809  -4.430  0.00  0.00    +0.145 C 
BRANCH  22  23
ATOM     23  C   UNL     1       2.097  -0.814  -5.859  0.00  0.00    +0.216 C 
ATOM     24  C   UNL     1       1.334  -1.805  -6.702  0.00  0.00    +0.007 A 
ATOM     25  C   UNL     1       1.149  -3.166  -6.624  0.00  0.00    +0.008 A 
ATOM     26  C   UNL     1       0.373  -3.813  -7.571  0.00  0.00    +0.000 A 
ATOM     27  C   UNL     1      -0.217  -3.096  -8.597  0.00  0.00    +0.001 A 
ATOM     28  C   UNL     1      -0.038  -1.730  -8.684  0.00  0.00    +0.015 A 
ATOM     29  C   UNL     1       0.743  -1.071  -7.733  0.00  0.00    +0.066 A 
ATOM     30  C   UNL     1       1.115   0.345  -7.558  0.00  0.00    +0.340 C 
ATOM     31  O   UNL     1       0.765   1.251  -8.287  0.00  0.00    -0.245 OA
ATOM     32  O   UNL     1       1.896   0.488  -6.474  0.00  0.00    -0.453 OA
ENDBRANCH  22  23
ENDBRANCH  19  22
ENDBRANCH  17  18
ENDBRANCH   1  17
TORSDOF 7
