REMARK  Name = ZINC12155981
REMARK  7 active torsions:
REMARK  status: ('A' for Active; 'I' for Inactive)
REMARK    1  A    between atoms: C_1  and  C_2
REMARK    2  A    between atoms: C_2  and  C_4
REMARK    3  A    between atoms: C_2  and  S_16
REMARK    4  A    between atoms: N_9  and  C_10
REMARK    5  A    between atoms: S_16  and  C_17
REMARK    6  A    between atoms: C_21  and  C_23
REMARK    7  A    between atoms: C_23  and  C_24
REMARK                            x       y       z     vdW  Elec       q    Type
REMARK                         _______ _______ _______ _____ _____    ______ ____
ROOT
ATOM      1  C   UNL     1      -0.034   1.514   0.017  0.00  0.00    +0.029 C 
ATOM      2  C   UNL     1      -0.002  -0.016   0.004  0.00  0.00    +0.137 C 
ENDROOT
BRANCH   2   3
ATOM      3  C   UNL     1       0.706  -0.494  -1.237  0.00  0.00    +0.234 C 
ATOM      4  O   UNL     1       1.865  -0.844  -1.177  0.00  0.00    -0.274 OA
ATOM      5  N   UNL     1       0.051  -0.531  -2.414  0.00  0.00    -0.239 N 
ATOM      6  C   UNL     1       0.684  -0.959  -3.525  0.00  0.00    +0.310 C 
ATOM      7  O   UNL     1       1.846  -1.310  -3.464  0.00  0.00    -0.252 OA
ATOM      8  N   UNL     1       0.029  -0.997  -4.702  0.00  0.00    -0.269 N 
ATOM      9  H   UNL     1      -0.877  -0.251  -2.462  0.00  0.00    +0.159 HD
ATOM     10  H   UNL     1      -0.916  -0.780  -4.738  0.00  0.00    +0.156 HD
BRANCH   8  11
ATOM     11  C   UNL     1       0.712  -1.348  -5.872  0.00  0.00    +0.035 A 
ATOM     12  C   UNL     1       0.382  -0.743  -7.078  0.00  0.00    +0.023 A 
ATOM     13  C   UNL     1       1.058  -1.092  -8.230  0.00  0.00    +0.002 A 
ATOM     14  C   UNL     1       2.062  -2.042  -8.185  0.00  0.00    +0.000 A 
ATOM     15  C   UNL     1       2.392  -2.646  -6.986  0.00  0.00    +0.002 A 
ATOM     16  C   UNL     1       1.724  -2.297  -5.828  0.00  0.00    +0.023 A 
ENDBRANCH   8  11
ENDBRANCH   2   3
BRANCH   2  17
ATOM     17  S   UNL     1       0.880  -0.614   1.472  0.00  0.00    -0.074 S 
BRANCH  17  18
ATOM     18  C   UNL     1      -0.138  -0.106   2.818  0.00  0.00    +0.185 A 
ATOM     19  N   UNL     1       0.110  -0.322   4.128  0.00  0.00    -0.254 N 
ATOM     20  H   UNL     1       0.876  -0.781   4.507  0.00  0.00    +0.191 HD
ATOM     21  N   UNL     1      -0.961   0.252   4.832  0.00  0.00    -0.157 NA
ATOM     22  C   UNL     1      -1.770   0.765   3.945  0.00  0.00    +0.152 A 
ATOM     23  N   UNL     1      -1.272   0.555   2.726  0.00  0.00    -0.206 NA
BRANCH  22  24
ATOM     24  C   UNL     1      -3.058   1.486   4.250  0.00  0.00    +0.081 C 
BRANCH  24  25
ATOM     25  C   UNL     1      -2.778   2.980   4.423  0.00  0.00    -0.004 C 
ATOM     26  C   UNL     1      -1.946   3.217   5.699  0.00  0.00    +0.004 C 
ATOM     27  C   UNL     1      -2.506   4.541   6.277  0.00  0.00    +0.000 C 
ATOM     28  C   UNL     1      -4.024   4.421   5.995  0.00  0.00    +0.000 C 
ATOM     29  C   UNL     1      -4.100   3.745   4.611  0.00  0.00    +0.004 C 
ENDBRANCH  24  25
ENDBRANCH  22  24
ENDBRANCH  17  18
ENDBRANCH   2  17
TORSDOF 6
