REMARK  Name = ZINC16192718
REMARK  14 active torsions:
REMARK  status: ('A' for Active; 'I' for Inactive)
REMARK    1  A    between atoms: C_1  and  C_2
REMARK    2  A    between atoms: C_3  and  C_31
REMARK    3  A    between atoms: C_4  and  C_10
REMARK    4  A    between atoms: N_12  and  C_25
REMARK    5  A    between atoms: C_14  and  C_15
REMARK    6  A    between atoms: C_18  and  O_21
REMARK    7  A    between atoms: O_21  and  C_22
REMARK    8  A    between atoms: C_22  and  C_23
REMARK    9  A    between atoms: C_22  and  C_24
REMARK   10  A    between atoms: C_31  and  O_33
REMARK   11  A    between atoms: O_33  and  C_34
REMARK   12  A    between atoms: C_34  and  C_35
REMARK   13  A    between atoms: C_35  and  O_36
REMARK   14  A    between atoms: O_36  and  C_37
REMARK                            x       y       z     vdW  Elec       q    Type
REMARK                         _______ _______ _______ _____ _____    ______ ____
ROOT
ATOM      1  C   UNL     1      -1.161  -6.738  -1.950  0.00  0.00    +0.023 A 
ATOM      2  C   UNL     1      -1.383  -7.750  -2.817  0.00  0.00    +0.121 A 
ATOM      3  N   UNL     1      -0.887  -7.379  -4.026  0.00  0.00    -0.239 N 
ATOM      4  N   UNL     1      -0.348  -6.093  -3.897  0.00  0.00    -0.166 NA
ATOM      5  C   UNL     1      -0.514  -5.702  -2.651  0.00  0.00    +0.098 A 
ENDROOT
BRANCH   1   9
ATOM      6  C   UNL     1      -4.308  -4.251   0.562  0.00  0.00    +0.061 C 
ATOM      7  C   UNL     1      -2.982  -4.951   0.414  0.00  0.00    +0.021 C 
ATOM      8  C   UNL     1      -2.893  -6.047  -0.370  0.00  0.00    +0.078 C 
ATOM      9  C   UNL     1      -1.541  -6.720  -0.492  0.00  0.00    +0.147 C 
ATOM     10  N   UNL     1      -0.427  -6.119   0.261  0.00  0.00    -0.288 N 
ATOM     11  C   UNL     1      -0.672  -5.021   1.003  0.00  0.00    +0.304 C 
ATOM     12  O   UNL     1       0.241  -4.518   1.628  0.00  0.00    -0.252 OA
ATOM     13  N   UNL     1      -1.889  -4.467   1.074  0.00  0.00    -0.273 N 
ATOM     14  H   UNL     1       0.462  -6.505   0.223  0.00  0.00    +0.151 HD
ATOM     15  H   UNL     1      -2.000  -3.677   1.626  0.00  0.00    +0.156 HD
BRANCH   8  16
ATOM     16  C   UNL     1      -4.025  -6.549  -1.055  0.00  0.00    +0.339 C 
ATOM     17  O   UNL     1      -5.074  -5.935  -1.028  0.00  0.00    -0.245 OA
BRANCH  16  18
ATOM     18  O   UNL     1      -3.939  -7.710  -1.738  0.00  0.00    -0.459 OA
BRANCH  18  19
ATOM     19  C   UNL     1      -5.088  -8.105  -2.491  0.00  0.00    +0.260 C 
BRANCH  19  20
ATOM     20  C   UNL     1      -4.854  -9.496  -3.084  0.00  0.00    +0.200 C 
BRANCH  20  21
ATOM     21  O   UNL     1      -4.763 -10.455  -2.029  0.00  0.00    -0.380 OA
ATOM     22  C   UNL     1      -4.433 -11.774  -2.468  0.00  0.00    +0.194 C 
ENDBRANCH  20  21
ENDBRANCH  19  20
ENDBRANCH  18  19
ENDBRANCH  16  18
ENDBRANCH   8  16
ENDBRANCH   1   9
BRANCH   5  23
ATOM     23  C   UNL     1      -0.087  -4.399  -2.083  0.00  0.00    +0.003 A 
ATOM     24  C   UNL     1       1.228  -3.965  -2.241  0.00  0.00    +0.013 A 
ATOM     25  C   UNL     1       1.621  -2.754  -1.711  0.00  0.00    +0.046 A 
ATOM     26  C   UNL     1       0.709  -1.968  -1.020  0.00  0.00    +0.121 A 
ATOM     27  C   UNL     1      -0.600  -2.400  -0.856  0.00  0.00    +0.046 A 
ATOM     28  C   UNL     1      -1.001  -3.607  -1.389  0.00  0.00    +0.013 A 
BRANCH  26  29
ATOM     29  O   UNL     1       1.100  -0.775  -0.499  0.00  0.00    -0.489 OA
BRANCH  29  30
ATOM     30  C   UNL     1       0.135  -0.057   0.272  0.00  0.00    +0.167 C 
ATOM     31  C   UNL     1       0.488   1.432   0.272  0.00  0.00    +0.051 C 
ATOM     32  C   UNL     1       0.138  -0.582   1.709  0.00  0.00    +0.051 C 
ENDBRANCH  29  30
ENDBRANCH  26  29
ENDBRANCH   5  23
BRANCH   3  33
ATOM     33  C   UNL     1      -0.912  -8.148  -5.197  0.00  0.00    +0.065 A 
ATOM     34  C   UNL     1      -1.476  -9.417  -5.184  0.00  0.00    +0.028 A 
ATOM     35  C   UNL     1      -1.503 -10.170  -6.342  0.00  0.00    +0.002 A 
ATOM     36  C   UNL     1      -0.960  -9.666  -7.509  0.00  0.00    +0.000 A 
ATOM     37  C   UNL     1      -0.393  -8.405  -7.524  0.00  0.00    +0.002 A 
ATOM     38  C   UNL     1      -0.367  -7.645  -6.371  0.00  0.00    +0.028 A 
ENDBRANCH   3  33
TORSDOF 10
