REMARK  Name = ZINC32797213
REMARK  8 active torsions:
REMARK  status: ('A' for Active; 'I' for Inactive)
REMARK    1  A    between atoms: C_1  and  C_2
REMARK    2  A    between atoms: C_2  and  C_4
REMARK    3  A    between atoms: C_2  and  N_19
REMARK    4  A    between atoms: C_16  and  C_17
REMARK    5  A    between atoms: C_16  and  C_18
REMARK    6  A    between atoms: N_19  and  C_20
REMARK    7  A    between atoms: C_20  and  C_21
REMARK    8  A    between atoms: C_21  and  N_27
REMARK                            x       y       z     vdW  Elec       q    Type
REMARK                         _______ _______ _______ _____ _____    ______ ____
ROOT
ATOM      1  C   UNL     1      -1.607   2.150  -2.956  0.00  0.00    -0.004 C 
ATOM      2  C   UNL     1      -2.793   2.348  -2.011  0.00  0.00    +0.013 C 
ENDROOT
BRANCH   2   3
ATOM      3  C   UNL     1      -2.621   3.638  -1.252  0.00  0.00    +0.206 C 
ATOM      4  O   UNL     1      -3.531   4.439  -1.204  0.00  0.00    -0.277 OA
ATOM      5  N   UNL     1      -1.457   3.903  -0.627  0.00  0.00    -0.257 N 
ATOM      6  C   UNL     1      -0.421   2.956  -0.596  0.00  0.00    +0.058 A 
ATOM      7  C   UNL     1      -0.690   1.600  -0.636  0.00  0.00    +0.025 A 
ATOM      8  C   UNL     1       0.352   0.692  -0.592  0.00  0.00    +0.002 A 
ATOM      9  C   UNL     1       1.660   1.137  -0.519  0.00  0.00    +0.002 A 
ATOM     10  C   UNL     1       1.936   2.491  -0.486  0.00  0.00    +0.025 A 
ATOM     11  C   UNL     1       0.898   3.408  -0.525  0.00  0.00    +0.055 A 
ATOM     12  N   UNL     1       1.156   4.783  -0.499  0.00  0.00    -0.282 N 
ATOM     13  C   UNL     1       0.168   5.665  -0.258  0.00  0.00    +0.241 C 
ATOM     14  O   UNL     1       0.406   6.854  -0.284  0.00  0.00    -0.273 OA
ATOM     15  C   UNL     1      -1.231   5.192   0.044  0.00  0.00    +0.113 C 
ATOM     16  C   UNL     1      -1.398   5.019   1.555  0.00  0.00    +0.042 C 
ATOM     17  C   UNL     1      -2.241   6.220  -0.470  0.00  0.00    +0.042 C 
ATOM     18  H   UNL     1       2.176   5.155  -0.677  0.00  0.00    +0.155 HD
ENDBRANCH   2   3
BRANCH   2  19
ATOM     19  N   UNL     1      -4.037   2.400  -2.790  0.00  0.00    +0.388 N 
ATOM     20  H   UNL     1      -4.798   2.965  -2.231  0.00  0.00    -0.085 HD
ATOM     21  H   UNL     1      -3.846   2.897  -3.753  0.00  0.00    -0.085 HD
BRANCH  19  22
ATOM     22  C   UNL     1      -4.552   1.049  -3.052  0.00  0.00    -0.059 C 
BRANCH  22  23
ATOM     23  C   UNL     1      -5.845   1.144  -3.864  0.00  0.00    +0.007 C 
ATOM     24  C   UNL     1      -6.927   1.823  -3.022  0.00  0.00    +0.020 C 
ATOM     25  C   UNL     1      -7.179   1.002  -1.756  0.00  0.00    +0.002 C 
ATOM     26  C   UNL     1      -7.643  -0.404  -2.145  0.00  0.00    +0.000 C 
ATOM     27  C   UNL     1      -6.560  -1.083  -2.987  0.00  0.00    +0.002 C 
ATOM     28  C   UNL     1      -6.308  -0.261  -4.252  0.00  0.00    +0.020 C 
BRANCH  23  29
ATOM     29  N   UNL     1      -5.603   1.933  -5.079  0.00  0.00    -0.294 NA
ATOM     30  C   UNL     1      -6.848   2.129  -5.837  0.00  0.00    +0.113 C 
ATOM     31  C   UNL     1      -6.562   3.004  -7.060  0.00  0.00    +0.175 C 
ATOM     32  O   UNL     1      -5.538   2.392  -7.849  0.00  0.00    -0.377 OA
ATOM     33  C   UNL     1      -4.312   2.187  -7.143  0.00  0.00    +0.175 C 
ATOM     34  C   UNL     1      -4.575   1.303  -5.920  0.00  0.00    +0.113 C 
ENDBRANCH  23  29
ENDBRANCH  22  23
ENDBRANCH  19  22
ENDBRANCH   2  19
TORSDOF 5
