REMARK  Name = ZINC01317393
REMARK  7 active torsions:
REMARK  status: ('A' for Active; 'I' for Inactive)
REMARK    1  A    between atoms: C_4  and  O_7
REMARK    2  A    between atoms: O_7  and  C_8
REMARK    3  A    between atoms: C_10  and  N_17
REMARK    4  A    between atoms: C_12  and  N_14
REMARK    5  A    between atoms: C_18  and  C_20
REMARK    6  A    between atoms: C_25  and  C_36
REMARK    7  A    between atoms: C_28  and  C_31
REMARK                            x       y       z     vdW  Elec       q    Type
REMARK                         _______ _______ _______ _____ _____    ______ ____
ROOT
ATOM      1  N   UNL     1       5.880  -4.507  -0.225  0.00  0.00    -0.280 N 
ATOM      2  C   UNL     1       5.911  -5.839  -0.426  0.00  0.00    +0.268 C 
ATOM      3  O   UNL     1       4.876  -6.477  -0.435  0.00  0.00    -0.268 OA
ATOM      4  H   UNL     1       6.709  -4.008  -0.155  0.00  0.00    +0.155 HD
ENDROOT
BRANCH   2   5
ATOM      5  C   UNL     1       7.203  -6.524  -0.637  0.00  0.00    +0.149 A 
ATOM      6  C   UNL     1       7.380  -7.908  -0.864  0.00  0.00    +0.078 A 
ATOM      7  C   UNL     1       8.701  -8.131  -1.004  0.00  0.00    +0.119 A 
ATOM      8  N   UNL     1       9.351  -6.936  -0.876  0.00  0.00    -0.238 N 
ATOM      9  N   UNL     1       8.392  -5.949  -0.651  0.00  0.00    -0.164 NA
ATOM     10  C   UNL     1      10.806  -6.787  -0.976  0.00  0.00    +0.215 C 
ATOM     11  C   UNL     1      11.382  -8.009  -1.699  0.00  0.00    +0.063 C 
ATOM     12  C   UNL     1      10.844  -9.295  -1.061  0.00  0.00    +0.111 C 
ATOM     13  N   UNL     1       9.379  -9.331  -1.240  0.00  0.00    -0.322 N 
ATOM     14  H   UNL     1       8.914 -10.140  -1.506  0.00  0.00    +0.148 HD
BRANCH  12  15
ATOM     15  C   UNL     1      11.469 -10.492  -1.729  0.00  0.00    +0.010 A 
ATOM     16  C   UNL     1      12.499 -11.265  -1.305  0.00  0.00    +0.013 A 
ATOM     17  C   UNL     1      12.909 -12.325  -2.091  0.00  0.00    +0.008 A 
ATOM     18  C   UNL     1      12.270 -12.560  -3.263  0.00  0.00    +0.045 A 
ATOM     19  S   UNL     1      11.042 -11.264  -3.280  0.00  0.00    -0.100 S 
ENDBRANCH  12  15
BRANCH  10  20
ATOM     20  C   UNL     1      11.137  -5.518  -1.764  0.00  0.00    +0.412 C 
ATOM     21  F   UNL     1      10.599  -4.407  -1.107  0.00  0.00    -0.168 F 
ATOM     22  F   UNL     1      12.526  -5.377  -1.859  0.00  0.00    -0.168 F 
ATOM     23  F   UNL     1      10.590  -5.611  -3.049  0.00  0.00    -0.168 F 
ENDBRANCH  10  20
ENDBRANCH   2   5
BRANCH   1  26
ATOM     24  C   UNL     1       2.362  -3.811   0.600  0.00  0.00    +0.132 A 
ATOM     25  C   UNL     1       3.577  -4.471   0.495  0.00  0.00    +0.069 A 
ATOM     26  C   UNL     1       4.653  -3.845  -0.118  0.00  0.00    +0.039 A 
ATOM     27  C   UNL     1       4.510  -2.558  -0.623  0.00  0.00    +0.056 A 
ATOM     28  C   UNL     1       3.299  -1.904  -0.516  0.00  0.00    +0.131 A 
ATOM     29  C   UNL     1       2.224  -2.528   0.088  0.00  0.00    +0.079 A 
BRANCH  28  30
ATOM     30  N   UNL     1       3.149  -0.533  -1.055  0.00  0.00    +0.057 N 
ATOM     31  O   UNL     1       4.087   0.012  -1.589  0.00  0.00    -0.126 OA
ATOM     32  O   UNL     1       2.089   0.041  -0.962  0.00  0.00    -0.126 OA
ENDBRANCH  28  30
BRANCH  24  33
ATOM     33  O   UNL     1       1.306  -4.421   1.199  0.00  0.00    -0.456 OA
BRANCH  33  37
ATOM     34  C   UNL     1       1.300  -4.683   5.316  0.00  0.00    +0.000 A 
ATOM     35  C   UNL     1       0.203  -5.118   4.595  0.00  0.00    +0.004 A 
ATOM     36  C   UNL     1       0.203  -5.031   3.216  0.00  0.00    +0.046 A 
ATOM     37  C   UNL     1       1.304  -4.507   2.555  0.00  0.00    +0.128 A 
ATOM     38  C   UNL     1       2.404  -4.071   3.281  0.00  0.00    +0.046 A 
ATOM     39  C   UNL     1       2.399  -4.160   4.659  0.00  0.00    +0.004 A 
ENDBRANCH  33  37
ENDBRANCH  24  33
ENDBRANCH   1  26
TORSDOF 7
