REMARK  Name = ZINC40180896
REMARK  11 active torsions:
REMARK  status: ('A' for Active; 'I' for Inactive)
REMARK    1  A    between atoms: C_1  and  C_2
REMARK    2  A    between atoms: C_2  and  C_4
REMARK    3  A    between atoms: C_2  and  N_27
REMARK    4  A    between atoms: N_12  and  C_13
REMARK    5  A    between atoms: C_13  and  C_14
REMARK    6  A    between atoms: N_16  and  C_17
REMARK    7  A    between atoms: N_16  and  C_24
REMARK    8  A    between atoms: C_17  and  C_18
REMARK    9  A    between atoms: C_24  and  C_25
REMARK   10  A    between atoms: C_24  and  C_26
REMARK   11  A    between atoms: C_28  and  C_30
REMARK                            x       y       z     vdW  Elec       q    Type
REMARK                         _______ _______ _______ _____ _____    ______ ____
ROOT
ATOM      1  C   UNL     1       0.611  -0.566   1.112  0.00  0.00    +0.131 A 
ATOM      2  N   UNL     1       0.056  -0.597   2.289  0.00  0.00    -0.230 NA
ATOM      3  C   UNL     1       0.945  -1.069   3.200  0.00  0.00    +0.089 A 
ATOM      4  C   UNL     1       0.881  -1.304   4.576  0.00  0.00    +0.030 A 
ATOM      5  C   UNL     1       1.972  -1.798   5.234  0.00  0.00    +0.002 A 
ATOM      6  C   UNL     1       3.148  -2.070   4.549  0.00  0.00    +0.002 A 
ATOM      7  C   UNL     1       3.234  -1.846   3.191  0.00  0.00    +0.028 A 
ATOM      8  C   UNL     1       2.135  -1.345   2.506  0.00  0.00    +0.069 A 
ATOM      9  N   UNL     1       1.890  -1.022   1.187  0.00  0.00    -0.317 N 
ENDROOT
BRANCH   1  11
ATOM     10  C   UNL     1      -0.160   1.428  -0.145  0.00  0.00    +0.036 C 
ATOM     11  C   UNL     1      -0.068  -0.100  -0.150  0.00  0.00    +0.136 C 
BRANCH  11  12
ATOM     12  N   UNL     1      -1.415  -0.670  -0.220  0.00  0.00    -0.302 N 
ATOM     13  C   UNL     1      -2.018  -0.831  -1.414  0.00  0.00    +0.246 C 
ATOM     14  O   UNL     1      -1.443  -0.504  -2.434  0.00  0.00    -0.270 OA
ATOM     15  H   UNL     1      -1.874  -0.931   0.594  0.00  0.00    +0.150 HD
BRANCH  13  16
ATOM     16  C   UNL     1      -3.378  -1.406  -1.484  0.00  0.00    +0.055 A 
ATOM     17  C   UNL     1      -4.013  -1.585  -2.720  0.00  0.00    +0.016 A 
ATOM     18  C   UNL     1      -5.285  -2.127  -2.730  0.00  0.00    +0.020 A 
ATOM     19  C   UNL     1      -5.884  -2.474  -1.532  0.00  0.00    +0.111 A 
ATOM     20  N   UNL     1      -5.262  -2.294  -0.383  0.00  0.00    -0.263 NA
ATOM     21  C   UNL     1      -4.048  -1.786  -0.321  0.00  0.00    +0.123 A 
ENDBRANCH  13  16
ENDBRANCH  11  12
ENDBRANCH   1  11
BRANCH   9  22
ATOM     22  C   UNL     1       2.834  -1.145   0.073  0.00  0.00    +0.219 C 
BRANCH  22  23
ATOM     23  C   UNL     1       3.616   0.137  -0.066  0.00  0.00    +0.236 C 
ATOM     24  O   UNL     1       3.405   1.061   0.690  0.00  0.00    -0.274 OA
ATOM     25  N   UNL     1       4.549   0.255  -1.031  0.00  0.00    -0.293 N 
BRANCH  25  26
ATOM     26  C   UNL     1       4.804  -0.861  -1.945  0.00  0.00    +0.070 C 
ATOM     27  C   UNL     1       4.669  -0.378  -3.390  0.00  0.00    +0.028 C 
ATOM     28  C   UNL     1       6.220  -1.395  -1.716  0.00  0.00    +0.028 C 
ENDBRANCH  25  26
BRANCH  25  29
ATOM     29  C   UNL     1       5.309   1.501  -1.167  0.00  0.00    +0.143 C 
BRANCH  29  30
ATOM     30  C   UNL     1       6.478   1.482  -0.216  0.00  0.00    -0.030 A 
ATOM     31  C   UNL     1       6.301   1.846   1.105  0.00  0.00    +0.005 A 
ATOM     32  C   UNL     1       7.374   1.828   1.977  0.00  0.00    +0.000 A 
ATOM     33  C   UNL     1       8.624   1.446   1.527  0.00  0.00    +0.000 A 
ATOM     34  C   UNL     1       8.801   1.081   0.205  0.00  0.00    +0.000 A 
ATOM     35  C   UNL     1       7.727   1.094  -0.665  0.00  0.00    +0.005 A 
ENDBRANCH  29  30
ENDBRANCH  25  29
ENDBRANCH  22  23
ENDBRANCH   9  22
TORSDOF 8
