REMARK  Name = ZINC09004933
REMARK  8 active torsions:
REMARK  status: ('A' for Active; 'I' for Inactive)
REMARK    1  A    between atoms: C_1  and  C_2
REMARK    2  A    between atoms: C_5  and  N_9
REMARK    3  A    between atoms: C_6  and  C_8
REMARK    4  A    between atoms: C_10  and  C_12
REMARK    5  A    between atoms: C_13  and  C_31
REMARK    6  A    between atoms: N_19  and  C_22
REMARK    7  A    between atoms: C_22  and  C_23
REMARK    8  A    between atoms: N_25  and  C_26
REMARK                            x       y       z     vdW  Elec       q    Type
REMARK                         _______ _______ _______ _____ _____    ______ ____
ROOT
ATOM      1  C   UNL     1       3.708  -0.942   0.175  0.00  0.00    +0.080 A 
ATOM      2  C   UNL     1       3.936  -2.283   0.282  0.00  0.00    -0.017 A 
ATOM      3  C   UNL     1       5.246  -2.762   0.358  0.00  0.00    +0.076 A 
ATOM      4  C   UNL     1       6.262  -1.780   0.326  0.00  0.00    +0.116 A 
ATOM      5  S   UNL     1       5.357  -0.260   0.187  0.00  0.00    -0.064 S 
ATOM      6  N   UNL     1       7.548  -2.101   0.395  0.00  0.00    -0.230 NA
ATOM      7  C   UNL     1       7.939  -3.342   0.496  0.00  0.00    +0.203 A 
ATOM      8  N   UNL     1       7.056  -4.371   0.536  0.00  0.00    -0.290 N 
ATOM      9  C   UNL     1       5.727  -4.157   0.473  0.00  0.00    +0.263 A 
ATOM     10  O   UNL     1       4.942  -5.088   0.509  0.00  0.00    -0.267 OA
ATOM     11  C   UNL     1       2.777  -3.246   0.315  0.00  0.00    +0.046 C 
ENDROOT
BRANCH   1  13
ATOM     12  N   UNL     1       2.402   1.107  -0.015  0.00  0.00    -0.281 N 
ATOM     13  C   UNL     1       2.426  -0.237   0.080  0.00  0.00    +0.255 C 
ATOM     14  O   UNL     1       1.384  -0.865   0.087  0.00  0.00    -0.269 OA
ATOM     15  H   UNL     1       3.232   1.603  -0.086  0.00  0.00    +0.155 HD
BRANCH  12  20
ATOM     16  C   UNL     1      -2.556   3.863   0.005  0.00  0.00    +0.044 C 
ATOM     17  C   UNL     1      -1.238   3.131  -0.000  0.00  0.00    -0.050 A 
ATOM     18  C   UNL     1      -1.140   1.892  -0.607  0.00  0.00    +0.005 A 
ATOM     19  C   UNL     1       0.064   1.216  -0.608  0.00  0.00    +0.024 A 
ATOM     20  C   UNL     1       1.180   1.787  -0.010  0.00  0.00    +0.037 A 
ATOM     21  C   UNL     1       1.079   3.034   0.593  0.00  0.00    -0.029 A 
ATOM     22  C   UNL     1      -0.130   3.702   0.596  0.00  0.00    +0.008 A 
ATOM     23  C   UNL     1       2.287   3.657   1.244  0.00  0.00    +0.045 C 
ENDBRANCH  12  20
ENDBRANCH   1  13
BRANCH   8  24
ATOM     24  C   UNL     1       7.557  -5.742   0.650  0.00  0.00    +0.221 C 
BRANCH  24  25
ATOM     25  C   UNL     1       7.780  -6.313  -0.727  0.00  0.00    +0.233 C 
ATOM     26  O   UNL     1       7.544  -5.639  -1.707  0.00  0.00    -0.274 OA
ATOM     27  N   UNL     1       8.243  -7.571  -0.869  0.00  0.00    -0.311 N 
ATOM     28  H   UNL     1       8.432  -8.109  -0.084  0.00  0.00    +0.149 HD
BRANCH  27  29
ATOM     29  C   UNL     1       8.459  -8.125  -2.207  0.00  0.00    +0.073 C 
ATOM     30  C   UNL     1       7.161  -8.776  -2.726  0.00  0.00    +0.022 C 
ATOM     31  C   UNL     1       7.646 -10.024  -3.505  0.00  0.00    +0.002 C 
ATOM     32  C   UNL     1       8.826 -10.530  -2.638  0.00  0.00    +0.002 C 
ATOM     33  C   UNL     1       9.518  -9.240  -2.151  0.00  0.00    +0.022 C 
ENDBRANCH  27  29
ENDBRANCH  24  25
ENDBRANCH   8  24
TORSDOF 5
