REMARK  Name = ZINC21169331
REMARK  11 active torsions:
REMARK  status: ('A' for Active; 'I' for Inactive)
REMARK    1  A    between atoms: C_1  and  C_2
REMARK    2  A    between atoms: C_2  and  C_3
REMARK    3  A    between atoms: C_3  and  O_4
REMARK    4  A    between atoms: O_4  and  C_5
REMARK    5  A    between atoms: C_5  and  C_7
REMARK    6  A    between atoms: C_10  and  N_13
REMARK    7  A    between atoms: C_14  and  C_32
REMARK    8  A    between atoms: C_19  and  C_29
REMARK    9  A    between atoms: C_21  and  C_28
REMARK   10  A    between atoms: C_29  and  O_30
REMARK   11  A    between atoms: O_30  and  C_31
REMARK                            x       y       z     vdW  Elec       q    Type
REMARK                         _______ _______ _______ _____ _____    ______ ____
ROOT
ATOM      1  N   UNL     1      -0.011   1.087   2.440  0.00  0.00    -0.248 N 
ATOM      2  C   UNL     1      -0.151   1.185   0.989  0.00  0.00    +0.163 C 
ATOM      3  N   UNL     1      -1.538   1.060   0.539  0.00  0.00    -0.324 N 
ATOM      4  C   UNL     1      -2.162  -0.058   1.119  0.00  0.00    +0.058 A 
ATOM      5  C   UNL     1      -3.212  -0.845   0.506  0.00  0.00    +0.035 A 
ATOM      6  C   UNL     1      -3.770  -0.652  -0.786  0.00  0.00    -0.009 A 
ATOM      7  C   UNL     1      -4.769  -1.534  -1.150  0.00  0.00    +0.029 A 
ATOM      8  C   UNL     1      -5.201  -2.544  -0.308  0.00  0.00    +0.040 A 
ATOM      9  N   UNL     1      -4.683  -2.729   0.899  0.00  0.00    -0.245 NA
ATOM     10  C   UNL     1      -3.727  -1.915   1.289  0.00  0.00    +0.111 A 
ATOM     11  S   UNL     1      -2.793  -1.835   2.789  0.00  0.00    -0.062 S 
ATOM     12  C   UNL     1      -1.766  -0.452   2.394  0.00  0.00    +0.098 A 
ATOM     13  C   UNL     1      -0.751   0.180   3.133  0.00  0.00    +0.261 C 
ATOM     14  O   UNL     1      -0.548  -0.066   4.309  0.00  0.00    -0.269 OA
ATOM     15  C   UNL     1      -6.298  -3.464  -0.778  0.00  0.00    +0.065 C 
ATOM     16  C   UNL     1       0.680   0.079   0.338  0.00  0.00    +0.050 C 
ATOM     17  H   UNL     1      -1.956   1.794  -0.166  0.00  0.00    +0.148 HD
ENDROOT
BRANCH   1  21
ATOM     18  C   UNL     1       2.654   3.578   4.449  0.00  0.00    +0.059 A 
ATOM     19  C   UNL     1       3.079   2.332   3.977  0.00  0.00    +0.017 A 
ATOM     20  C   UNL     1       2.196   1.511   3.314  0.00  0.00    +0.024 A 
ATOM     21  C   UNL     1       0.881   1.920   3.112  0.00  0.00    +0.038 A 
ATOM     22  C   UNL     1       0.455   3.162   3.575  0.00  0.00    +0.024 A 
ATOM     23  C   UNL     1       1.332   3.986   4.244  0.00  0.00    +0.017 A 
BRANCH  18  24
ATOM     24  C   UNL     1       3.598   4.461   5.159  0.00  0.00    +0.339 C 
ATOM     25  O   UNL     1       4.746   4.106   5.335  0.00  0.00    -0.245 OA
BRANCH  24  26
ATOM     26  O   UNL     1       3.186   5.661   5.613  0.00  0.00    -0.461 OA
BRANCH  26  27
ATOM     27  C   UNL     1       4.169   6.477   6.303  0.00  0.00    +0.232 C 
BRANCH  27  29
ATOM     28  C   UNL     1       4.558   8.652   7.468  0.00  0.00    +0.007 C 
ATOM     29  C   UNL     1       3.523   7.793   6.741  0.00  0.00    +0.038 C 
ENDBRANCH  27  29
ENDBRANCH  26  27
ENDBRANCH  24  26
ENDBRANCH  18  24
ENDBRANCH   1  21
BRANCH   6  30
ATOM     30  C   UNL     1      -3.300   0.448  -1.703  0.00  0.00    +0.195 C 
BRANCH  30  31
ATOM     31  O   UNL     1      -4.039   0.397  -2.925  0.00  0.00    -0.378 OA
ATOM     32  C   UNL     1      -3.669   1.403  -3.870  0.00  0.00    +0.194 C 
ENDBRANCH  30  31
ENDBRANCH   6  30
TORSDOF 7
