REMARK  Name = ZINC12559840
REMARK  4 active torsions:
REMARK  status: ('A' for Active; 'I' for Inactive)
REMARK    1  A    between atoms: C_4  and  C_7
REMARK    2  A    between atoms: C_8  and  C_27
REMARK    3  A    between atoms: C_9  and  C_15
REMARK    4  A    between atoms: C_18  and  C_20
REMARK                            x       y       z     vdW  Elec       q    Type
REMARK                         _______ _______ _______ _____ _____    ______ ____
ROOT
ATOM      1  C   UNL     1       3.692  -0.693  -0.129  0.00  0.00    +0.051 C 
ATOM      2  C   UNL     1       3.711  -2.039   0.051  0.00  0.00    +0.044 C 
ATOM      3  C   UNL     1       5.062  -2.720   0.130  0.00  0.00    +0.176 C 
ATOM      4  N   UNL     1       6.253  -1.865   0.004  0.00  0.00    -0.285 N 
ATOM      5  C   UNL     1       6.083  -0.540  -0.172  0.00  0.00    +0.305 C 
ATOM      6  O   UNL     1       7.066   0.168  -0.276  0.00  0.00    -0.252 OA
ATOM      7  N   UNL     1       4.870   0.022  -0.241  0.00  0.00    -0.268 N 
ATOM      8  H   UNL     1       7.143  -2.248   0.048  0.00  0.00    +0.151 HD
ATOM      9  H   UNL     1       4.815   0.982  -0.374  0.00  0.00    +0.156 HD
ENDROOT
BRANCH   2  10
ATOM     10  C   UNL     1       2.471  -2.804   0.166  0.00  0.00    +0.139 A 
ATOM     11  N   UNL     1       2.094  -3.831  -0.665  0.00  0.00    -0.338 N 
ATOM     12  H   UNL     1       2.595  -4.173  -1.422  0.00  0.00    +0.167 HD
ATOM     13  C   UNL     1       0.866  -4.286  -0.220  0.00  0.00    +0.066 A 
ATOM     14  C   UNL     1       0.001  -5.284  -0.645  0.00  0.00    +0.028 A 
ATOM     15  C   UNL     1      -1.184  -5.499   0.029  0.00  0.00    +0.002 A 
ATOM     16  C   UNL     1      -1.518  -4.723   1.130  0.00  0.00    +0.002 A 
ATOM     17  C   UNL     1      -0.673  -3.729   1.567  0.00  0.00    +0.030 A 
ATOM     18  C   UNL     1       0.533  -3.497   0.896  0.00  0.00    +0.089 A 
ATOM     19  N   UNL     1       1.547  -2.619   1.086  0.00  0.00    -0.228 NA
ENDBRANCH   2  10
BRANCH   1  23
ATOM     20  C   UNL     1      -0.028   1.342  -0.370  0.00  0.00    +0.000 A 
ATOM     21  C   UNL     1       0.963   1.815   0.472  0.00  0.00    +0.001 A 
ATOM     22  C   UNL     1       2.173   1.159   0.556  0.00  0.00    +0.010 A 
ATOM     23  C   UNL     1       2.398   0.015  -0.213  0.00  0.00    -0.003 A 
ATOM     24  C   UNL     1       1.394  -0.457  -1.061  0.00  0.00    +0.010 A 
ATOM     25  C   UNL     1       0.188   0.209  -1.134  0.00  0.00    +0.001 A 
ENDBRANCH   1  23
BRANCH   3  26
ATOM     26  C   UNL     1       5.144  -3.436   1.454  0.00  0.00    +0.131 A 
ATOM     27  C   UNL     1       4.947  -4.755   1.648  0.00  0.00    +0.047 A 
ATOM     28  C   UNL     1       5.118  -5.000   3.025  0.00  0.00    +0.050 A 
ATOM     29  C   UNL     1       5.413  -3.804   3.602  0.00  0.00    +0.135 A 
ATOM     30  O   UNL     1       5.431  -2.866   2.636  0.00  0.00    -0.457 OA
BRANCH  29  31
ATOM     31  C   UNL     1       5.674  -3.576   5.038  0.00  0.00    +0.017 A 
ATOM     32  C   UNL     1       5.636  -4.644   5.936  0.00  0.00    +0.012 A 
ATOM     33  C   UNL     1       5.881  -4.424   7.276  0.00  0.00    +0.016 A 
ATOM     34  C   UNL     1       6.164  -3.147   7.730  0.00  0.00    +0.018 A 
ATOM     35  C   UNL     1       6.204  -2.083   6.845  0.00  0.00    +0.016 A 
ATOM     36  C   UNL     1       5.966  -2.292   5.502  0.00  0.00    +0.012 A 
ATOM     37 BR   UNL     1       6.497  -2.854   9.569  0.00  0.00    -0.050 Br
ENDBRANCH  29  31
ENDBRANCH   3  26
TORSDOF 4
