REMARK  Name = ZINC65265886
REMARK  6 active torsions:
REMARK  status: ('A' for Active; 'I' for Inactive)
REMARK    1  A    between atoms: C_1  and  O_2
REMARK    2  A    between atoms: O_2  and  C_3
REMARK    3  A    between atoms: C_6  and  C_11
REMARK    4  A    between atoms: C_7  and  O_9
REMARK    5  A    between atoms: O_9  and  C_10
REMARK    6  A    between atoms: N_28  and  C_29
REMARK                            x       y       z     vdW  Elec       q    Type
REMARK                         _______ _______ _______ _____ _____    ______ ____
ROOT
ATOM      1  C   UNL     1       2.153  -3.134  -4.923  0.00  0.00    +0.250 C 
ATOM      2  O   UNL     1       2.372  -4.320  -5.081  0.00  0.00    -0.270 OA
ATOM      3  N   UNL     1       2.675  -2.233  -5.778  0.00  0.00    -0.295 N 
ATOM      4  C   UNL     1       2.589  -0.766  -5.640  0.00  0.00    +0.110 C 
ATOM      5  C   UNL     1       3.794  -0.217  -6.448  0.00  0.00    +0.050 C 
ATOM      6  C   UNL     1       3.855  -1.212  -7.621  0.00  0.00    +0.091 C 
ATOM      7  C   UNL     1       3.432  -2.547  -7.002  0.00  0.00    +0.137 C 
ATOM      8  C   UNL     1       5.219  -1.282  -8.219  0.00  0.00    +0.095 C 
ATOM      9  N   UNL     1       5.483  -0.418  -9.254  0.00  0.00    -0.303 N 
ATOM     10  C   UNL     1       5.205  -0.824 -10.556  0.00  0.00    +0.037 A 
ATOM     11  C   UNL     1       6.132  -0.603 -11.565  0.00  0.00    +0.023 A 
ATOM     12  C   UNL     1       5.854  -0.991 -12.860  0.00  0.00    +0.002 A 
ATOM     13  C   UNL     1       4.644  -1.599 -13.142  0.00  0.00    +0.000 A 
ATOM     14  C   UNL     1       3.725  -1.823 -12.139  0.00  0.00    +0.007 A 
ATOM     15  C   UNL     1       3.993  -1.445 -10.827  0.00  0.00    -0.012 A 
ATOM     16  C   UNL     1       2.939  -1.768  -9.798  0.00  0.00    +0.119 C 
ATOM     17  N   UNL     1       2.914  -0.806  -8.689  0.00  0.00    -0.299 NA
ATOM     18  N   UNL     1       6.110  -2.113  -7.785  0.00  0.00    -0.372 N 
ATOM     19  H   UNL     1       1.979  -0.697  -8.325  0.00  0.00    +0.123 HD
ATOM     20  H   UNL     1       5.928  -2.651  -6.999  0.00  0.00    +0.161 HD
ATOM     21  H   UNL     1       5.856   0.461  -9.081  0.00  0.00    +0.153 HD
ENDROOT
BRANCH   1  25
ATOM     22  C   UNL     1      -0.257  -1.834  -1.675  0.00  0.00    +0.124 A 
ATOM     23  C   UNL     1      -0.331  -1.183  -2.903  0.00  0.00    +0.046 A 
ATOM     24  C   UNL     1       0.448  -1.600  -3.957  0.00  0.00    +0.020 A 
ATOM     25  C   UNL     1       1.318  -2.683  -3.796  0.00  0.00    +0.079 A 
ATOM     26  C   UNL     1       1.392  -3.338  -2.558  0.00  0.00    +0.136 A 
ATOM     27  C   UNL     1       0.607  -2.905  -1.503  0.00  0.00    +0.092 A 
BRANCH  22  29
ATOM     28  C   UNL     1      -1.897  -0.306  -0.886  0.00  0.00    +0.277 C 
ATOM     29  O   UNL     1      -1.029  -1.415  -0.641  0.00  0.00    -0.495 OA
ENDBRANCH  22  29
BRANCH  26  30
ATOM     30  O   UNL     1       2.233  -4.390  -2.393  0.00  0.00    -0.494 OA
ATOM     31  C   UNL     1       2.255  -5.008  -1.105  0.00  0.00    +0.277 C 
ENDBRANCH  26  30
ENDBRANCH   1  25
BRANCH  18  32
ATOM     32  C   UNL     1       7.393  -2.242  -8.481  0.00  0.00    +0.080 C 
ATOM     33  C   UNL     1       7.279  -3.289  -9.608  0.00  0.00    +0.024 C 
ATOM     34  C   UNL     1       8.648  -4.013  -9.593  0.00  0.00    +0.002 C 
ATOM     35  C   UNL     1       8.973  -4.098  -8.081  0.00  0.00    +0.002 C 
ATOM     36  C   UNL     1       8.470  -2.756  -7.510  0.00  0.00    +0.024 C 
ENDBRANCH  18  32
TORSDOF 4
