REMARK  Name = ZINC20701250
REMARK  3 active torsions:
REMARK  status: ('A' for Active; 'I' for Inactive)
REMARK    1  A    between atoms: C_1  and  C_2
REMARK    2  A    between atoms: C_9  and  C_18
REMARK    3  A    between atoms: C_23  and  O_24
REMARK                            x       y       z     vdW  Elec       q    Type
REMARK                         _______ _______ _______ _____ _____    ______ ____
ROOT
ATOM      1  C   UNL     1       2.779   6.099  -1.448  0.00  0.00    +0.047 C 
ATOM      2  C   UNL     1       2.585   5.744   0.004  0.00  0.00    -0.011 A 
ATOM      3  C   UNL     1       2.085   6.688   0.875  0.00  0.00    +0.046 A 
ATOM      4  C   UNL     1       1.905   6.376   2.211  0.00  0.00    +0.020 A 
ATOM      5  C   UNL     1       2.221   5.110   2.666  0.00  0.00    +0.007 A 
ATOM      6  C   UNL     1       2.713   4.157   1.799  0.00  0.00    -0.019 A 
ATOM      7  C   UNL     1       2.914   4.463   0.450  0.00  0.00    +0.036 A 
ATOM      8  N   UNL     1       3.429   3.568  -0.486  0.00  0.00    -0.336 N 
ATOM      9  C   UNL     1       3.671   2.193  -0.022  0.00  0.00    +0.109 C 
ATOM     10  C   UNL     1       4.225   2.289   1.385  0.00  0.00    +0.029 C 
ATOM     11  C   UNL     1       3.023   2.783   2.249  0.00  0.00    +0.049 C 
ATOM     12  C   UNL     1       3.477   2.477   3.628  0.00  0.00    -0.023 C 
ATOM     13  C   UNL     1       4.296   1.431   3.581  0.00  0.00    -0.030 C 
ATOM     14  C   UNL     1       4.480   0.978   2.130  0.00  0.00    +0.033 C 
ATOM     15 CL   UNL     1       1.682   8.274   0.295  0.00  0.00    -0.083 Cl
ATOM     16  H   UNL     1       3.654   3.845  -1.526  0.00  0.00    +0.147 HD
ENDROOT
BRANCH   9  17
ATOM     17  C   UNL     1       2.378   1.418  -0.013  0.00  0.00    +0.017 A 
ATOM     18  C   UNL     1       1.171   2.090   0.002  0.00  0.00    +0.029 A 
ATOM     19  C   UNL     1      -0.017   1.380   0.010  0.00  0.00    +0.043 A 
ATOM     20  C   UNL     1       0.002  -0.004   0.002  0.00  0.00    +0.043 A 
ATOM     21  C   UNL     1       1.208  -0.679  -0.013  0.00  0.00    +0.084 A 
ATOM     22  C   UNL     1       2.400   0.032  -0.020  0.00  0.00    +0.140 A 
ATOM     23 CL   UNL     1       1.232  -2.415  -0.021  0.00  0.00    -0.080 Cl
ATOM     24 CL   UNL     1      -1.532   2.226   0.021  0.00  0.00    -0.083 Cl
BRANCH  22  25
ATOM     25  O   UNL     1       3.588  -0.630  -0.035  0.00  0.00    -0.505 OA
ATOM     26  H   UNL     1       3.604  -1.730  -0.041  0.00  0.00    +0.292 HD
ENDBRANCH  22  25
ENDBRANCH   9  17
TORSDOF 2
