REMARK  Name = ZINC12419120
REMARK  6 active torsions:
REMARK  status: ('A' for Active; 'I' for Inactive)
REMARK    1  A    between atoms: C_1  and  C_2
REMARK    2  A    between atoms: C_2  and  C_3
REMARK    3  A    between atoms: C_9  and  C_22
REMARK    4  A    between atoms: C_10  and  N_21
REMARK    5  A    between atoms: C_17  and  C_19
REMARK    6  A    between atoms: C_17  and  C_20
REMARK                            x       y       z     vdW  Elec       q    Type
REMARK                         _______ _______ _______ _____ _____    ______ ____
ROOT
ATOM      1  C   UNL     1       3.642  -2.132   2.370  0.00  0.00    -0.011 C 
ATOM      2  C   UNL     1       2.394  -1.440   2.919  0.00  0.00    +0.005 C 
ATOM      3  C   UNL     1       2.356   0.009   2.428  0.00  0.00    +0.017 C 
ATOM      4  C   UNL     1       2.317   0.028   0.897  0.00  0.00    +0.042 C 
ATOM      5  C   UNL     1       3.567  -0.665   0.349  0.00  0.00    +0.017 C 
ATOM      6  C   UNL     1       3.605  -2.113   0.841  0.00  0.00    +0.005 C 
ATOM      7  C   UNL     1       1.090  -0.697   0.417  0.00  0.00    +0.097 C 
ATOM      8  C   UNL     1       0.002  -0.004   0.002  0.00  0.00    +0.198 C 
ATOM      9  O   UNL     1      -0.016   1.338   0.009  0.00  0.00    -0.445 OA
ATOM     10  C   UNL     1       1.143   2.022   0.002  0.00  0.00    +0.115 C 
ATOM     11  C   UNL     1       2.292   1.460   0.419  0.00  0.00    +0.044 C 
ATOM     12  C   UNL     1       3.500   2.182   0.426  0.00  0.00    +0.164 C 
ATOM     13  O   UNL     1       4.520   1.635   0.796  0.00  0.00    -0.292 OA
ATOM     14  C   UNL     1       3.552   3.620  -0.015  0.00  0.00    +0.086 C 
ATOM     15  C   UNL     1       2.186   4.266   0.239  0.00  0.00    -0.021 C 
ATOM     16  C   UNL     1       1.121   3.449  -0.495  0.00  0.00    +0.081 C 
ATOM     17  C   UNL     1       1.889   4.268   1.740  0.00  0.00    +0.012 C 
ATOM     18  C   UNL     1       2.191   5.703  -0.287  0.00  0.00    +0.012 C 
ENDROOT
BRANCH   8  19
ATOM     19  N   UNL     1      -1.104  -0.689  -0.435  0.00  0.00    -0.328 N 
ATOM     20  H   UNL     1      -1.889  -0.203  -0.735  0.00  0.00    +0.145 HD
ATOM     21  H   UNL     1      -1.102  -1.659  -0.445  0.00  0.00    +0.145 HD
ENDBRANCH   8  19
BRANCH   1  23
ATOM     22  C   UNL     1       4.988  -4.237   2.416  0.00  0.00    +0.004 C 
ATOM     23  C   UNL     1       3.679  -3.581   2.861  0.00  0.00    -0.000 C 
ENDBRANCH   1  23
BRANCH   7  24
ATOM     24  C   UNL     1       1.072  -2.129   0.397  0.00  0.00    +0.101 C 
ATOM     25  N   UNL     1       1.057  -3.265   0.382  0.00  0.00    -0.191 NA
ENDBRANCH   7  24
TORSDOF 3
