REMARK  Name = ZINC14475689
REMARK  5 active torsions:
REMARK  status: ('A' for Active; 'I' for Inactive)
REMARK    1  A    between atoms: C_1  and  C_2
REMARK    2  A    between atoms: C_4  and  C_28
REMARK    3  A    between atoms: C_15  and  C_18
REMARK    4  A    between atoms: C_20  and  N_25
REMARK    5  A    between atoms: C_23  and  O_24
REMARK                            x       y       z     vdW  Elec       q    Type
REMARK                         _______ _______ _______ _____ _____    ______ ____
ROOT
ATOM      1  C   UNL     1      -0.018   1.503   0.010  0.00  0.00    +0.044 C 
ATOM      2  C   UNL     1       0.002  -0.004   0.002  0.00  0.00    -0.050 A 
ATOM      3  C   UNL     1       0.006  -0.689  -1.199  0.00  0.00    +0.008 A 
ATOM      4  C   UNL     1       0.031  -2.069  -1.210  0.00  0.00    -0.029 A 
ATOM      5  C   UNL     1       0.049  -2.780  -0.017  0.00  0.00    +0.034 A 
ATOM      6  C   UNL     1       0.033  -2.080   1.195  0.00  0.00    -0.019 A 
ATOM      7  C   UNL     1       0.023  -0.702   1.195  0.00  0.00    +0.009 A 
ATOM      8  C   UNL     1       0.014  -2.875   2.442  0.00  0.00    +0.049 C 
ATOM      9  C   UNL     1       0.567  -2.350   3.717  0.00  0.00    -0.023 C 
ATOM     10  C   UNL     1       1.041  -3.368   4.425  0.00  0.00    -0.030 C 
ATOM     11  C   UNL     1       0.866  -4.673   3.646  0.00  0.00    +0.033 C 
ATOM     12  C   UNL     1       0.871  -4.155   2.205  0.00  0.00    +0.029 C 
ATOM     13  C   UNL     1       0.097  -4.978   1.191  0.00  0.00    +0.108 C 
ATOM     14  N   UNL     1       0.096  -4.179  -0.053  0.00  0.00    -0.336 N 
ATOM     15  C   UNL     1       0.039  -2.808  -2.524  0.00  0.00    +0.045 C 
ATOM     16  H   UNL     1       0.127  -4.632  -0.910  0.00  0.00    +0.147 HD
ENDROOT
BRANCH  13  17
ATOM     17  C   UNL     1       0.783  -6.301   0.963  0.00  0.00    +0.017 A 
ATOM     18  C   UNL     1       1.668  -6.448  -0.088  0.00  0.00    +0.041 A 
ATOM     19  C   UNL     1       2.297  -7.661  -0.298  0.00  0.00    +0.127 A 
ATOM     20  C   UNL     1       2.042  -8.730   0.543  0.00  0.00    +0.036 A 
ATOM     21  C   UNL     1       1.158  -8.587   1.594  0.00  0.00    +0.048 A 
ATOM     22  C   UNL     1       0.530  -7.369   1.811  0.00  0.00    +0.122 A 
BRANCH  19  23
ATOM     23  N   UNL     1       3.244  -7.817  -1.424  0.00  0.00    +0.056 N 
ATOM     24  O   UNL     1       3.467  -6.884  -2.160  0.00  0.00    -0.126 OA
ATOM     25  O   UNL     1       3.795  -8.877  -1.609  0.00  0.00    -0.126 OA
ENDBRANCH  19  23
BRANCH  22  26
ATOM     26  O   UNL     1      -0.336  -7.225   2.848  0.00  0.00    -0.506 OA
ATOM     27  H   UNL     1      -1.253  -7.439   2.627  0.00  0.00    +0.292 HD
ENDBRANCH  22  26
ENDBRANCH  13  17
TORSDOF 3
