REMARK  Name = ZINC18157165
REMARK  2 active torsions:
REMARK  status: ('A' for Active; 'I' for Inactive)
REMARK    1  A    between atoms: C_14  and  C_15
REMARK    2  A    between atoms: N_16  and  C_17
REMARK                            x       y       z     vdW  Elec       q    Type
REMARK                         _______ _______ _______ _____ _____    ______ ____
ROOT
ATOM      1  C   UNL     1      -0.016   1.354   0.064  0.00  0.00    +0.001 A 
ATOM      2  C   UNL     1       1.161   2.101   0.056  0.00  0.00    +0.001 A 
ATOM      3  C   UNL     1       2.384   1.506   0.024  0.00  0.00    +0.009 A 
ATOM      4  C   UNL     1       2.473   0.104  -0.003  0.00  0.00    -0.009 A 
ATOM      5  C   UNL     1       1.239  -0.683   0.005  0.00  0.00    -0.017 A 
ATOM      6  C   UNL     1       0.003  -0.004   0.039  0.00  0.00    +0.008 A 
ATOM      7  C   UNL     1       1.293  -2.078  -0.022  0.00  0.00    +0.017 A 
ATOM      8  C   UNL     1       2.527  -2.729  -0.057  0.00  0.00    -0.017 A 
ATOM      9  C   UNL     1       2.605  -4.138  -0.085  0.00  0.00    +0.008 A 
ATOM     10  C   UNL     1       3.822  -4.742  -0.118  0.00  0.00    +0.001 A 
ATOM     11  C   UNL     1       5.004  -4.003  -0.126  0.00  0.00    +0.001 A 
ATOM     12  C   UNL     1       4.996  -2.643  -0.100  0.00  0.00    +0.009 A 
ATOM     13  C   UNL     1       3.771  -1.957  -0.065  0.00  0.00    -0.009 A 
ATOM     14  C   UNL     1       3.727  -0.545  -0.038  0.00  0.00    +0.009 A 
ENDROOT
BRANCH  14  15
ATOM     15  C   UNL     1       4.926   0.210  -0.046  0.00  0.00    +0.123 C 
ATOM     16  N   UNL     1       4.877   1.517  -0.138  0.00  0.00    -0.219 NA
BRANCH  16  17
ATOM     17  C   UNL     1       6.026   2.240  -0.145  0.00  0.00    +0.249 A 
ATOM     18  N   UNL     1       7.254   1.765  -0.074  0.00  0.00    -0.109 NA
ATOM     19  N   UNL     1       8.097   2.735  -0.108  0.00  0.00    -0.136 NA
ATOM     20  C   UNL     1       7.467   3.875  -0.203  0.00  0.00    +0.223 A 
ATOM     21  N   UNL     1       6.131   3.605  -0.235  0.00  0.00    -0.312 N 
ATOM     22  H   UNL     1       5.406   4.245  -0.305  0.00  0.00    +0.170 HD
ENDBRANCH  16  17
ENDBRANCH  14  15
TORSDOF 2
