REMARK  Name = ZINC06635359
REMARK  9 active torsions:
REMARK  status: ('A' for Active; 'I' for Inactive)
REMARK    1  A    between atoms: C_1  and  C_2
REMARK    2  A    between atoms: C_2  and  C_3
REMARK    3  A    between atoms: C_3  and  C_4
REMARK    4  A    between atoms: C_4  and  C_5
REMARK    5  A    between atoms: C_5  and  N_6
REMARK    6  A    between atoms: C_10  and  O_26
REMARK    7  A    between atoms: N_14  and  N_15
REMARK    8  A    between atoms: C_16  and  C_18
REMARK    9  A    between atoms: O_26  and  C_27
REMARK                            x       y       z     vdW  Elec       q    Type
REMARK                         _______ _______ _______ _____ _____    ______ ____
ROOT
ATOM      1  N   UNL     1       1.523  -4.012   2.465  0.00  0.00    -0.266 N 
ATOM      2  C   UNL     1       0.540  -4.814   3.040  0.00  0.00    +0.046 A 
ATOM      3  C   UNL     1      -0.629  -4.493   3.722  0.00  0.00    +0.028 A 
ATOM      4  C   UNL     1      -1.449  -5.494   4.203  0.00  0.00    +0.047 A 
ATOM      5  C   UNL     1      -1.119  -6.830   4.014  0.00  0.00    +0.121 A 
ATOM      6  C   UNL     1       0.042  -7.166   3.337  0.00  0.00    +0.057 A 
ATOM      7  C   UNL     1       0.871  -6.161   2.850  0.00  0.00    +0.032 A 
ATOM      8  C   UNL     1       2.151  -6.176   2.103  0.00  0.00    +0.153 C 
ATOM      9  N   UNL     1       2.832  -7.224   1.708  0.00  0.00    -0.175 NA
ATOM     10  C   UNL     1       2.489  -4.753   1.896  0.00  0.00    +0.271 C 
ATOM     11  O   UNL     1       3.470  -4.328   1.315  0.00  0.00    -0.268 OA
ENDROOT
BRANCH   9  12
ATOM     12  N   UNL     1       4.033  -7.056   1.007  0.00  0.00    -0.206 N 
ATOM     13  C   UNL     1       4.733  -8.133   0.601  0.00  0.00    +0.235 C 
ATOM     14  O   UNL     1       4.323  -9.248   0.843  0.00  0.00    -0.274 OA
ATOM     15  H   UNL     1       4.360  -6.163   0.814  0.00  0.00    +0.177 HD
BRANCH  13  16
ATOM     16  C   UNL     1       6.025  -7.952  -0.153  0.00  0.00    +0.077 C 
ATOM     17  C   UNL     1       5.756  -7.177  -1.445  0.00  0.00    +0.013 C 
ATOM     18  C   UNL     1       7.068  -6.993  -2.211  0.00  0.00    +0.001 C 
ATOM     19  C   UNL     1       7.657  -8.363  -2.551  0.00  0.00    +0.000 C 
ATOM     20  C   UNL     1       7.925  -9.138  -1.260  0.00  0.00    +0.001 C 
ATOM     21  C   UNL     1       6.613  -9.322  -0.494  0.00  0.00    +0.013 C 
ENDBRANCH  13  16
ENDBRANCH   9  12
BRANCH   5  22
ATOM     22  O   UNL     1      -1.934  -7.806   4.493  0.00  0.00    -0.495 OA
ATOM     23  C   UNL     1      -3.114  -7.387   5.181  0.00  0.00    +0.277 C 
ENDBRANCH   5  22
BRANCH   1  24
ATOM     24  C   UNL     1       1.503  -2.548   2.473  0.00  0.00    +0.114 C 
BRANCH  24  25
ATOM     25  C   UNL     1       0.763  -2.041   1.233  0.00  0.00    +0.019 C 
BRANCH  25  26
ATOM     26  C   UNL     1       0.742  -0.511   1.242  0.00  0.00    +0.001 C 
BRANCH  26  28
ATOM     27  C   UNL     1      -0.019   1.526   0.010  0.00  0.00    +0.004 C 
ATOM     28  C   UNL     1       0.002  -0.004   0.002  0.00  0.00    -0.003 C 
ENDBRANCH  26  28
ENDBRANCH  25  26
ENDBRANCH  24  25
ENDBRANCH   1  24
TORSDOF 7
