REMARK  Name = ZINC02381558
REMARK  5 active torsions:
REMARK  status: ('A' for Active; 'I' for Inactive)
REMARK    1  A    between atoms: C_7  and  C_11
REMARK    2  A    between atoms: N_12  and  N_13
REMARK    3  A    between atoms: C_14  and  N_35
REMARK    4  A    between atoms: C_15  and  C_26
REMARK    5  A    between atoms: N_28  and  C_29
REMARK                            x       y       z     vdW  Elec       q    Type
REMARK                         _______ _______ _______ _____ _____    ______ ____
ROOT
ATOM      1  N   UNL     1      -1.344   1.847   0.030  0.00  0.00    -0.198 N 
ATOM      2  C   UNL     1      -2.162   0.758   0.027  0.00  0.00    +0.134 A 
ATOM      3  C   UNL     1      -1.412  -0.414   0.013  0.00  0.00    +0.105 A 
ATOM      4  C   UNL     1       0.002  -0.004   0.002  0.00  0.00    +0.124 A 
ATOM      5  C   UNL     1      -0.018   1.462   0.010  0.00  0.00    +0.183 A 
ATOM      6  N   UNL     1       1.119   2.124   0.003  0.00  0.00    -0.224 NA
ATOM      7  C   UNL     1       2.280   1.457  -0.011  0.00  0.00    +0.092 A 
ATOM      8  C   UNL     1       3.501   2.157  -0.019  0.00  0.00    +0.030 A 
ATOM      9  C   UNL     1       4.675   1.471  -0.034  0.00  0.00    +0.002 A 
ATOM     10  C   UNL     1       4.691   0.077  -0.042  0.00  0.00    +0.002 A 
ATOM     11  C   UNL     1       3.532  -0.635  -0.035  0.00  0.00    +0.030 A 
ATOM     12  C   UNL     1       2.297   0.040  -0.020  0.00  0.00    +0.090 A 
ATOM     13  N   UNL     1       1.150  -0.651  -0.012  0.00  0.00    -0.241 NA
ENDROOT
BRANCH   3  14
ATOM     14  C   UNL     1      -1.911  -1.741   0.011  0.00  0.00    +0.250 C 
ATOM     15  O   UNL     1      -2.115  -2.317   1.064  0.00  0.00    -0.270 OA
ATOM     16  N   UNL     1      -2.160  -2.365  -1.158  0.00  0.00    -0.308 N 
ATOM     17  H   UNL     1      -1.997  -1.906  -1.997  0.00  0.00    +0.149 HD
BRANCH  16  18
ATOM     18  C   UNL     1      -2.675  -3.736  -1.161  0.00  0.00    +0.073 C 
ATOM     19  C   UNL     1      -1.509  -4.720  -1.052  0.00  0.00    +0.022 C 
ATOM     20  C   UNL     1      -2.047  -6.152  -1.055  0.00  0.00    +0.002 C 
ATOM     21  C   UNL     1      -2.810  -6.407  -2.357  0.00  0.00    +0.000 C 
ATOM     22  C   UNL     1      -3.977  -5.424  -2.465  0.00  0.00    +0.002 C 
ATOM     23  C   UNL     1      -3.438  -3.991  -2.462  0.00  0.00    +0.022 C 
ENDBRANCH  16  18
ENDBRANCH   3  14
BRANCH   2  24
ATOM     24  N   UNL     1      -3.533   0.810   0.041  0.00  0.00    -0.342 N 
ATOM     25  H   UNL     1      -4.049  -0.011   0.042  0.00  0.00    +0.144 HD
ATOM     26  H   UNL     1      -3.986   1.667   0.050  0.00  0.00    +0.144 HD
ENDBRANCH   2  24
BRANCH   1  28
ATOM     27  C   UNL     1      -2.008   3.798  -1.075  0.00  0.00    +0.143 C 
ATOM     28  N   UNL     1      -1.787   3.176   0.043  0.00  0.00    -0.171 NA
BRANCH  27  35
ATOM     29  C   UNL     1      -2.971   6.812   2.377  0.00  0.00    +0.001 A 
ATOM     30  C   UNL     1      -3.389   8.047   1.900  0.00  0.00    +0.002 A 
ATOM     31  C   UNL     1      -3.482   8.280   0.546  0.00  0.00    +0.026 A 
ATOM     32  C   UNL     1      -3.157   7.272  -0.357  0.00  0.00    +0.047 A 
ATOM     33  C   UNL     1      -2.735   6.024   0.128  0.00  0.00    +0.008 A 
ATOM     34  C   UNL     1      -2.645   5.802   1.500  0.00  0.00    +0.010 A 
ATOM     35  C   UNL     1      -2.473   5.194  -1.062  0.00  0.00    +0.020 A 
ATOM     36  C   UNL     1      -2.739   5.973  -2.145  0.00  0.00    +0.093 A 
ATOM     37  N   UNL     1      -3.151   7.205  -1.734  0.00  0.00    -0.360 N 
ATOM     38  H   UNL     1      -3.401   7.932  -2.326  0.00  0.00    +0.165 HD
ENDBRANCH  27  35
ENDBRANCH   1  28
TORSDOF 5
