REMARK  Name = ZINC10662575
REMARK  7 active torsions:
REMARK  status: ('A' for Active; 'I' for Inactive)
REMARK    1  A    between atoms: C_4  and  C_16
REMARK    2  A    between atoms: C_5  and  C_7
REMARK    3  A    between atoms: C_7  and  C_9
REMARK    4  A    between atoms: C_16  and  O_18
REMARK    5  A    between atoms: O_18  and  C_19
REMARK    6  A    between atoms: C_19  and  C_20
REMARK    7  A    between atoms: N_22  and  N_23
REMARK                            x       y       z     vdW  Elec       q    Type
REMARK                         _______ _______ _______ _____ _____    ______ ____
ROOT
ATOM      1  O   UNL     1       1.467   7.793   0.046  0.00  0.00    -0.452 OA
ENDROOT
BRANCH   1   2
ATOM      2  C   UNL     1       1.375   6.450   0.104  0.00  0.00    +0.340 C 
ATOM      3  O   UNL     1       0.289   5.920   0.224  0.00  0.00    -0.245 OA
BRANCH   2   7
ATOM      4  C   UNL     1       4.894   4.066  -0.137  0.00  0.00    +0.001 A 
ATOM      5  C   UNL     1       4.991   5.445  -0.076  0.00  0.00    +0.001 A 
ATOM      6  C   UNL     1       3.852   6.224   0.003  0.00  0.00    +0.016 A 
ATOM      7  C   UNL     1       2.596   5.622   0.020  0.00  0.00    +0.070 A 
ATOM      8  C   UNL     1       2.498   4.218  -0.042  0.00  0.00    +0.036 A 
ATOM      9  C   UNL     1       3.657   3.450  -0.115  0.00  0.00    +0.012 A 
BRANCH   8  10
ATOM     10  C   UNL     1       1.172   3.564  -0.024  0.00  0.00    +0.194 C 
ATOM     11  O   UNL     1       0.771   3.030   0.992  0.00  0.00    -0.287 OA
BRANCH  10  12
ATOM     12  C   UNL     1       0.335   3.559  -1.240  0.00  0.00    +0.022 A 
ATOM     13  C   UNL     1      -0.875   2.859  -1.257  0.00  0.00    +0.013 A 
ATOM     14  C   UNL     1      -1.652   2.858  -2.395  0.00  0.00    +0.021 A 
ATOM     15  C   UNL     1      -1.236   3.551  -3.521  0.00  0.00    +0.041 A 
ATOM     16  C   UNL     1      -0.039   4.247  -3.511  0.00  0.00    +0.021 A 
ATOM     17  C   UNL     1       0.748   4.255  -2.379  0.00  0.00    +0.013 A 
ATOM     18 CL   UNL     1      -2.221   3.545  -4.951  0.00  0.00    -0.084 Cl
ENDBRANCH  10  12
ENDBRANCH   8  10
ENDBRANCH   2   7
ENDBRANCH   1   2
BRANCH   1  19
ATOM     19  C   UNL     1       0.226   8.542   0.134  0.00  0.00    +0.329 C 
BRANCH  19  20
ATOM     20  C   UNL     1       0.524  10.017   0.052  0.00  0.00    +0.267 C 
ATOM     21  O   UNL     1       1.669  10.399  -0.069  0.00  0.00    -0.271 OA
ATOM     22  N   UNL     1      -0.482  10.912   0.113  0.00  0.00    -0.221 N 
ATOM     23  H   UNL     1      -1.397  10.607   0.209  0.00  0.00    +0.174 HD
BRANCH  22  24
ATOM     24  N   UNL     1      -0.205  12.284   0.036  0.00  0.00    -0.137 N 
ATOM     25  C   UNL     1      -0.437  13.045  -1.053  0.00  0.00    +0.263 C 
ATOM     26  O   UNL     1      -0.906  12.687  -2.112  0.00  0.00    -0.271 OA
ATOM     27  C   UNL     1       0.012  14.438  -0.675  0.00  0.00    +0.114 C 
ATOM     28  C   UNL     1      -1.161  15.409  -0.739  0.00  0.00    +0.035 C 
ATOM     29  C   UNL     1      -0.693  16.807  -0.327  0.00  0.00    +0.003 C 
ATOM     30  C   UNL     1       0.424  17.267  -1.266  0.00  0.00    +0.000 C 
ATOM     31  C   UNL     1       1.603  16.297  -1.172  0.00  0.00    +0.003 C 
ATOM     32  C   UNL     1       1.144  14.897  -1.588  0.00  0.00    +0.035 C 
ATOM     33  N   UNL     1       0.489  14.296   0.706  0.00  0.00    -0.284 N 
ATOM     34  C   UNL     1       0.317  13.002   1.038  0.00  0.00    +0.326 C 
ATOM     35  O   UNL     1       0.606  12.539   2.123  0.00  0.00    -0.251 OA
ATOM     36  H   UNL     1       0.852  14.997   1.270  0.00  0.00    +0.151 HD
ENDBRANCH  22  24
ENDBRANCH  19  20
ENDBRANCH   1  19
TORSDOF 7
