REMARK  Name = ZINC39325355
REMARK  11 active torsions:
REMARK  status: ('A' for Active; 'I' for Inactive)
REMARK    1  A    between atoms: C_1  and  C_2
REMARK    2  A    between atoms: C_5  and  S_9
REMARK    3  A    between atoms: S_9  and  N_12
REMARK    4  A    between atoms: N_12  and  C_13
REMARK    5  A    between atoms: N_12  and  C_20
REMARK    6  A    between atoms: C_13  and  C_14
REMARK    7  A    between atoms: C_20  and  C_21
REMARK    8  A    between atoms: C_26  and  O_35
REMARK    9  A    between atoms: C_27  and  O_33
REMARK   10  A    between atoms: O_33  and  C_34
REMARK   11  A    between atoms: O_35  and  C_36
REMARK                            x       y       z     vdW  Elec       q    Type
REMARK                         _______ _______ _______ _____ _____    ______ ____
ROOT
ATOM      1  N   UNL     1       1.782  -5.077   0.021  0.00  0.00    -0.171 NA
ENDROOT
BRANCH   1   2
ATOM      2  S   UNL     1       0.445  -4.119   0.210  0.00  0.00    +0.061 S 
ATOM      3  O   UNL     1      -0.172  -4.518   1.427  0.00  0.00    -0.153 OA
ATOM      4  O   UNL     1      -0.244  -4.133  -1.033  0.00  0.00    -0.153 OA
BRANCH   2   9
ATOM      5  C   UNL     1       2.396   1.532   1.034  0.00  0.00    +0.045 C 
ATOM      6  C   UNL     1       1.909   0.120   0.829  0.00  0.00    -0.032 A 
ATOM      7  C   UNL     1       1.650  -0.343  -0.448  0.00  0.00    +0.007 A 
ATOM      8  C   UNL     1       1.203  -1.637  -0.636  0.00  0.00    +0.029 A 
ATOM      9  C   UNL     1       1.015  -2.470   0.452  0.00  0.00    +0.107 A 
ATOM     10  C   UNL     1       1.272  -2.007   1.728  0.00  0.00    +0.048 A 
ATOM     11  C   UNL     1       1.725  -0.714   1.917  0.00  0.00    +0.046 A 
ATOM     12 CL   UNL     1       2.056  -0.135   3.520  0.00  0.00    -0.083 Cl
ENDBRANCH   2   9
ENDBRANCH   1   2
BRANCH   1  13
ATOM     13  C   UNL     1       2.411  -5.696   1.190  0.00  0.00    +0.144 C 
BRANCH  13  14
ATOM     14  C   UNL     1       1.854  -7.083   1.384  0.00  0.00    -0.032 A 
ATOM     15  C   UNL     1       0.732  -7.274   2.168  0.00  0.00    +0.005 A 
ATOM     16  C   UNL     1       0.221  -8.547   2.345  0.00  0.00    +0.000 A 
ATOM     17  C   UNL     1       0.833  -9.628   1.739  0.00  0.00    +0.000 A 
ATOM     18  C   UNL     1       1.955  -9.437   0.954  0.00  0.00    +0.000 A 
ATOM     19  C   UNL     1       2.463  -8.164   0.773  0.00  0.00    +0.005 A 
ENDBRANCH  13  14
ENDBRANCH   1  13
BRANCH   1  20
ATOM     20  C   UNL     1       2.337  -5.304  -1.316  0.00  0.00    +0.126 C 
BRANCH  20  21
ATOM     21  C   UNL     1       3.274  -4.151  -1.682  0.00  0.00    +0.114 C 
ATOM     22  C   UNL     1       3.614  -4.278  -3.154  0.00  0.00    -0.003 C 
ATOM     23  C   UNL     1       4.929  -4.388  -3.485  0.00  0.00    -0.003 A 
ATOM     24  C   UNL     1       5.338  -4.515  -4.885  0.00  0.00    +0.059 A 
ATOM     25  C   UNL     1       6.660  -4.624  -5.178  0.00  0.00    +0.162 A 
ATOM     26  C   UNL     1       7.635  -4.616  -4.163  0.00  0.00    +0.163 A 
ATOM     27  C   UNL     1       7.307  -4.499  -2.831  0.00  0.00    +0.073 A 
ATOM     28  C   UNL     1       5.966  -4.383  -2.437  0.00  0.00    +0.044 A 
ATOM     29  N   UNL     1       5.663  -4.270  -1.142  0.00  0.00    -0.284 N 
ATOM     30  C   UNL     1       4.423  -4.158  -0.700  0.00  0.00    +0.225 C 
ATOM     31  O   UNL     1       4.208  -4.059   0.494  0.00  0.00    -0.275 OA
ATOM     32  H   UNL     1       6.386  -4.273  -0.495  0.00  0.00    +0.155 HD
BRANCH  26  33
ATOM     33  O   UNL     1       8.940  -4.728  -4.508  0.00  0.00    -0.491 OA
ATOM     34  C   UNL     1       9.895  -4.715  -3.445  0.00  0.00    +0.277 C 
ENDBRANCH  26  33
BRANCH  25  35
ATOM     35  O   UNL     1       7.048  -4.742  -6.476  0.00  0.00    -0.491 OA
ATOM     36  C   UNL     1       6.016  -4.745  -7.465  0.00  0.00    +0.277 C 
ENDBRANCH  25  35
ENDBRANCH  20  21
ENDBRANCH   1  20
TORSDOF 8
