REMARK  Name = ZINC40809703
REMARK  7 active torsions:
REMARK  status: ('A' for Active; 'I' for Inactive)
REMARK    1  A    between atoms: C_1  and  C_2
REMARK    2  A    between atoms: C_2  and  C_3
REMARK    3  A    between atoms: C_2  and  C_4
REMARK    4  A    between atoms: C_2  and  C_5
REMARK    5  A    between atoms: C_11  and  N_13
REMARK    6  A    between atoms: N_13  and  S_14
REMARK    7  A    between atoms: S_14  and  C_17
REMARK                            x       y       z     vdW  Elec       q    Type
REMARK                         _______ _______ _______ _____ _____    ______ ____
ROOT
ATOM      1  N   UNL     1       2.544  -1.360  -0.297  0.00  0.00    -0.187 NA
ATOM      2  H   UNL     1       2.126  -2.112   0.149  0.00  0.00    +0.148 HD
ENDROOT
BRANCH   1   8
ATOM      3  C   UNL     1       0.376  -0.775  -1.266  0.00  0.00    +0.013 C 
ATOM      4  C   UNL     1      -0.303  -0.128  -2.475  0.00  0.00    +0.005 C 
ATOM      5  C   UNL     1       0.071  -0.899  -3.742  0.00  0.00    +0.000 C 
ATOM      6  C   UNL     1       1.589  -0.865  -3.931  0.00  0.00    +0.002 C 
ATOM      7  C   UNL     1       2.268  -1.511  -2.722  0.00  0.00    +0.020 C 
ATOM      8  C   UNL     1       1.894  -0.740  -1.454  0.00  0.00    +0.080 C 
BRANCH   3  10
ATOM      9  C   UNL     1       0.588   1.408  -0.068  0.00  0.00    +0.011 C 
ATOM     10  C   UNL     1       0.002  -0.004   0.002  0.00  0.00    -0.033 C 
ATOM     11  C   UNL     1       0.566  -0.730   1.225  0.00  0.00    +0.011 C 
ATOM     12  C   UNL     1      -1.521   0.081   0.117  0.00  0.00    +0.011 C 
ENDBRANCH   3  10
ENDBRANCH   1   8
BRANCH   1  13
ATOM     13  S   UNL     1       3.993  -0.774   0.250  0.00  0.00    +0.062 S 
ATOM     14  O   UNL     1       4.346  -1.556   1.383  0.00  0.00    -0.153 OA
ATOM     15  O   UNL     1       4.838  -0.656  -0.886  0.00  0.00    -0.153 OA
BRANCH  13  16
ATOM     16  C   UNL     1       3.706   0.862   0.837  0.00  0.00    +0.142 A 
ATOM     17  C   UNL     1       3.788   1.996   0.103  0.00  0.00    +0.133 A 
ATOM     18  N   UNL     1       3.498   3.034   0.916  0.00  0.00    -0.283 N 
ATOM     19  H   UNL     1       3.478   3.970   0.663  0.00  0.00    +0.188 HD
ATOM     20  N   UNL     1       3.229   2.520   2.192  0.00  0.00    -0.180 NA
ATOM     21  C   UNL     1       3.348   1.218   2.141  0.00  0.00    +0.162 A 
ENDBRANCH  13  16
ENDBRANCH   1  13
TORSDOF 4
