REMARK  Name = ZINC35545030
REMARK  5 active torsions:
REMARK  status: ('A' for Active; 'I' for Inactive)
REMARK    1  A    between atoms: C_1  and  C_2
REMARK    2  A    between atoms: C_2  and  C_4
REMARK    3  A    between atoms: C_2  and  N_10
REMARK    4  A    between atoms: C_11  and  C_13
REMARK    5  A    between atoms: C_18  and  C_35
REMARK                            x       y       z     vdW  Elec       q    Type
REMARK                         _______ _______ _______ _____ _____    ______ ____
ROOT
ATOM      1  C   UNL     1       2.753  -1.106   2.355  0.00  0.00    +0.101 C 
ATOM      2  C   UNL     1       2.454  -0.187   3.538  0.00  0.00    +0.051 C 
ATOM      3  C   UNL     1       3.026   1.177   3.248  0.00  0.00    -0.025 A 
ATOM      4  C   UNL     1       2.428   2.297   3.795  0.00  0.00    +0.017 A 
ATOM      5  C   UNL     1       2.939   3.554   3.526  0.00  0.00    +0.055 A 
ATOM      6  C   UNL     1       4.048   3.692   2.711  0.00  0.00    +0.014 A 
ATOM      7  C   UNL     1       4.649   2.575   2.166  0.00  0.00    +0.024 A 
ATOM      8  C   UNL     1       4.140   1.308   2.440  0.00  0.00    +0.033 A 
ATOM      9  N   UNL     1       4.791   0.190   1.891  0.00  0.00    -0.323 N 
ATOM     10  C   UNL     1       4.262  -1.146   2.094  0.00  0.00    +0.103 C 
ATOM     11  C   UNL     1       4.521  -2.079   0.923  0.00  0.00    +0.129 C 
ATOM     12  N   UNL     1       5.766  -1.797   0.237  0.00  0.00    -0.313 N 
ATOM     13  C   UNL     1       6.221  -0.443  -0.033  0.00  0.00    +0.125 C 
ATOM     14  C   UNL     1       6.035   0.449   1.170  0.00  0.00    +0.124 C 
ATOM     15  C   UNL     1       6.556  -2.863  -0.178  0.00  0.00    +0.099 A 
ATOM     16  C   UNL     1       7.692  -2.621  -0.945  0.00  0.00    +0.042 A 
ATOM     17  C   UNL     1       8.469  -3.691  -1.351  0.00  0.00    +0.005 A 
ATOM     18  C   UNL     1       8.083  -4.971  -0.975  0.00  0.00    +0.018 A 
ATOM     19  C   UNL     1       6.945  -5.137  -0.213  0.00  0.00    +0.084 A 
ATOM     20  N   UNL     1       6.225  -4.098   0.165  0.00  0.00    -0.350 N 
ATOM     21  H   UNL     1       5.431  -4.242   0.703  0.00  0.00    +0.166 HD
ENDROOT
BRANCH   1  23
ATOM     22  N   UNL     1       0.704  -0.469   1.123  0.00  0.00    -0.308 N 
ATOM     23  C   UNL     1       2.047  -0.587   1.128  0.00  0.00    +0.219 C 
ATOM     24  O   UNL     1       2.687  -0.277   0.146  0.00  0.00    -0.275 OA
ATOM     25  H   UNL     1       0.192  -0.717   1.909  0.00  0.00    +0.149 HD
BRANCH  22  27
ATOM     26  C   UNL     1       0.006   1.565  -0.043  0.00  0.00    +0.033 C 
ATOM     27  C   UNL     1       0.018   0.035  -0.069  0.00  0.00    +0.100 C 
BRANCH  27  28
ATOM     28  C   UNL     1      -1.399  -0.477  -0.087  0.00  0.00    -0.027 A 
ATOM     29  C   UNL     1      -2.130  -0.532   1.085  0.00  0.00    +0.005 A 
ATOM     30  C   UNL     1      -3.429  -1.002   1.068  0.00  0.00    +0.000 A 
ATOM     31  C   UNL     1      -3.999  -1.417  -0.121  0.00  0.00    +0.000 A 
ATOM     32  C   UNL     1      -3.269  -1.362  -1.294  0.00  0.00    +0.000 A 
ATOM     33  C   UNL     1      -1.970  -0.888  -1.277  0.00  0.00    +0.005 A 
ENDBRANCH  27  28
ENDBRANCH  22  27
ENDBRANCH   1  23
BRANCH   5  34
ATOM     34  C   UNL     1       2.287   4.774   4.123  0.00  0.00    +0.417 C 
ATOM     35  F   UNL     1       2.873   5.057   5.361  0.00  0.00    -0.166 F 
ATOM     36  F   UNL     1       2.464   5.864   3.264  0.00  0.00    -0.166 F 
ATOM     37  F   UNL     1       0.920   4.535   4.297  0.00  0.00    -0.166 F 
ENDBRANCH   5  34
TORSDOF 4
