REMARK  Name = ZINC26964000
REMARK  16 active torsions:
REMARK  status: ('A' for Active; 'I' for Inactive)
REMARK    1  A    between atoms: C_1  and  C_2
REMARK    2  A    between atoms: C_3  and  C_33
REMARK    3  A    between atoms: C_4  and  C_15
REMARK    4  A    between atoms: C_5  and  C_9
REMARK    5  A    between atoms: C_6  and  C_8
REMARK    6  A    between atoms: C_9  and  O_11
REMARK    7  A    between atoms: O_11  and  C_12
REMARK    8  A    between atoms: C_12  and  C_13
REMARK    9  A    between atoms: C_18  and  O_21
REMARK   10  A    between atoms: O_21  and  C_22
REMARK   11  A    between atoms: C_22  and  C_24
REMARK   12  A    between atoms: C_24  and  O_25
REMARK   13  A    between atoms: O_25  and  C_26
REMARK   14  A    between atoms: C_33  and  O_35
REMARK   15  A    between atoms: O_35  and  C_36
REMARK   16  A    between atoms: C_36  and  C_37
REMARK                            x       y       z     vdW  Elec       q    Type
REMARK                         _______ _______ _______ _____ _____    ______ ____
ROOT
ATOM      1  C   UNL     1      -4.552  -3.209   0.534  0.00  0.00    +0.061 C 
ATOM      2  C   UNL     1      -3.400  -2.268   0.291  0.00  0.00    +0.016 C 
ATOM      3  C   UNL     1      -3.588  -0.943   0.416  0.00  0.00    +0.065 C 
ATOM      4  C   UNL     1      -2.472   0.032   0.180  0.00  0.00    +0.096 C 
ATOM      5  C   UNL     1      -1.142  -0.668   0.186  0.00  0.00    +0.065 C 
ATOM      6  C   UNL     1      -1.052  -2.004   0.071  0.00  0.00    +0.016 C 
ATOM      7  N   UNL     1      -2.176  -2.774  -0.054  0.00  0.00    -0.321 N 
ATOM      8  C   UNL     1       0.303  -2.662   0.079  0.00  0.00    +0.061 C 
ATOM      9  H   UNL     1      -2.093  -3.803  -0.434  0.00  0.00    +0.152 HD
ENDROOT
BRANCH   4  10
ATOM     10  C   UNL     1      -2.675   0.699  -1.156  0.00  0.00    -0.035 A 
ATOM     11  C   UNL     1      -2.680  -0.059  -2.312  0.00  0.00    +0.008 A 
ATOM     12  C   UNL     1      -2.872   0.549  -3.538  0.00  0.00    +0.046 A 
ATOM     13  C   UNL     1      -3.049   1.924  -3.608  0.00  0.00    +0.132 A 
ATOM     14  C   UNL     1      -3.037   2.683  -2.447  0.00  0.00    +0.046 A 
ATOM     15  C   UNL     1      -2.850   2.069  -1.224  0.00  0.00    +0.008 A 
BRANCH  13  16
ATOM     16  O   UNL     1      -3.232   2.526  -4.813  0.00  0.00    -0.423 OA
BRANCH  16  17
ATOM     17  C   UNL     1      -4.457   2.439  -5.357  0.00  0.00    +0.350 C 
ATOM     18  O   UNL     1      -5.311   1.773  -4.821  0.00  0.00    -0.247 OA
BRANCH  17  19
ATOM     19  C   UNL     1      -4.766   3.173  -6.636  0.00  0.00    +0.349 C 
BRANCH  19  20
ATOM     20  O   UNL     1      -6.123   2.927  -7.011  0.00  0.00    -0.478 OA
BRANCH  20  21
ATOM     21  C   UNL     1      -6.566   3.520  -8.152  0.00  0.00    +0.156 A 
ATOM     22  C   UNL     1      -5.714   4.327  -8.891  0.00  0.00    +0.048 A 
ATOM     23  C   UNL     1      -6.165   4.925 -10.052  0.00  0.00    +0.004 A 
ATOM     24  C   UNL     1      -7.468   4.729 -10.472  0.00  0.00    +0.003 A 
ATOM     25  C   UNL     1      -8.321   3.929  -9.736  0.00  0.00    +0.042 A 
ATOM     26  C   UNL     1      -7.874   3.323  -8.575  0.00  0.00    +0.165 A 
ATOM     27  F   UNL     1      -8.708   2.542  -7.855  0.00  0.00    -0.202 F 
ENDBRANCH  20  21
ENDBRANCH  19  20
ENDBRANCH  17  19
ENDBRANCH  16  17
ENDBRANCH  13  16
ENDBRANCH   4  10
BRANCH   5  28
ATOM     28  C   UNL     1       0.041   0.096   0.323  0.00  0.00    +0.338 C 
ATOM     29  O   UNL     1       0.383   0.497   1.419  0.00  0.00    -0.245 OA
BRANCH  28  30
ATOM     30  O   UNL     1       0.790   0.380  -0.763  0.00  0.00    -0.457 OA
BRANCH  30  31
ATOM     31  C   UNL     1       1.971   1.155  -0.552  0.00  0.00    +0.259 C 
BRANCH  31  32
ATOM     32  C   UNL     1       2.673   1.371  -1.868  0.00  0.00    +0.006 C 
ATOM     33  C   UNL     1       3.128   2.558  -2.182  0.00  0.00    +0.007 C 
ENDBRANCH  31  32
ENDBRANCH  30  31
ENDBRANCH  28  30
ENDBRANCH   5  28
BRANCH   3  34
ATOM     34  C   UNL     1      -4.864  -0.457   0.782  0.00  0.00    +0.338 C 
ATOM     35  O   UNL     1      -5.778  -1.235   0.980  0.00  0.00    -0.245 OA
BRANCH  34  36
ATOM     36  O   UNL     1      -5.069   0.871   0.911  0.00  0.00    -0.457 OA
BRANCH  36  37
ATOM     37  C   UNL     1      -6.383   1.292   1.284  0.00  0.00    +0.259 C 
BRANCH  37  38
ATOM     38  C   UNL     1      -6.420   2.795   1.379  0.00  0.00    +0.006 C 
ATOM     39  C   UNL     1      -7.417   3.460   0.850  0.00  0.00    +0.007 C 
ENDBRANCH  37  38
ENDBRANCH  36  37
ENDBRANCH  34  36
ENDBRANCH   3  34
TORSDOF 14
