REMARK  Name = ZINC45773949
REMARK  10 active torsions:
REMARK  status: ('A' for Active; 'I' for Inactive)
REMARK    1  A    between atoms: C_1  and  C_2
REMARK    2  A    between atoms: C_9  and  N_15
REMARK    3  A    between atoms: C_10  and  C_11
REMARK    4  A    between atoms: C_11  and  O_13
REMARK    5  A    between atoms: O_13  and  C_14
REMARK    6  A    between atoms: C_16  and  C_18
REMARK    7  A    between atoms: C_18  and  N_19
REMARK    8  A    between atoms: N_22  and  C_25
REMARK    9  A    between atoms: C_25  and  C_26
REMARK   10  A    between atoms: N_28  and  C_29
REMARK                            x       y       z     vdW  Elec       q    Type
REMARK                         _______ _______ _______ _____ _____    ______ ____
ROOT
ATOM      1  C   UNL     1       2.621  -7.492   3.403  0.00  0.00    +0.180 C 
ENDROOT
BRANCH   1   2
ATOM      2  N   UNL     1       2.915  -7.510   4.842  0.00  0.00    -0.298 NA
ATOM      3  C   UNL     1       1.710  -7.216   5.630  0.00  0.00    +0.066 C 
ATOM      4  C   UNL     1       2.071  -7.186   7.117  0.00  0.00    -0.063 C 
ATOM      5  N   UNL     1       2.629  -8.486   7.512  0.00  0.00    +0.387 N 
ATOM      6  C   UNL     1       3.846  -8.754   6.734  0.00  0.00    -0.063 C 
ATOM      7  C   UNL     1       3.500  -8.797   5.244  0.00  0.00    +0.066 C 
ATOM      8  H   UNL     1       1.950  -9.211   7.335  0.00  0.00    -0.081 HD
BRANCH   5   9
ATOM      9  C   UNL     1       2.959  -8.462   8.943  0.00  0.00    +0.019 C 
BRANCH   9  10
ATOM     10  C   UNL     1       3.416  -9.832   9.376  0.00  0.00    +0.201 C 
ATOM     11  O   UNL     1       3.463 -10.738   8.571  0.00  0.00    -0.278 OA
ATOM     12  N   UNL     1       3.773 -10.049  10.657  0.00  0.00    -0.287 N 
ATOM     13  H   UNL     1       3.800  -9.311  11.285  0.00  0.00    +0.155 HD
BRANCH  12  14
ATOM     14  C   UNL     1       4.105 -11.341  11.081  0.00  0.00    +0.033 A 
ATOM     15  C   UNL     1       3.770 -11.760  12.362  0.00  0.00    +0.023 A 
ATOM     16  C   UNL     1       4.099 -13.036  12.777  0.00  0.00    +0.002 A 
ATOM     17  C   UNL     1       4.761 -13.895  11.919  0.00  0.00    +0.000 A 
ATOM     18  C   UNL     1       5.096 -13.480  10.643  0.00  0.00    +0.002 A 
ATOM     19  C   UNL     1       4.765 -12.208  10.220  0.00  0.00    +0.023 A 
ENDBRANCH  12  14
ENDBRANCH   9  10
ENDBRANCH   5   9
ENDBRANCH   1   2
BRANCH   1  21
ATOM     20  N   UNL     1       1.946  -5.832   1.697  0.00  0.00    -0.278 N 
ATOM     21  C   UNL     1       2.257  -6.091   2.983  0.00  0.00    +0.232 C 
ATOM     22  O   UNL     1       2.245  -5.196   3.801  0.00  0.00    -0.274 OA
ATOM     23  H   UNL     1       1.956  -6.548   1.042  0.00  0.00    +0.155 HD
BRANCH  20  31
ATOM     24  C   UNL     1       0.033   1.529  -0.005  0.00  0.00    +0.008 C 
ATOM     25  C   UNL     1       0.043  -0.001  -0.010  0.00  0.00    -0.009 C 
ATOM     26  C   UNL     1       0.758  -0.505  -1.267  0.00  0.00    +0.008 C 
ATOM     27  C   UNL     1       0.561  -2.016  -1.408  0.00  0.00    +0.037 C 
ATOM     28  C   UNL     1       0.958  -2.684  -0.100  0.00  0.00    -0.021 A 
ATOM     29  C   UNL     1       1.050  -1.979   1.049  0.00  0.00    -0.004 A 
ATOM     30  S   UNL     1       1.532  -3.167   2.267  0.00  0.00    -0.077 S 
ATOM     31  C   UNL     1       1.612  -4.544   1.310  0.00  0.00    +0.086 A 
ATOM     32  C   UNL     1       1.268  -4.096   0.044  0.00  0.00    +0.091 A 
ATOM     33  C   UNL     1       0.790  -0.515   1.230  0.00  0.00    +0.046 C 
BRANCH  32  34
ATOM     34  C   UNL     1       1.218  -5.008  -1.101  0.00  0.00    +0.342 C 
ATOM     35  O   UNL     1       2.211  -5.186  -1.781  0.00  0.00    -0.245 OA
BRANCH  34  36
ATOM     36  O   UNL     1       0.071  -5.651  -1.401  0.00  0.00    -0.464 OA
ATOM     37  C   UNL     1       0.094  -6.526  -2.531  0.00  0.00    +0.280 C 
ENDBRANCH  34  36
ENDBRANCH  32  34
ENDBRANCH  20  31
ENDBRANCH   1  21
TORSDOF 8
