REMARK  Name = ZINC35458969
REMARK  13 active torsions:
REMARK  status: ('A' for Active; 'I' for Inactive)
REMARK    1  A    between atoms: C_1  and  C_2
REMARK    2  A    between atoms: C_4  and  C_19
REMARK    3  A    between atoms: C_7  and  C_12
REMARK    4  A    between atoms: C_9  and  C_10
REMARK    5  A    between atoms: C_9  and  O_11
REMARK    6  A    between atoms: C_15  and  O_18
REMARK    7  A    between atoms: C_22  and  O_25
REMARK    8  A    between atoms: O_25  and  C_26
REMARK    9  A    between atoms: C_28  and  O_41
REMARK   10  A    between atoms: C_30  and  O_40
REMARK   11  A    between atoms: C_32  and  O_39
REMARK   12  A    between atoms: C_34  and  C_37
REMARK   13  A    between atoms: C_37  and  O_38
REMARK                            x       y       z     vdW  Elec       q    Type
REMARK                         _______ _______ _______ _____ _____    ______ ____
ROOT
ATOM      1  C   UNL     1       0.606   0.316  -2.412  0.00  0.00    -0.018 A 
ATOM      2  C   UNL     1       1.364   1.457  -2.596  0.00  0.00    +0.010 A 
ATOM      3  C   UNL     1       1.165   2.248  -3.711  0.00  0.00    +0.046 A 
ATOM      4  C   UNL     1       0.203   1.896  -4.646  0.00  0.00    +0.124 A 
ATOM      5  C   UNL     1      -0.557   0.750  -4.460  0.00  0.00    +0.046 A 
ATOM      6  C   UNL     1      -0.350  -0.040  -3.345  0.00  0.00    +0.010 A 
ENDROOT
BRANCH   1   9
ATOM      7  C   UNL     1      -0.019   1.526   0.010  0.00  0.00    +0.013 C 
ATOM      8  C   UNL     1       0.002  -0.004   0.002  0.00  0.00    +0.053 C 
ATOM      9  C   UNL     1       0.825  -0.545  -1.194  0.00  0.00    +0.155 C 
ATOM     10  O   UNL     1       2.196  -0.472  -0.770  0.00  0.00    -0.361 OA
ATOM     11  C   UNL     1       2.267  -0.502   0.660  0.00  0.00    +0.181 C 
ATOM     12  C   UNL     1       0.821  -0.559   1.199  0.00  0.00    +0.099 C 
ATOM     13  C   UNL     1       0.413  -2.000   1.516  0.00  0.00    +0.045 C 
BRANCH  11  14
ATOM     14  C   UNL     1       3.030  -1.723   1.108  0.00  0.00    -0.016 A 
ATOM     15  C   UNL     1       2.948  -2.894   0.378  0.00  0.00    +0.010 A 
ATOM     16  C   UNL     1       3.646  -4.014   0.786  0.00  0.00    +0.046 A 
ATOM     17  C   UNL     1       4.430  -3.963   1.930  0.00  0.00    +0.117 A 
ATOM     18  C   UNL     1       4.510  -2.786   2.661  0.00  0.00    +0.046 A 
ATOM     19  C   UNL     1       3.815  -1.667   2.245  0.00  0.00    +0.010 A 
BRANCH  17  20
ATOM     20  O   UNL     1       5.117  -5.064   2.334  0.00  0.00    -0.507 OA
ATOM     21  H   UNL     1       6.008  -5.128   1.965  0.00  0.00    +0.292 HD
ENDBRANCH  17  20
ENDBRANCH  11  14
BRANCH  12  22
ATOM     22  O   UNL     1       0.672   0.277   2.349  0.00  0.00    -0.386 OA
ATOM     23  H   UNL     1       1.164  -0.028   3.123  0.00  0.00    +0.210 HD
ENDBRANCH  12  22
ENDBRANCH   1   9
BRANCH   4  24
ATOM     24  O   UNL     1       0.004   2.672  -5.744  0.00  0.00    -0.461 OA
BRANCH  24  25
ATOM     25  C   UNL     1      -1.003   2.249  -6.665  0.00  0.00    +0.339 C 
ATOM     26  C   UNL     1      -1.167   3.304  -7.762  0.00  0.00    +0.214 C 
ATOM     27  C   UNL     1      -2.205   2.816  -8.777  0.00  0.00    +0.180 C 
ATOM     28  C   UNL     1      -1.759   1.461  -9.336  0.00  0.00    +0.177 C 
ATOM     29  C   UNL     1      -1.571   0.477  -8.178  0.00  0.00    +0.179 C 
ATOM     30  O   UNL     1      -0.617   1.006  -7.255  0.00  0.00    -0.331 OA
BRANCH  28  31
ATOM     31  O   UNL     1      -2.754   0.962 -10.231  0.00  0.00    -0.386 OA
ATOM     32  H   UNL     1      -2.927   1.538 -10.988  0.00  0.00    +0.210 HD
ENDBRANCH  28  31
BRANCH  27  33
ATOM     33  O   UNL     1      -2.313   3.761  -9.843  0.00  0.00    -0.386 OA
ATOM     34  H   UNL     1      -2.586   4.644  -9.559  0.00  0.00    +0.210 HD
ENDBRANCH  27  33
BRANCH  26  35
ATOM     35  O   UNL     1      -1.608   4.533  -7.181  0.00  0.00    -0.383 OA
ATOM     36  H   UNL     1      -0.999   4.898  -6.524  0.00  0.00    +0.210 HD
ENDBRANCH  26  35
BRANCH  29  37
ATOM     37  C   UNL     1      -1.068  -0.862  -8.721  0.00  0.00    +0.190 C 
BRANCH  37  38
ATOM     38  O   UNL     1      -1.004  -1.814  -7.658  0.00  0.00    -0.392 OA
ATOM     39  H   UNL     1      -0.693  -2.688  -7.931  0.00  0.00    +0.210 HD
ENDBRANCH  37  38
ENDBRANCH  29  37
ENDBRANCH  24  25
ENDBRANCH   4  24
TORSDOF 11
