REMARK  Name = ZINC20759000
REMARK  1 active torsions:
REMARK  status: ('A' for Active; 'I' for Inactive)
REMARK    1  A    between atoms: CA_11  and  C_13
REMARK                            x       y       z     vdW  Elec       q    Type
REMARK                         _______ _______ _______ _____ _____    ______ ____
ROOT
ATOM      1  C   UNL     1       4.841   4.316  -0.017  0.00  0.00    +0.001 A 
ATOM      2  C   UNL     1       6.016   3.580  -0.034  0.00  0.00    +0.001 A 
ATOM      3  C   UNL     1       5.984   2.201  -0.044  0.00  0.00    +0.014 A 
ATOM      4  C   UNL     1       4.758   1.535  -0.037  0.00  0.00    +0.049 A 
ATOM      5  C   UNL     1       3.564   2.292  -0.020  0.00  0.00    +0.013 A 
ATOM      6  C   UNL     1       3.616   3.678  -0.010  0.00  0.00    +0.011 A 
ATOM      7  C   UNL     1       2.287   1.551  -0.012  0.00  0.00    +0.073 A 
ATOM      8  C   UNL     1       2.367   0.161  -0.021  0.00  0.00    +0.082 A 
ATOM      9  C   UNL     1       1.233  -0.649  -0.013  0.00  0.00    +0.012 A 
ATOM     10  C   UNL     1       0.002  -0.004   0.002  0.00  0.00    +0.043 A 
ATOM     11  CA  UNL     1      -0.017   1.394   0.010  0.00  0.00    +0.130 A 
ATOM     12  N   UNL     1       1.097   2.125   0.003  0.00  0.00    -0.347 N 
ATOM     13  C   UNL     1       1.751  -2.026  -0.024  0.00  0.00    +0.008 A 
ATOM     14  C   UNL     1       1.149  -3.280  -0.024  0.00  0.00    +0.010 A 
ATOM     15  C   UNL     1       1.925  -4.419  -0.035  0.00  0.00    +0.001 A 
ATOM     16  C   UNL     1       3.308  -4.320  -0.047  0.00  0.00    +0.002 A 
ATOM     17  C   UNL     1       3.920  -3.085  -0.048  0.00  0.00    +0.027 A 
ATOM     18  C   UNL     1       3.156  -1.925  -0.037  0.00  0.00    +0.058 A 
ATOM     19  N   UNL     1       3.510  -0.576  -0.036  0.00  0.00    -0.274 N 
ATOM     20  C   UNL     1       4.702   0.062  -0.047  0.00  0.00    +0.264 A 
ATOM     21  O   UNL     1       5.734  -0.582  -0.065  0.00  0.00    -0.267 OA
ATOM     22  H   UNL     1       1.015   3.222   0.010  0.00  0.00    +0.166 HD
ENDROOT
BRANCH  11  23
ATOM     23  C   UNL     1      -1.323   2.088   0.020  0.00  0.00    +0.402 C 
ATOM     24  O   UNL     1      -2.353   1.444   0.021  0.00  0.00    -0.239 OA
ATOM     25  OXT UNL     1      -1.371   3.434   0.027  0.00  0.00    -0.239 OA
ENDBRANCH  11  23
TORSDOF 1
