REMARK  Name = ZINC13063322
REMARK  13 active torsions:
REMARK  status: ('A' for Active; 'I' for Inactive)
REMARK    1  A    between atoms: C_1  and  C_2
REMARK    2  A    between atoms: C_2  and  C_33
REMARK    3  A    between atoms: N_9  and  C_32
REMARK    4  A    between atoms: C_11  and  C_12
REMARK    5  A    between atoms: C_12  and  C_14
REMARK    6  A    between atoms: C_14  and  S_15
REMARK    7  A    between atoms: S_15  and  C_16
REMARK    8  A    between atoms: C_19  and  C_22
REMARK    9  A    between atoms: N_20  and  N_21
REMARK   10  A    between atoms: C_25  and  C_28
REMARK   11  A    between atoms: C_28  and  C_29
REMARK   12  A    between atoms: C_28  and  C_30
REMARK   13  A    between atoms: C_28  and  C_31
REMARK                            x       y       z     vdW  Elec       q    Type
REMARK                         _______ _______ _______ _____ _____    ______ ____
ROOT
ATOM      1  C   UNL     1       1.445   8.715  -4.660  0.00  0.00    +0.209 A 
ATOM      2  N   UNL     1       2.416   8.427  -5.498  0.00  0.00    -0.121 NA
ATOM      3  N   UNL     1       2.620   9.415  -6.293  0.00  0.00    -0.127 NA
ATOM      4  C   UNL     1       1.800  10.399  -6.006  0.00  0.00    +0.182 A 
ATOM      5  N   UNL     1       1.022   9.980  -4.951  0.00  0.00    -0.224 N 
ENDROOT
BRANCH   4   6
ATOM      6  C   UNL     1       1.725  11.709  -6.687  0.00  0.00    +0.021 A 
ATOM      7  C   UNL     1       2.304  11.878  -7.946  0.00  0.00    +0.012 A 
ATOM      8  C   UNL     1       2.228  13.102  -8.578  0.00  0.00    +0.005 A 
ATOM      9  C   UNL     1       1.587  14.163  -7.962  0.00  0.00    -0.042 A 
ATOM     10  C   UNL     1       1.016  14.003  -6.712  0.00  0.00    +0.005 A 
ATOM     11  C   UNL     1       1.081  12.783  -6.072  0.00  0.00    +0.012 A 
BRANCH   9  12
ATOM     12  C   UNL     1       1.513  15.499  -8.656  0.00  0.00    -0.013 C 
ATOM     13  C   UNL     1       2.200  16.560  -7.794  0.00  0.00    +0.015 C 
ATOM     14  C   UNL     1       2.216  15.410 -10.011  0.00  0.00    +0.015 C 
ATOM     15  C   UNL     1       0.047  15.884  -8.866  0.00  0.00    +0.015 C 
ENDBRANCH   9  12
ENDBRANCH   4   6
BRANCH   5  16
ATOM     16  N   UNL     1       0.032  10.684  -4.325  0.00  0.00    -0.295 N 
ATOM     17  H   UNL     1       0.414  11.291  -3.616  0.00  0.00    +0.163 HD
ATOM     18  H   UNL     1      -0.517  11.206  -4.991  0.00  0.00    +0.163 HD
ENDBRANCH   5  16
BRANCH   1  19
ATOM     19  S   UNL     1       0.813   7.666  -3.393  0.00  0.00    -0.077 S 
BRANCH  19  20
ATOM     20  C   UNL     1       1.857   6.209  -3.640  0.00  0.00    +0.156 C 
BRANCH  20  21
ATOM     21  C   UNL     1       1.485   5.148  -2.637  0.00  0.00    +0.168 C 
ATOM     22  O   UNL     1       0.598   5.357  -1.833  0.00  0.00    -0.292 OA
BRANCH  21  33
ATOM     23  C   UNL     1       3.069   2.015  -0.298  0.00  0.00    +0.022 C 
ATOM     24  C   UNL     1       2.249   1.609  -1.524  0.00  0.00    +0.030 C 
ATOM     25  C   UNL     1       1.113   0.697  -1.122  0.00  0.00    -0.015 A 
ATOM     26  C   UNL     1       1.080  -0.546  -0.529  0.00  0.00    +0.006 A 
ATOM     27  C   UNL     1      -0.135  -1.157  -0.275  0.00  0.00    +0.000 A 
ATOM     28  C   UNL     1      -1.313  -0.518  -0.618  0.00  0.00    +0.002 A 
ATOM     29  C   UNL     1      -1.283   0.726  -1.212  0.00  0.00    +0.024 A 
ATOM     30  C   UNL     1      -0.063   1.349  -1.472  0.00  0.00    +0.038 A 
ATOM     31  N   UNL     1       0.222   2.583  -2.053  0.00  0.00    -0.305 N 
ATOM     32  C   UNL     1       1.560   2.817  -2.123  0.00  0.00    +0.024 C 
ATOM     33  C   UNL     1       2.161   3.920  -2.632  0.00  0.00    +0.067 C 
ATOM     34  C   UNL     1      -0.800   3.518  -2.533  0.00  0.00    +0.135 C 
ATOM     35  C   UNL     1       3.140   0.929  -2.565  0.00  0.00    +0.022 C 
ENDBRANCH  21  33
ENDBRANCH  20  21
ENDBRANCH  19  20
ENDBRANCH   1  19
TORSDOF 7
