REMARK  Name = ZINC36879755
REMARK  5 active torsions:
REMARK  status: ('A' for Active; 'I' for Inactive)
REMARK    1  A    between atoms: C_1  and  C_2
REMARK    2  A    between atoms: C_3  and  C_12
REMARK    3  A    between atoms: C_12  and  N_13
REMARK    4  A    between atoms: C_16  and  C_20
REMARK    5  A    between atoms: C_16  and  C_21
REMARK                            x       y       z     vdW  Elec       q    Type
REMARK                         _______ _______ _______ _____ _____    ______ ____
ROOT
ATOM      1  N   UNL     1       1.375   0.348  -2.895  0.00  0.00    -0.218 N 
ATOM      2  C   UNL     1       2.081   1.439  -2.540  0.00  0.00    +0.251 C 
ATOM      3  O   UNL     1       1.721   2.339  -1.811  0.00  0.00    -0.272 OA
ATOM      4  C   UNL     1       3.419   1.308  -3.240  0.00  0.00    +0.136 C 
ATOM      5  N   UNL     1       3.300   0.038  -3.978  0.00  0.00    -0.281 N 
ATOM      6  C   UNL     1       2.075  -0.449  -3.710  0.00  0.00    +0.310 C 
ATOM      7  O   UNL     1       1.651  -1.495  -4.160  0.00  0.00    -0.252 OA
ATOM      8  C   UNL     1       4.556   1.232  -2.219  0.00  0.00    +0.047 C 
ATOM      9  H   UNL     1       3.975  -0.369  -4.544  0.00  0.00    +0.152 HD
ENDROOT
BRANCH   4  10
ATOM     10  C   UNL     1       3.635   2.456  -4.192  0.00  0.00    -0.008 A 
ATOM     11  C   UNL     1       3.740   2.225  -5.529  0.00  0.00    +0.007 A 
ATOM     12  C   UNL     1       3.939   3.274  -6.425  0.00  0.00    +0.001 A 
ATOM     13  C   UNL     1       4.035   4.560  -5.988  0.00  0.00    +0.008 A 
ATOM     14  C   UNL     1       3.931   4.837  -4.614  0.00  0.00    -0.018 A 
ATOM     15  C   UNL     1       3.722   3.771  -3.704  0.00  0.00    -0.012 A 
ATOM     16  C   UNL     1       3.612   4.049  -2.331  0.00  0.00    +0.009 A 
ATOM     17  C   UNL     1       3.701   5.335  -1.895  0.00  0.00    +0.001 A 
ATOM     18  C   UNL     1       3.900   6.384  -2.791  0.00  0.00    +0.001 A 
ATOM     19  C   UNL     1       4.025   6.151  -4.126  0.00  0.00    +0.008 A 
ENDBRANCH   4  10
BRANCH   1  20
ATOM     20  C   UNL     1       0.011   0.066  -2.440  0.00  0.00    +0.175 C 
BRANCH  20  23
ATOM     21  C   UNL     1       0.060   1.451   0.094  0.00  0.00    +0.067 C 
ATOM     22  C   UNL     1       0.086  -0.056   0.067  0.00  0.00    +0.062 A 
ATOM     23  C   UNL     1       0.062  -0.726  -1.159  0.00  0.00    +0.081 A 
ATOM     24  N   UNL     1       0.085  -2.038  -1.206  0.00  0.00    -0.247 NA
ATOM     25  C   UNL     1       0.130  -2.742  -0.070  0.00  0.00    +0.090 A 
ATOM     26  C   UNL     1       0.155  -4.147  -0.087  0.00  0.00    +0.030 A 
ATOM     27  C   UNL     1       0.202  -4.835   1.086  0.00  0.00    +0.002 A 
ATOM     28  C   UNL     1       0.224  -4.167   2.309  0.00  0.00    +0.002 A 
ATOM     29  C   UNL     1       0.201  -2.808   2.365  0.00  0.00    +0.030 A 
ATOM     30  C   UNL     1       0.153  -2.062   1.174  0.00  0.00    +0.089 A 
ATOM     31  N   UNL     1       0.135  -0.725   1.196  0.00  0.00    -0.249 NA
ENDBRANCH  20  23
ENDBRANCH   1  20
TORSDOF 3
