REMARK  Name = ZINC40809954
REMARK  7 active torsions:
REMARK  status: ('A' for Active; 'I' for Inactive)
REMARK    1  A    between atoms: C_1  and  C_2
REMARK    2  A    between atoms: C_6  and  C_21
REMARK    3  A    between atoms: C_8  and  N_11
REMARK    4  A    between atoms: N_11  and  S_12
REMARK    5  A    between atoms: S_12  and  C_15
REMARK    6  A    between atoms: C_21  and  C_22
REMARK    7  A    between atoms: C_21  and  C_23
REMARK                            x       y       z     vdW  Elec       q    Type
REMARK                         _______ _______ _______ _____ _____    ______ ____
ROOT
ATOM      1  N   UNL     1      -0.612  -2.548   1.244  0.00  0.00    -0.187 NA
ATOM      2  H   UNL     1      -1.100  -2.643   0.411  0.00  0.00    +0.148 HD
ENDROOT
BRANCH   1   8
ATOM      3  C   UNL     1      -0.019   1.526   0.010  0.00  0.00    +0.007 C 
ATOM      4  C   UNL     1       0.002  -0.004   0.002  0.00  0.00    -0.013 C 
ATOM      5  C   UNL     1       0.718  -0.497  -1.257  0.00  0.00    +0.003 C 
ATOM      6  C   UNL     1       0.739  -2.027  -1.265  0.00  0.00    +0.005 C 
ATOM      7  C   UNL     1       1.479  -2.534  -0.026  0.00  0.00    +0.010 C 
ATOM      8  C   UNL     1       0.763  -2.041   1.233  0.00  0.00    +0.080 C 
ATOM      9  C   UNL     1       0.742  -0.511   1.242  0.00  0.00    +0.024 C 
BRANCH   7  10
ATOM     10  C   UNL     1       1.500  -4.064  -0.034  0.00  0.00    -0.013 C 
ATOM     11  C   UNL     1       2.216  -4.557  -1.293  0.00  0.00    +0.007 C 
ATOM     12  C   UNL     1       2.240  -4.571   1.205  0.00  0.00    +0.007 C 
ENDBRANCH   7  10
ENDBRANCH   1   8
BRANCH   1  13
ATOM     13  S   UNL     1      -1.331  -2.959   2.677  0.00  0.00    +0.062 S 
ATOM     14  O   UNL     1      -2.651  -3.384   2.362  0.00  0.00    -0.153 OA
ATOM     15  O   UNL     1      -0.410  -3.789   3.371  0.00  0.00    -0.153 OA
BRANCH  13  16
ATOM     16  C   UNL     1      -1.491  -1.482   3.623  0.00  0.00    +0.142 A 
ATOM     17  C   UNL     1      -0.576  -0.989   4.490  0.00  0.00    +0.133 A 
ATOM     18  N   UNL     1      -1.073   0.153   5.008  0.00  0.00    -0.283 N 
ATOM     19  H   UNL     1      -0.634   0.724   5.658  0.00  0.00    +0.188 HD
ATOM     20  N   UNL     1      -2.336   0.370   4.441  0.00  0.00    -0.180 NA
ATOM     21  C   UNL     1      -2.582  -0.607   3.607  0.00  0.00    +0.162 A 
ENDBRANCH  13  16
ENDBRANCH   1  13
TORSDOF 4
