REMARK  Name = ZINC38743116
REMARK  4 active torsions:
REMARK  status: ('A' for Active; 'I' for Inactive)
REMARK    1  A    between atoms: C_4  and  C_7
REMARK    2  A    between atoms: C_9  and  C_13
REMARK    3  A    between atoms: C_21  and  C_23
REMARK    4  A    between atoms: C_24  and  C_25
REMARK                            x       y       z     vdW  Elec       q    Type
REMARK                         _______ _______ _______ _____ _____    ______ ____
ROOT
ATOM      1  C   UNL     1       5.782  -3.012   1.181  0.00  0.00    +0.206 C 
ATOM      2  N   UNL     1       5.166  -4.360   1.202  0.00  0.00    -0.231 NA
ATOM      3  N   UNL     1       6.274  -5.326   1.284  0.00  0.00    -0.224 NA
ATOM      4  C   UNL     1       7.360  -4.534   1.897  0.00  0.00    +0.240 C 
ATOM      5  N   UNL     1       7.244  -3.241   1.144  0.00  0.00    -0.206 N 
ATOM      6  N   UNL     1       8.442  -2.786   0.638  0.00  0.00    -0.174 NA
ATOM      7  C   UNL     1       9.500  -3.543   0.533  0.00  0.00    +0.118 C 
ATOM      8  S   UNL     1       9.007  -5.102   1.333  0.00  0.00    -0.063 S 
ATOM      9  H   UNL     1       4.540  -4.460   1.987  0.00  0.00    +0.143 HD
ATOM     10  H   UNL     1       6.027  -6.112   1.867  0.00  0.00    +0.144 HD
ENDROOT
BRANCH   1  13
ATOM     11  C   UNL     1       3.699  -0.689  -0.037  0.00  0.00    +0.091 C 
ATOM     12  C   UNL     1       3.832  -2.029  -0.051  0.00  0.00    +0.034 C 
ATOM     13  C   UNL     1       5.335  -2.245  -0.065  0.00  0.00    +0.190 C 
ATOM     14  N   UNL     1       5.871  -0.874  -0.056  0.00  0.00    -0.176 NA
ATOM     15  N   UNL     1       4.919  -0.090  -0.047  0.00  0.00    -0.154 NA
BRANCH  11  19
ATOM     16  C   UNL     1      -0.017   1.379   0.010  0.00  0.00    +0.000 A 
ATOM     17  C   UNL     1       1.169   2.092   0.002  0.00  0.00    +0.001 A 
ATOM     18  C   UNL     1       2.377   1.426  -0.013  0.00  0.00    +0.010 A 
ATOM     19  C   UNL     1       2.402   0.033  -0.021  0.00  0.00    +0.002 A 
ATOM     20  C   UNL     1       1.205  -0.680  -0.013  0.00  0.00    +0.010 A 
ATOM     21  C   UNL     1       0.002  -0.004   0.002  0.00  0.00    +0.001 A 
ENDBRANCH  11  19
ENDBRANCH   1  13
BRANCH   7  22
ATOM     22  C   UNL     1      10.790  -3.214  -0.079  0.00  0.00    +0.037 C 
ATOM     23  C   UNL     1      10.987  -1.997  -0.622  0.00  0.00    +0.012 C 
BRANCH  23  24
ATOM     24  C   UNL     1      12.284  -1.667  -1.236  0.00  0.00    -0.007 A 
ATOM     25  C   UNL     1      13.311  -2.615  -1.263  0.00  0.00    +0.009 A 
ATOM     26  C   UNL     1      14.522  -2.298  -1.841  0.00  0.00    +0.001 A 
ATOM     27  C   UNL     1      14.723  -1.045  -2.393  0.00  0.00    +0.001 A 
ATOM     28  C   UNL     1      13.712  -0.100  -2.371  0.00  0.00    +0.020 A 
ATOM     29  C   UNL     1      12.492  -0.404  -1.802  0.00  0.00    +0.048 A 
ATOM     30 CL   UNL     1      11.222   0.779  -1.782  0.00  0.00    -0.083 Cl
ENDBRANCH  23  24
ENDBRANCH   7  22
TORSDOF 4
