REMARK  Name = ZINC46108620
REMARK  13 active torsions:
REMARK  status: ('A' for Active; 'I' for Inactive)
REMARK    1  A    between atoms: C_1  and  C_2
REMARK    2  A    between atoms: C_4  and  C_23
REMARK    3  A    between atoms: C_6  and  C_22
REMARK    4  A    between atoms: C_7  and  C_8
REMARK    5  A    between atoms: C_8  and  S_9
REMARK    6  A    between atoms: S_9  and  C_12
REMARK    7  A    between atoms: C_12  and  C_13
REMARK    8  A    between atoms: N_15  and  C_16
REMARK    9  A    between atoms: C_16  and  C_18
REMARK   10  A    between atoms: C_16  and  C_19
REMARK   11  A    between atoms: C_23  and  C_24
REMARK   12  A    between atoms: C_23  and  C_25
REMARK   13  A    between atoms: C_23  and  C_26
REMARK                            x       y       z     vdW  Elec       q    Type
REMARK                         _______ _______ _______ _____ _____    ______ ____
ROOT
ATOM      1  C   UNL     1       0.025   0.045   2.505  0.00  0.00    +0.202 C 
ENDROOT
BRANCH   1   8
ATOM      2  C   UNL     1      -0.018   1.503   0.010  0.00  0.00    +0.044 C 
ATOM      3  C   UNL     1       0.002  -0.004   0.002  0.00  0.00    -0.045 A 
ATOM      4  C   UNL     1       0.006  -0.689  -1.199  0.00  0.00    +0.007 A 
ATOM      5  C   UNL     1       0.025  -2.071  -1.206  0.00  0.00    -0.041 A 
ATOM      6  C   UNL     1       0.040  -2.768  -0.013  0.00  0.00    +0.007 A 
ATOM      7  C   UNL     1       0.037  -2.084   1.188  0.00  0.00    -0.045 A 
ATOM      8  C   UNL     1       0.023  -0.702   1.195  0.00  0.00    -0.021 A 
ATOM      9  C   UNL     1       0.054  -2.844   2.489  0.00  0.00    +0.044 C 
BRANCH   5  10
ATOM     10  C   UNL     1       0.027  -2.817  -2.516  0.00  0.00    -0.013 C 
ATOM     11  C   UNL     1       1.267  -2.426  -3.323  0.00  0.00    +0.015 C 
ATOM     12  C   UNL     1       0.049  -4.323  -2.244  0.00  0.00    +0.015 C 
ATOM     13  C   UNL     1      -1.231  -2.460  -3.309  0.00  0.00    +0.015 C 
ENDBRANCH   5  10
ENDBRANCH   1   8
BRANCH   1  14
ATOM     14  S   UNL     1      -1.684   0.321   3.046  0.00  0.00    -0.019 S 
ATOM     15  O   UNL     1      -2.316   1.188   2.114  0.00  0.00    -0.174 OA
ATOM     16  O   UNL     1      -2.276  -0.940   3.328  0.00  0.00    -0.174 OA
BRANCH  14  17
ATOM     17  C   UNL     1      -1.469   1.216   4.609  0.00  0.00    +0.261 C 
BRANCH  17  18
ATOM     18  C   UNL     1      -2.821   1.527   5.199  0.00  0.00    +0.234 C 
ATOM     19  O   UNL     1      -3.829   1.179   4.623  0.00  0.00    -0.274 OA
ATOM     20  N   UNL     1      -2.908   2.192   6.369  0.00  0.00    -0.311 N 
ATOM     21  H   UNL     1      -2.102   2.470   6.830  0.00  0.00    +0.149 HD
BRANCH  20  22
ATOM     22  C   UNL     1      -4.222   2.494   6.942  0.00  0.00    +0.073 C 
ATOM     23  C   UNL     1      -4.758   3.791   6.333  0.00  0.00    +0.028 C 
BRANCH  22  24
ATOM     24  C   UNL     1      -4.091   2.659   8.458  0.00  0.00    +0.009 C 
ATOM     25  C   UNL     1      -4.733   1.589   9.343  0.00  0.00    +0.005 C 
ATOM     26  C   UNL     1      -5.362   2.980   9.246  0.00  0.00    +0.005 C 
ENDBRANCH  22  24
ENDBRANCH  20  22
ENDBRANCH  17  18
ENDBRANCH  14  17
ENDBRANCH   1  14
TORSDOF 7
