REMARK  Name = ZINC38616885
REMARK  9 active torsions:
REMARK  status: ('A' for Active; 'I' for Inactive)
REMARK    1  A    between atoms: C_1  and  C_2
REMARK    2  A    between atoms: C_3  and  C_34
REMARK    3  A    between atoms: N_6  and  C_31
REMARK    4  A    between atoms: C_8  and  C_9
REMARK    5  A    between atoms: C_9  and  C_11
REMARK    6  A    between atoms: C_12  and  C_13
REMARK    7  A    between atoms: N_15  and  C_24
REMARK    8  A    between atoms: C_17  and  C_18
REMARK    9  A    between atoms: C_31  and  C_32
REMARK                            x       y       z     vdW  Elec       q    Type
REMARK                         _______ _______ _______ _____ _____    ______ ____
ROOT
ATOM      1  C   UNL     1      -0.030   1.566   2.329  0.00  0.00    +0.052 C 
ATOM      2  C   UNL     1       0.120   2.313   3.446  0.00  0.00    +0.015 C 
ENDROOT
BRANCH   2   3
ATOM      3  C   UNL     1      -0.041   3.770   3.381  0.00  0.00    +0.021 A 
ATOM      4  C   UNL     1      -0.349   4.521   2.261  0.00  0.00    +0.123 A 
ATOM      5  N   UNL     1      -0.403   5.813   2.635  0.00  0.00    -0.239 N 
ATOM      6  N   UNL     1      -0.131   5.920   4.001  0.00  0.00    -0.166 NA
ATOM      7  C   UNL     1       0.087   4.720   4.493  0.00  0.00    +0.100 A 
BRANCH   7   8
ATOM      8  C   UNL     1       0.405   4.390   5.902  0.00  0.00    +0.003 A 
ATOM      9  C   UNL     1      -0.064   3.205   6.466  0.00  0.00    +0.010 A 
ATOM     10  C   UNL     1       0.235   2.902   7.779  0.00  0.00    +0.001 A 
ATOM     11  C   UNL     1       1.000   3.773   8.535  0.00  0.00    +0.000 A 
ATOM     12  C   UNL     1       1.468   4.951   7.981  0.00  0.00    +0.001 A 
ATOM     13  C   UNL     1       1.181   5.261   6.667  0.00  0.00    +0.010 A 
ENDBRANCH   7   8
BRANCH   5  14
ATOM     14  C   UNL     1      -0.688   6.887   1.782  0.00  0.00    +0.065 A 
ATOM     15  C   UNL     1      -0.949   6.659   0.438  0.00  0.00    +0.028 A 
ATOM     16  C   UNL     1      -1.230   7.721  -0.400  0.00  0.00    +0.002 A 
ATOM     17  C   UNL     1      -1.251   9.010   0.099  0.00  0.00    +0.000 A 
ATOM     18  C   UNL     1      -0.991   9.241   1.438  0.00  0.00    +0.002 A 
ATOM     19  C   UNL     1      -0.716   8.183   2.282  0.00  0.00    +0.028 A 
ENDBRANCH   5  14
ENDBRANCH   2   3
BRANCH   1  20
ATOM     20  C   UNL     1       0.126   0.158   2.392  0.00  0.00    +0.192 C 
ATOM     21  O   UNL     1       0.301  -0.388   3.467  0.00  0.00    -0.287 OA
BRANCH  20  29
ATOM     22  C   UNL     1      -2.363  -0.022   0.903  0.00  0.00    +0.046 C 
ATOM     23  C   UNL     1      -1.123  -0.738   0.431  0.00  0.00    -0.012 A 
ATOM     24  C   UNL     1      -1.145  -1.498  -0.734  0.00  0.00    +0.120 A 
ATOM     25  C   UNL     1       0.080  -2.176  -1.157  0.00  0.00    +0.272 A 
ATOM     26  O   UNL     1       0.088  -2.847  -2.174  0.00  0.00    -0.266 OA
ATOM     27  N   UNL     1       1.200  -2.056  -0.419  0.00  0.00    -0.270 N 
ATOM     28  C   UNL     1       1.216  -1.315   0.715  0.00  0.00    +0.265 A 
ATOM     29  C   UNL     1       0.074  -0.644   1.157  0.00  0.00    +0.090 A 
ATOM     30  O   UNL     1       2.356  -1.220   1.426  0.00  0.00    -0.267 OA
BRANCH  24  31
ATOM     31  C   UNL     1      -2.346  -1.614  -1.506  0.00  0.00    +0.105 C 
ATOM     32  N   UNL     1      -3.298  -1.706  -2.118  0.00  0.00    -0.191 NA
ENDBRANCH  24  31
BRANCH  27  33
ATOM     33  C   UNL     1       2.423  -2.739  -0.850  0.00  0.00    +0.155 C 
BRANCH  33  34
ATOM     34  C   UNL     1       3.216  -1.828  -1.751  0.00  0.00    -0.013 C 
ATOM     35  C   UNL     1       4.465  -1.553  -1.469  0.00  0.00    +0.005 C 
ENDBRANCH  33  34
ENDBRANCH  27  33
ENDBRANCH  20  29
ENDBRANCH   1  20
TORSDOF 8
