REMARK  Name = ZINC22804186
REMARK  10 active torsions:
REMARK  status: ('A' for Active; 'I' for Inactive)
REMARK    1  A    between atoms: C_1  and  C_2
REMARK    2  A    between atoms: C_8  and  C_10
REMARK    3  A    between atoms: C_10  and  N_11
REMARK    4  A    between atoms: N_14  and  C_17
REMARK    5  A    between atoms: C_17  and  C_18
REMARK    6  A    between atoms: N_20  and  C_21
REMARK    7  A    between atoms: C_22  and  C_32
REMARK    8  A    between atoms: C_27  and  C_31
REMARK    9  A    between atoms: C_32  and  O_34
REMARK   10  A    between atoms: O_34  and  C_35
REMARK                            x       y       z     vdW  Elec       q    Type
REMARK                         _______ _______ _______ _____ _____    ______ ____
ROOT
ATOM      1  C   UNL     1      -5.355  -5.621  -0.953  0.00  0.00    +0.180 C 
ENDROOT
BRANCH   1   5
ATOM      2  N   UNL     1      -4.356  -1.631   0.011  0.00  0.00    +0.387 N 
ATOM      3  C   UNL     1      -3.842  -2.184  -1.250  0.00  0.00    -0.063 C 
ATOM      4  C   UNL     1      -3.882  -3.713  -1.186  0.00  0.00    +0.066 C 
ATOM      5  N   UNL     1      -5.262  -4.155  -0.945  0.00  0.00    -0.298 NA
ATOM      6  C   UNL     1      -5.777  -3.601   0.315  0.00  0.00    +0.066 C 
ATOM      7  C   UNL     1      -5.737  -2.073   0.252  0.00  0.00    -0.063 C 
ATOM      8  H   UNL     1      -3.730  -2.012   0.830  0.00  0.00    -0.081 HD
BRANCH   2   9
ATOM      9  C   UNL     1      -4.264  -0.165   0.018  0.00  0.00    +0.019 C 
BRANCH   9  17
ATOM     10  C   UNL     1       2.500   1.546  -0.014  0.00  0.00    +0.089 C 
ATOM     11  C   UNL     1       1.041   1.923   0.002  0.00  0.00    +0.136 A 
ATOM     12  C   UNL     1      -0.013   1.076   0.008  0.00  0.00    +0.091 A 
ATOM     13  C   UNL     1      -1.143   1.935   0.017  0.00  0.00    +0.168 A 
ATOM     14  N   UNL     1      -0.674   3.155   0.025  0.00  0.00    -0.063 NA
ATOM     15  O   UNL     1       0.535   3.165   0.014  0.00  0.00    -0.358 OA
ATOM     16  N   UNL     1      -2.485   1.554   0.020  0.00  0.00    -0.269 N 
ATOM     17  C   UNL     1      -2.814   0.247   0.015  0.00  0.00    +0.202 C 
ATOM     18  O   UNL     1      -1.944  -0.597   0.006  0.00  0.00    -0.278 OA
ATOM     19  H   UNL     1      -3.275   2.320   0.028  0.00  0.00    +0.156 HD
ENDBRANCH   9  17
ENDBRANCH   2   9
ENDBRANCH   1   5
BRANCH   1  20
ATOM     20  C   UNL     1      -5.054  -6.136  -2.337  0.00  0.00    +0.232 C 
ATOM     21  O   UNL     1      -4.788  -5.359  -3.229  0.00  0.00    -0.274 OA
ATOM     22  N   UNL     1      -5.080  -7.461  -2.583  0.00  0.00    -0.278 N 
ATOM     23  H   UNL     1      -5.320  -8.166  -1.774  0.00  0.00    +0.155 HD
BRANCH  22  24
ATOM     24  C   UNL     1      -4.803  -7.935  -3.856  0.00  0.00    +0.086 A 
ATOM     25  C   UNL     1      -4.774  -9.250  -4.299  0.00  0.00    +0.091 A 
ATOM     26  C   UNL     1      -4.457  -9.480  -5.699  0.00  0.00    -0.021 A 
ATOM     27  C   UNL     1      -4.210  -8.367  -6.423  0.00  0.00    -0.004 A 
ATOM     28  S   UNL     1      -4.400  -7.030  -5.277  0.00  0.00    -0.077 S 
ATOM     29  C   UNL     1      -3.856  -8.294  -7.876  0.00  0.00    +0.046 C 
ATOM     30  C   UNL     1      -4.179  -9.650  -8.521  0.00  0.00    -0.009 C 
ATOM     31  C   UNL     1      -3.600 -10.764  -7.644  0.00  0.00    +0.008 C 
ATOM     32  C   UNL     1      -4.391 -10.861  -6.338  0.00  0.00    +0.037 C 
ATOM     33  C   UNL     1      -3.552  -9.717  -9.915  0.00  0.00    +0.008 C 
BRANCH  25  34
ATOM     34  C   UNL     1      -5.057 -10.365  -3.392  0.00  0.00    +0.342 C 
ATOM     35  O   UNL     1      -6.197 -10.767  -3.260  0.00  0.00    -0.245 OA
BRANCH  34  36
ATOM     36  O   UNL     1      -4.053 -10.944  -2.703  0.00  0.00    -0.464 OA
ATOM     37  C   UNL     1      -4.407 -12.043  -1.822  0.00  0.00    +0.280 C 
ENDBRANCH  34  36
ENDBRANCH  25  34
ENDBRANCH  22  24
ENDBRANCH   1  20
TORSDOF 7
