REMARK  Name = ZINC06357675
REMARK  9 active torsions:
REMARK  status: ('A' for Active; 'I' for Inactive)
REMARK    1  A    between atoms: C_1  and  C_2
REMARK    2  A    between atoms: C_2  and  C_3
REMARK    3  A    between atoms: C_2  and  N_4
REMARK    4  A    between atoms: C_2  and  O_13
REMARK    5  A    between atoms: O_13  and  C_14
REMARK    6  A    between atoms: C_14  and  C_15
REMARK    7  A    between atoms: C_15  and  C_16
REMARK    8  A    between atoms: C_16  and  C_17
REMARK    9  A    between atoms: C_16  and  C_23
REMARK                            x       y       z     vdW  Elec       q    Type
REMARK                         _______ _______ _______ _____ _____    ______ ____
ROOT
ATOM      1  C   UNL     1      -6.380   3.239   0.982  0.00  0.00    +0.163 C 
ENDROOT
BRANCH   1   2
ATOM      2  O   UNL     1      -5.260   3.967   0.476  0.00  0.00    -0.353 OA
BRANCH   2   4
ATOM      3  C   UNL     1      -6.631   5.811  -0.272  0.00  0.00    +0.068 C 
ATOM      4  C   UNL     1      -5.562   4.786  -0.655  0.00  0.00    +0.159 C 
ATOM      5  C   UNL     1      -6.082   3.908  -1.796  0.00  0.00    +0.068 C 
BRANCH   4   6
ATOM      6  N   UNL     1      -4.349   5.484  -1.090  0.00  0.00    -0.213 N 
ATOM      7  C   UNL     1      -3.175   4.907  -1.512  0.00  0.00    +0.092 A 
ATOM      8  C   UNL     1      -2.746   3.594  -1.671  0.00  0.00    +0.030 A 
ATOM      9  C   UNL     1      -1.480   3.342  -2.120  0.00  0.00    +0.002 A 
ATOM     10  C   UNL     1      -0.619   4.388  -2.429  0.00  0.00    +0.002 A 
ATOM     11  C   UNL     1      -1.017   5.685  -2.286  0.00  0.00    +0.032 A 
ATOM     12  C   UNL     1      -2.309   5.970  -1.823  0.00  0.00    +0.113 A 
ATOM     13  N   UNL     1      -2.970   7.120  -1.585  0.00  0.00    -0.129 NA
ATOM     14  N   UNL     1      -4.158   6.872  -1.159  0.00  0.00    -0.062 NA
ENDBRANCH   4   6
ENDBRANCH   2   4
ENDBRANCH   1   2
BRANCH   1  15
ATOM     15  C   UNL     1      -5.943   2.401   2.186  0.00  0.00    +0.041 C 
BRANCH  15  16
ATOM     16  C   UNL     1      -7.143   1.622   2.728  0.00  0.00    +0.051 C 
BRANCH  16  17
ATOM     17  C   UNL     1      -7.603   0.625   1.694  0.00  0.00    -0.040 A 
ATOM     18  C   UNL     1      -8.931   0.588   1.313  0.00  0.00    +0.004 A 
ATOM     19  C   UNL     1      -9.352  -0.323   0.362  0.00  0.00    +0.000 A 
ATOM     20  C   UNL     1      -8.446  -1.202  -0.200  0.00  0.00    +0.000 A 
ATOM     21  C   UNL     1      -7.119  -1.169   0.185  0.00  0.00    +0.000 A 
ATOM     22  C   UNL     1      -6.697  -0.255   1.132  0.00  0.00    +0.004 A 
ENDBRANCH  16  17
BRANCH  16  23
ATOM     23  C   UNL     1      -6.743   0.893   3.985  0.00  0.00    -0.040 A 
ATOM     24  C   UNL     1      -5.625   0.080   3.986  0.00  0.00    +0.004 A 
ATOM     25  C   UNL     1      -5.256  -0.585   5.141  0.00  0.00    +0.000 A 
ATOM     26  C   UNL     1      -6.009  -0.443   6.291  0.00  0.00    +0.000 A 
ATOM     27  C   UNL     1      -7.130   0.366   6.288  0.00  0.00    +0.000 A 
ATOM     28  C   UNL     1      -7.497   1.034   5.135  0.00  0.00    +0.004 A 
ENDBRANCH  16  23
ENDBRANCH  15  16
ENDBRANCH   1  15
TORSDOF 7
