REMARK  Name = ZINC40138288
REMARK  8 active torsions:
REMARK  status: ('A' for Active; 'I' for Inactive)
REMARK    1  A    between atoms: N_8  and  N_9
REMARK    2  A    between atoms: C_10  and  C_12
REMARK    3  A    between atoms: C_17  and  O_18
REMARK    4  A    between atoms: N_21  and  C_22
REMARK    5  A    between atoms: C_22  and  C_23
REMARK    6  A    between atoms: C_23  and  C_24
REMARK    7  A    between atoms: C_24  and  O_25
REMARK    8  A    between atoms: O_25  and  C_26
REMARK                            x       y       z     vdW  Elec       q    Type
REMARK                         _______ _______ _______ _____ _____    ______ ____
ROOT
ATOM      1  C   UNL     1      -0.017   1.376   0.010  0.00  0.00    +0.001 A 
ATOM      2  C   UNL     1       1.172   2.086   0.002  0.00  0.00    +0.002 A 
ATOM      3  C   UNL     1       2.385   1.427  -0.013  0.00  0.00    +0.024 A 
ATOM      4  C   UNL     1       2.424   0.037  -0.021  0.00  0.00    +0.046 A 
ATOM      5  C   UNL     1       1.219  -0.677  -0.013  0.00  0.00    +0.028 A 
ATOM      6  C   UNL     1       0.002  -0.004   0.002  0.00  0.00    +0.012 A 
ATOM      7  C   UNL     1       1.583  -2.113  -0.024  0.00  0.00    +0.153 C 
ATOM      8  N   UNL     1       0.772  -3.143  -0.022  0.00  0.00    -0.174 NA
ATOM      9  C   UNL     1       3.060  -2.131  -0.039  0.00  0.00    +0.271 C 
ATOM     10  O   UNL     1       3.764  -3.123  -0.051  0.00  0.00    -0.268 OA
ATOM     11  N   UNL     1       3.488  -0.857  -0.037  0.00  0.00    -0.265 N 
ENDROOT
BRANCH   8  12
ATOM     12  N   UNL     1       1.292  -4.444  -0.034  0.00  0.00    -0.202 N 
ATOM     13  C   UNL     1       0.458  -5.503  -0.032  0.00  0.00    +0.267 C 
ATOM     14  O   UNL     1      -0.745  -5.329  -0.020  0.00  0.00    -0.268 OA
ATOM     15  H   UNL     1       2.252  -4.583  -0.044  0.00  0.00    +0.178 HD
BRANCH  13  16
ATOM     16  C   UNL     1       1.005  -6.872  -0.045  0.00  0.00    +0.080 A 
ATOM     17  C   UNL     1       2.388  -7.077  -0.053  0.00  0.00    +0.017 A 
ATOM     18  C   UNL     1       2.892  -8.358  -0.065  0.00  0.00    +0.001 A 
ATOM     19  C   UNL     1       2.035  -9.447  -0.069  0.00  0.00    +0.004 A 
ATOM     20  C   UNL     1       0.667  -9.260  -0.060  0.00  0.00    +0.046 A 
ATOM     21  C   UNL     1       0.141  -7.976  -0.042  0.00  0.00    +0.129 A 
BRANCH  21  22
ATOM     22  O   UNL     1      -1.202  -7.791  -0.029  0.00  0.00    -0.506 OA
ATOM     23  H   UNL     1      -1.600  -7.732  -0.908  0.00  0.00    +0.292 HD
ENDBRANCH  21  22
ENDBRANCH  13  16
ENDBRANCH   8  12
BRANCH  11  24
ATOM     24  C   UNL     1       4.899  -0.461  -0.048  0.00  0.00    +0.117 C 
BRANCH  24  25
ATOM     25  C   UNL     1       5.404  -0.331   1.390  0.00  0.00    +0.060 C 
BRANCH  25  26
ATOM     26  C   UNL     1       6.877   0.083   1.377  0.00  0.00    +0.230 C 
BRANCH  26  27
ATOM     27  O   UNL     1       7.349   0.205   2.721  0.00  0.00    -0.491 OA
BRANCH  27  28
ATOM     28  C   UNL     1       8.648   0.568   2.888  0.00  0.00    +0.134 A 
ATOM     29  C   UNL     1       9.450   0.809   1.782  0.00  0.00    +0.047 A 
ATOM     30  C   UNL     1      10.770   1.178   1.954  0.00  0.00    +0.004 A 
ATOM     31  C   UNL     1      11.292   1.308   3.228  0.00  0.00    +0.001 A 
ATOM     32  C   UNL     1      10.495   1.070   4.332  0.00  0.00    +0.019 A 
ATOM     33  C   UNL     1       9.172   0.705   4.165  0.00  0.00    +0.059 A 
ATOM     34 BR   UNL     1       8.080   0.387   5.676  0.00  0.00    -0.047 Br
ENDBRANCH  27  28
ENDBRANCH  26  27
ENDBRANCH  25  26
ENDBRANCH  24  25
ENDBRANCH  11  24
TORSDOF 8
