REMARK  Name = ZINC00955961
REMARK  7 active torsions:
REMARK  status: ('A' for Active; 'I' for Inactive)
REMARK    1  A    between atoms: C_4  and  O_7
REMARK    2  A    between atoms: O_7  and  C_8
REMARK    3  A    between atoms: C_12  and  C_14
REMARK    4  A    between atoms: C_16  and  C_28
REMARK    5  A    between atoms: C_18  and  C_23
REMARK    6  A    between atoms: C_18  and  O_27
REMARK    7  A    between atoms: C_28  and  C_30
REMARK                            x       y       z     vdW  Elec       q    Type
REMARK                         _______ _______ _______ _____ _____    ______ ____
ROOT
ATOM      1  C   UNL     1      -7.074   2.920  -0.043  0.00  0.00    +0.120 C 
ATOM      2  C   UNL     1      -7.663   3.070  -1.449  0.00  0.00    +0.144 C 
ATOM      3  C   UNL     1      -8.088   1.686  -1.950  0.00  0.00    +0.243 C 
ATOM      4  N   UNL     1      -9.011   1.088  -0.984  0.00  0.00    -0.264 N 
ATOM      5  C   UNL     1      -8.946   1.389   0.322  0.00  0.00    +0.302 C 
ATOM      6  O   UNL     1      -9.730   0.856   1.083  0.00  0.00    -0.253 OA
ATOM      7  N   UNL     1      -8.052   2.256   0.820  0.00  0.00    -0.292 N 
ATOM      8  H   UNL     1      -9.683   0.461  -1.294  0.00  0.00    +0.153 HD
ATOM      9  H   UNL     1      -8.053   2.445   1.771  0.00  0.00    +0.151 HD
ENDROOT
BRANCH   1  14
ATOM     10  C   UNL     1      -3.466   1.916  -0.551  0.00  0.00    +0.129 A 
ATOM     11  C   UNL     1      -3.510   0.565  -0.234  0.00  0.00    +0.046 A 
ATOM     12  C   UNL     1      -4.704  -0.014   0.151  0.00  0.00    +0.004 A 
ATOM     13  C   UNL     1      -5.856   0.748   0.211  0.00  0.00    +0.006 A 
ATOM     14  C   UNL     1      -5.816   2.093  -0.109  0.00  0.00    -0.023 A 
ATOM     15  C   UNL     1      -4.624   2.678  -0.490  0.00  0.00    +0.051 A 
BRANCH  10  16
ATOM     16  O   UNL     1      -2.292   2.489  -0.925  0.00  0.00    -0.456 OA
BRANCH  16  20
ATOM     17  C   UNL     1      -0.084   4.440   1.962  0.00  0.00    +0.000 A 
ATOM     18  C   UNL     1      -1.227   3.749   2.318  0.00  0.00    +0.004 A 
ATOM     19  C   UNL     1      -1.966   3.091   1.354  0.00  0.00    +0.046 A 
ATOM     20  C   UNL     1      -1.565   3.132   0.026  0.00  0.00    +0.128 A 
ATOM     21  C   UNL     1      -0.417   3.826  -0.328  0.00  0.00    +0.046 A 
ATOM     22  C   UNL     1       0.321   4.479   0.640  0.00  0.00    +0.004 A 
ENDBRANCH  16  20
ENDBRANCH  10  16
ENDBRANCH   1  14
BRANCH   3  23
ATOM     23  C   UNL     1      -8.785   1.824  -3.305  0.00  0.00    +0.436 C 
ATOM     24  F   UNL     1      -7.947   2.507  -4.193  0.00  0.00    -0.166 F 
ATOM     25  F   UNL     1      -9.067   0.552  -3.816  0.00  0.00    -0.166 F 
ATOM     26  F   UNL     1      -9.977   2.538  -3.145  0.00  0.00    -0.166 F 
ENDBRANCH   3  23
BRANCH   3  27
ATOM     27  O   UNL     1      -6.935   0.853  -2.087  0.00  0.00    -0.364 OA
ATOM     28  H   UNL     1      -7.130  -0.041  -2.401  0.00  0.00    +0.212 HD
ENDBRANCH   3  27
BRANCH   2  29
ATOM     29  C   UNL     1      -8.863   3.981  -1.400  0.00  0.00    +0.173 C 
ATOM     30  O   UNL     1      -9.938   3.549  -1.041  0.00  0.00    -0.292 OA
BRANCH  29  31
ATOM     31  C   UNL     1      -8.730   5.394  -1.788  0.00  0.00    +0.018 A 
ATOM     32  C   UNL     1      -7.495   5.892  -2.216  0.00  0.00    +0.013 A 
ATOM     33  C   UNL     1      -7.380   7.215  -2.583  0.00  0.00    +0.020 A 
ATOM     34  C   UNL     1      -8.480   8.054  -2.518  0.00  0.00    +0.041 A 
ATOM     35  C   UNL     1      -9.706   7.569  -2.090  0.00  0.00    +0.020 A 
ATOM     36  C   UNL     1      -9.838   6.246  -1.726  0.00  0.00    +0.013 A 
ATOM     37 CL   UNL     1      -8.324   9.721  -2.976  0.00  0.00    -0.084 Cl
ENDBRANCH  29  31
ENDBRANCH   2  29
TORSDOF 7
