REMARK  Name = ZINC39710367
REMARK  12 active torsions:
REMARK  status: ('A' for Active; 'I' for Inactive)
REMARK    1  A    between atoms: C_1  and  C_2
REMARK    2  A    between atoms: C_9  and  C_14
REMARK    3  A    between atoms: C_14  and  C_16
REMARK    4  A    between atoms: C_14  and  N_26
REMARK    5  A    between atoms: N_21  and  C_22
REMARK    6  A    between atoms: C_22  and  C_23
REMARK    7  A    between atoms: C_22  and  C_24
REMARK    8  A    between atoms: C_22  and  C_25
REMARK    9  A    between atoms: N_26  and  C_27
REMARK   10  A    between atoms: N_26  and  C_33
REMARK   11  A    between atoms: C_27  and  C_28
REMARK   12  A    between atoms: C_33  and  C_34
REMARK                            x       y       z     vdW  Elec       q    Type
REMARK                         _______ _______ _______ _____ _____    ______ ____
ROOT
ATOM      1  C   UNL     1       2.036  -6.117   3.500  0.00  0.00    -0.008 C 
ENDROOT
BRANCH   1  10
ATOM      2  C   UNL     1       5.698   0.001   3.914  0.00  0.00    +0.044 C 
ATOM      3  C   UNL     1       4.655  -0.906   3.312  0.00  0.00    -0.050 A 
ATOM      4  C   UNL     1       4.240  -0.691   1.998  0.00  0.00    +0.005 A 
ATOM      5  C   UNL     1       3.305  -1.466   1.389  0.00  0.00    +0.024 A 
ATOM      6  C   UNL     1       2.708  -2.539   2.076  0.00  0.00    +0.040 A 
ATOM      7  N   UNL     1       1.793  -3.293   1.468  0.00  0.00    -0.285 N 
ATOM      8  C   UNL     1       1.193  -4.315   2.055  0.00  0.00    +0.223 C 
ATOM      9  O   UNL     1       0.365  -4.967   1.449  0.00  0.00    -0.275 OA
ATOM     10  C   UNL     1       1.542  -4.669   3.483  0.00  0.00    +0.088 C 
ATOM     11  C   UNL     1       2.583  -3.815   4.179  0.00  0.00    -0.006 C 
ATOM     12  C   UNL     1       3.128  -2.789   3.466  0.00  0.00    -0.007 A 
ATOM     13  C   UNL     1       4.144  -1.918   4.059  0.00  0.00    +0.012 A 
ATOM     14  H   UNL     1       1.555  -3.082   0.551  0.00  0.00    +0.155 HD
ENDBRANCH   1  10
BRANCH   1  15
ATOM     15  C   UNL     1       2.238  -6.570   4.948  0.00  0.00    +0.205 C 
ATOM     16  N   UNL     1       1.067  -6.219   5.763  0.00  0.00    -0.152 NA
ATOM     17  N   UNL     1       1.421  -5.449   6.658  0.00  0.00    -0.070 NA
ATOM     18  N   UNL     1       2.784  -5.160   6.617  0.00  0.00    -0.179 N 
ATOM     19  N   UNL     1       3.359  -5.833   5.568  0.00  0.00    -0.183 NA
ATOM     20  H   UNL     1       3.253  -4.576   7.234  0.00  0.00    +0.191 HD
BRANCH  19  21
ATOM     21  C   UNL     1       4.400  -6.756   6.038  0.00  0.00    +0.035 C 
ATOM     22  C   UNL     1       4.881  -7.621   4.871  0.00  0.00    +0.029 C 
ATOM     23  C   UNL     1       5.577  -5.955   6.598  0.00  0.00    +0.029 C 
ATOM     24  C   UNL     1       3.826  -7.655   7.136  0.00  0.00    +0.029 C 
ENDBRANCH  19  21
ENDBRANCH   1  15
BRANCH   1  25
ATOM     25  N   UNL     1       1.042  -6.982   2.850  0.00  0.00    +0.392 N 
ATOM     26  H   UNL     1       0.929  -6.699   1.888  0.00  0.00    -0.080 HD
BRANCH  25  27
ATOM     27  C   UNL     1      -0.243  -6.862   3.551  0.00  0.00    -0.002 C 
BRANCH  27  28
ATOM     28  C   UNL     1      -1.322  -6.502   2.562  0.00  0.00    +0.089 A 
ATOM     29  C   UNL     1      -1.752  -7.277   1.550  0.00  0.00    +0.042 A 
ATOM     30  C   UNL     1      -2.766  -6.553   0.881  0.00  0.00    +0.041 A 
ATOM     31  C   UNL     1      -2.894  -5.379   1.525  0.00  0.00    +0.195 A 
ATOM     32  O   UNL     1      -2.022  -5.356   2.545  0.00  0.00    -0.470 OA
ENDBRANCH  27  28
ENDBRANCH  25  27
BRANCH  25  33
ATOM     33  C   UNL     1       1.500  -8.377   2.901  0.00  0.00    -0.034 C 
BRANCH  33  34
ATOM     34  C   UNL     1       0.535  -9.249   2.139  0.00  0.00    -0.027 A 
ATOM     35  C   UNL     1       0.550  -9.597   0.829  0.00  0.00    +0.009 A 
ATOM     36  C   UNL     1      -0.449 -10.419   0.342  0.00  0.00    +0.008 A 
ATOM     37  C   UNL     1      -1.414 -10.853   1.189  0.00  0.00    +0.045 A 
ATOM     38  S   UNL     1      -0.919 -10.099   2.730  0.00  0.00    -0.103 S 
ENDBRANCH  33  34
ENDBRANCH  25  33
ENDBRANCH   1  25
TORSDOF 8
