REMARK  Name = ZINC02292129
REMARK  5 active torsions:
REMARK  status: ('A' for Active; 'I' for Inactive)
REMARK    1  A    between atoms: C_1  and  C_2
REMARK    2  A    between atoms: C_2  and  C_24
REMARK    3  A    between atoms: C_11  and  S_13
REMARK    4  A    between atoms: S_13  and  C_14
REMARK    5  A    between atoms: C_14  and  C_15
REMARK                            x       y       z     vdW  Elec       q    Type
REMARK                         _______ _______ _______ _____ _____    ______ ____
ROOT
ATOM      1  C   UNL     1      -0.019   1.526   0.010  0.00  0.00    +0.041 C 
ATOM      2  C   UNL     1       0.002  -0.004   0.002  0.00  0.00    +0.068 C 
ATOM      3  C   UNL     1      -1.435  -0.531  -0.004  0.00  0.00    +0.071 C 
ATOM      4  C   UNL     1      -2.059  -0.227   1.356  0.00  0.00    -0.018 A 
ATOM      5  C   UNL     1      -1.252   0.068   2.405  0.00  0.00    +0.021 A 
ATOM      6  S   UNL     1      -2.352   0.351   3.766  0.00  0.00    -0.073 S 
ATOM      7  C   UNL     1      -3.878   0.075   2.927  0.00  0.00    +0.093 A 
ATOM      8  C   UNL     1      -3.485  -0.229   1.613  0.00  0.00    +0.075 A 
ATOM      9  C   UNL     1      -4.571  -0.517   0.642  0.00  0.00    +0.282 A 
ATOM     10  N   UNL     1      -5.825  -0.456   1.123  0.00  0.00    -0.185 NA
ATOM     11  C   UNL     1      -6.125  -0.164   2.368  0.00  0.00    +0.171 A 
ATOM     12  N   UNL     1      -5.179   0.112   3.323  0.00  0.00    -0.328 N 
ATOM     13  O   UNL     1      -4.339  -0.793  -0.524  0.00  0.00    -0.265 OA
ATOM     14  C   UNL     1       0.243   0.131   2.383  0.00  0.00    +0.203 C 
ATOM     15  O   UNL     1       0.694  -0.475   1.161  0.00  0.00    -0.368 OA
ATOM     16  C   UNL     1       0.725  -0.495  -1.254  0.00  0.00    +0.041 C 
ATOM     17  H   UNL     1      -5.427   0.325   4.236  0.00  0.00    +0.168 HD
ENDROOT
BRANCH  11  18
ATOM     18  S   UNL     1      -7.824  -0.126   2.835  0.00  0.00    -0.083 S 
BRANCH  18  19
ATOM     19  C   UNL     1      -8.708  -0.541   1.306  0.00  0.00    +0.112 C 
BRANCH  19  20
ATOM     20  C   UNL     1     -10.192  -0.543   1.569  0.00  0.00    -0.037 A 
ATOM     21  C   UNL     1     -10.819  -1.704   1.980  0.00  0.00    +0.004 A 
ATOM     22  C   UNL     1     -12.180  -1.707   2.221  0.00  0.00    +0.000 A 
ATOM     23  C   UNL     1     -12.914  -0.547   2.052  0.00  0.00    +0.000 A 
ATOM     24  C   UNL     1     -12.287   0.614   1.642  0.00  0.00    +0.000 A 
ATOM     25  C   UNL     1     -10.925   0.617   1.405  0.00  0.00    +0.004 A 
ENDBRANCH  19  20
ENDBRANCH  18  19
ENDBRANCH  11  18
TORSDOF 3
