REMARK  Name = ZINC21819656
REMARK  8 active torsions:
REMARK  status: ('A' for Active; 'I' for Inactive)
REMARK    1  A    between atoms: C_1  and  C_2
REMARK    2  A    between atoms: C_4  and  C_23
REMARK    3  A    between atoms: C_6  and  N_8
REMARK    4  A    between atoms: N_8  and  C_9
REMARK    5  A    between atoms: C_9  and  C_11
REMARK    6  A    between atoms: C_9  and  C_12
REMARK    7  A    between atoms: N_14  and  C_15
REMARK    8  A    between atoms: C_15  and  C_21
REMARK                            x       y       z     vdW  Elec       q    Type
REMARK                         _______ _______ _______ _____ _____    ______ ____
ROOT
ATOM      1  C   UNL     1       0.048  -2.073   3.665  0.00  0.00    +0.154 C 
ATOM      2  C   UNL     1       1.482  -1.693   4.039  0.00  0.00    +0.038 C 
ENDROOT
BRANCH   1   3
ATOM      3  C   UNL     1      -0.536  -2.953   4.740  0.00  0.00    +0.234 C 
ATOM      4  O   UNL     1      -0.912  -4.074   4.469  0.00  0.00    -0.274 OA
ATOM      5  N   UNL     1      -0.640  -2.495   6.003  0.00  0.00    -0.296 N 
ATOM      6  H   UNL     1      -0.339  -1.599   6.220  0.00  0.00    +0.150 HD
BRANCH   5   7
ATOM      7  C   UNL     1      -1.207  -3.350   7.048  0.00  0.00    +0.121 C 
ATOM      8  C   UNL     1      -2.641  -3.730   6.674  0.00  0.00    +0.041 C 
ATOM      9  C   UNL     1      -3.233  -4.623   7.766  0.00  0.00    +0.003 C 
ATOM     10  C   UNL     1      -3.237  -3.868   9.096  0.00  0.00    +0.000 C 
ATOM     11  C   UNL     1      -1.803  -3.488   9.471  0.00  0.00    +0.003 C 
ATOM     12  C   UNL     1      -1.210  -2.595   8.379  0.00  0.00    +0.041 C 
BRANCH   7  13
ATOM     13  C   UNL     1      -0.394  -4.570   7.179  0.00  0.00    +0.088 C 
ATOM     14  N   UNL     1       0.233  -5.512   7.279  0.00  0.00    -0.194 NA
ENDBRANCH   7  13
ENDBRANCH   5   7
ENDBRANCH   1   3
BRANCH   1  15
ATOM     15  N   UNL     1       0.051  -2.796   2.390  0.00  0.00    -0.333 N 
ATOM     16  H   UNL     1       0.064  -3.766   2.383  0.00  0.00    +0.147 HD
BRANCH  15  22
ATOM     17  C   UNL     1      -0.018   1.503   0.010  0.00  0.00    +0.044 C 
ATOM     18  C   UNL     1       0.002  -0.004   0.002  0.00  0.00    -0.048 A 
ATOM     19  C   UNL     1       0.006  -0.688  -1.200  0.00  0.00    +0.006 A 
ATOM     20  C   UNL     1       0.024  -2.071  -1.212  0.00  0.00    -0.048 A 
ATOM     21  C   UNL     1       0.039  -2.773  -0.023  0.00  0.00    +0.026 A 
ATOM     22  C   UNL     1       0.036  -2.089   1.186  0.00  0.00    +0.028 A 
ATOM     23  C   UNL     1       0.023  -0.700   1.195  0.00  0.00    +0.026 A 
ATOM     24  C   UNL     1       0.027  -2.812  -2.524  0.00  0.00    +0.044 C 
ENDBRANCH  15  22
ENDBRANCH   1  15
TORSDOF 5
