REMARK  Name = ZINC07010455
REMARK  6 active torsions:
REMARK  status: ('A' for Active; 'I' for Inactive)
REMARK    1  A    between atoms: C_1  and  C_2
REMARK    2  A    between atoms: C_2  and  C_28
REMARK    3  A    between atoms: C_7  and  C_11
REMARK    4  A    between atoms: N_13  and  C_14
REMARK    5  A    between atoms: C_17  and  N_20
REMARK    6  A    between atoms: N_21  and  C_22
REMARK                            x       y       z     vdW  Elec       q    Type
REMARK                         _______ _______ _______ _____ _____    ______ ____
ROOT
ATOM      1  C   UNL     1       1.766  -0.097   2.460  0.00  0.00    +0.231 C 
ATOM      2  O   UNL     1       2.250  -0.542   1.440  0.00  0.00    -0.274 OA
ATOM      3  N   UNL     1       2.193  -0.541   3.658  0.00  0.00    -0.285 N 
ATOM      4  H   UNL     1       1.740  -0.261   4.469  0.00  0.00    +0.155 HD
ENDROOT
BRANCH   1  10
ATOM      5  C   UNL     1       0.751   4.396   1.614  0.00  0.00    +0.019 C 
ATOM      6  C   UNL     1       0.027   3.293   2.388  0.00  0.00    +0.027 C 
ATOM      7  C   UNL     1      -0.835   2.426   1.419  0.00  0.00    +0.003 C 
ATOM      8  C   UNL     1      -1.699   1.536   2.365  0.00  0.00    +0.006 C 
ATOM      9  C   UNL     1      -0.686   0.562   3.010  0.00  0.00    +0.024 C 
ATOM     10  C   UNL     1       0.688   0.954   2.386  0.00  0.00    +0.106 C 
ATOM     11  C   UNL     1       0.246   1.399   0.928  0.00  0.00    +0.028 C 
ATOM     12  C   UNL     1       1.032   2.322   2.991  0.00  0.00    +0.154 C 
ATOM     13  O   UNL     1       1.900   2.571   3.793  0.00  0.00    -0.296 OA
ATOM     14  C   UNL     1      -0.849   3.901   3.485  0.00  0.00    +0.019 C 
ENDBRANCH   1  10
BRANCH   3  15
ATOM     15  C   UNL     1       3.287  -1.405   3.733  0.00  0.00    +0.034 A 
ATOM     16  C   UNL     1       3.320  -2.400   4.704  0.00  0.00    +0.025 A 
ATOM     17  C   UNL     1       4.397  -3.254   4.782  0.00  0.00    +0.031 A 
ATOM     18  C   UNL     1       5.459  -3.120   3.881  0.00  0.00    +0.086 A 
ATOM     19  C   UNL     1       5.422  -2.118   2.906  0.00  0.00    +0.031 A 
ATOM     20  C   UNL     1       4.339  -1.272   2.832  0.00  0.00    +0.025 A 
BRANCH  18  21
ATOM     21  N   UNL     1       6.529  -3.964   3.955  0.00  0.00    -0.149 NA
ATOM     22  N   UNL     1       6.432  -5.073   4.607  0.00  0.00    -0.149 NA
BRANCH  22  23
ATOM     23  C   UNL     1       5.237  -5.734   4.659  0.00  0.00    +0.086 A 
ATOM     24  C   UNL     1       5.028  -6.735   5.611  0.00  0.00    +0.029 A 
ATOM     25  C   UNL     1       3.819  -7.397   5.657  0.00  0.00    +0.002 A 
ATOM     26  C   UNL     1       2.814  -7.072   4.763  0.00  0.00    +0.000 A 
ATOM     27  C   UNL     1       3.014  -6.082   3.817  0.00  0.00    +0.002 A 
ATOM     28  C   UNL     1       4.215  -5.407   3.763  0.00  0.00    +0.029 A 
ENDBRANCH  22  23
ENDBRANCH  18  21
ENDBRANCH   3  15
TORSDOF 4
