REMARK  Name = ZINC36058331
REMARK  18 active torsions:
REMARK  status: ('A' for Active; 'I' for Inactive)
REMARK    1  A    between atoms: C_1  and  C_2
REMARK    2  A    between atoms: C_2  and  C_3
REMARK    3  A    between atoms: C_3  and  C_5
REMARK    4  A    between atoms: C_3  and  N_6
REMARK    5  A    between atoms: N_6  and  C_7
REMARK    6  A    between atoms: C_9  and  C_10
REMARK    7  A    between atoms: C_15  and  C_37
REMARK    8  A    between atoms: C_16  and  C_30
REMARK    9  A    between atoms: C_17  and  C_20
REMARK   10  A    between atoms: C_23  and  O_28
REMARK   11  A    between atoms: C_24  and  O_26
REMARK   12  A    between atoms: O_26  and  C_27
REMARK   13  A    between atoms: O_28  and  C_29
REMARK   14  A    between atoms: C_30  and  O_32
REMARK   15  A    between atoms: O_32  and  C_33
REMARK   16  A    between atoms: C_33  and  C_34
REMARK   17  A    between atoms: C_34  and  O_35
REMARK   18  A    between atoms: O_35  and  C_36
REMARK                            x       y       z     vdW  Elec       q    Type
REMARK                         _______ _______ _______ _____ _____    ______ ____
ROOT
ATOM      1  C   UNL     1       0.329   0.810   6.268  0.00  0.00    +0.048 C 
ATOM      2  C   UNL     1      -0.472   0.907   7.352  0.00  0.00    +0.072 C 
ATOM      3  S   UNL     1       0.691   0.718   8.688  0.00  0.00    -0.060 S 
ATOM      4  C   UNL     1       2.093   0.533   7.784  0.00  0.00    +0.166 C 
ATOM      5  N   UNL     1       3.346   0.347   8.146  0.00  0.00    -0.230 NA
ATOM      6  C   UNL     1       4.362   0.215   7.308  0.00  0.00    +0.053 C 
ATOM      7  C   UNL     1       4.155   0.268   5.943  0.00  0.00    +0.082 C 
ATOM      8  C   UNL     1       2.740   0.478   5.452  0.00  0.00    +0.150 C 
ATOM      9  N   UNL     1       1.677   0.608   6.484  0.00  0.00    -0.267 N 
ATOM     10  C   UNL     1       5.754   0.007   7.846  0.00  0.00    +0.066 C 
ENDROOT
BRANCH   8  11
ATOM     11  C   UNL     1       2.724   1.725   4.605  0.00  0.00    -0.018 A 
ATOM     12  C   UNL     1       2.615   1.624   3.231  0.00  0.00    +0.009 A 
ATOM     13  C   UNL     1       2.599   2.764   2.449  0.00  0.00    +0.050 A 
ATOM     14  C   UNL     1       2.693   4.013   3.044  0.00  0.00    +0.162 A 
ATOM     15  C   UNL     1       2.803   4.114   4.427  0.00  0.00    +0.162 A 
ATOM     16  C   UNL     1       2.813   2.967   5.205  0.00  0.00    +0.055 A 
BRANCH  15  17
ATOM     17  O   UNL     1       2.895   5.337   5.015  0.00  0.00    -0.491 OA
ATOM     18  C   UNL     1       3.113   5.363   6.428  0.00  0.00    +0.277 C 
ENDBRANCH  15  17
BRANCH  14  19
ATOM     19  O   UNL     1       2.679   5.135   2.277  0.00  0.00    -0.491 OA
ATOM     20  C   UNL     1       2.564   4.955   0.864  0.00  0.00    +0.277 C 
ENDBRANCH  14  19
ENDBRANCH   8  11
BRANCH   1  23
ATOM     21  C   UNL     1      -1.506   1.253   4.722  0.00  0.00    +0.239 C 
ATOM     22  O   UNL     1      -2.263   1.641   5.778  0.00  0.00    -0.271 OA
ATOM     23  C   UNL     1      -0.217   0.911   4.907  0.00  0.00    +0.091 C 
BRANCH  21  24
ATOM     24  N   UNL     1      -2.059   1.209   3.454  0.00  0.00    -0.309 N 
ATOM     25  H   UNL     1      -1.501   1.003   2.688  0.00  0.00    +0.149 HD
BRANCH  24  26
ATOM     26  C   UNL     1      -3.488   1.474   3.268  0.00  0.00    +0.070 C 
ATOM     27  C   UNL     1      -3.705   2.973   3.050  0.00  0.00    +0.028 C 
BRANCH  26  29
ATOM     28  C   UNL     1      -3.845  -0.799   2.295  0.00  0.00    +0.005 C 
ATOM     29  C   UNL     1      -3.996   0.703   2.048  0.00  0.00    +0.018 C 
ENDBRANCH  26  29
ENDBRANCH  24  26
ENDBRANCH  21  24
ENDBRANCH   1  23
BRANCH   7  30
ATOM     30  C   UNL     1       5.220   0.130   5.044  0.00  0.00    +0.339 C 
ATOM     31  O   UNL     1       6.338  -0.122   5.458  0.00  0.00    -0.245 OA
BRANCH  30  32
ATOM     32  O   UNL     1       5.007   0.277   3.717  0.00  0.00    -0.459 OA
BRANCH  32  33
ATOM     33  C   UNL     1       6.111   0.009   2.850  0.00  0.00    +0.260 C 
BRANCH  33  34
ATOM     34  C   UNL     1       5.650   0.103   1.394  0.00  0.00    +0.200 C 
BRANCH  34  35
ATOM     35  O   UNL     1       5.280   1.451   1.098  0.00  0.00    -0.380 OA
ATOM     36  C   UNL     1       4.941   1.672  -0.273  0.00  0.00    +0.194 C 
ENDBRANCH  34  35
ENDBRANCH  33  34
ENDBRANCH  32  33
ENDBRANCH  30  32
ENDBRANCH   7  30
TORSDOF 12
