REMARK  Name = ZINC19941546
REMARK  10 active torsions:
REMARK  status: ('A' for Active; 'I' for Inactive)
REMARK    1  A    between atoms: C_1  and  C_2
REMARK    2  A    between atoms: C_12  and  C_14
REMARK    3  A    between atoms: C_14  and  C_16
REMARK    4  A    between atoms: C_14  and  N_27
REMARK    5  A    between atoms: N_20  and  C_21
REMARK    6  A    between atoms: N_27  and  C_28
REMARK    7  A    between atoms: N_27  and  C_36
REMARK    8  A    between atoms: C_28  and  C_29
REMARK    9  A    between atoms: C_29  and  C_30
REMARK   10  A    between atoms: C_36  and  C_37
REMARK                            x       y       z     vdW  Elec       q    Type
REMARK                         _______ _______ _______ _____ _____    ______ ____
ROOT
ATOM      1  C   UNL     1      -0.033  -2.537   4.980  0.00  0.00    +0.163 C 
ENDROOT
BRANCH   1  13
ATOM      2  C   UNL     1      -0.265   3.408   2.186  0.00  0.00    +0.046 C 
ATOM      3  C   UNL     1      -0.258   2.025   1.585  0.00  0.00    -0.026 A 
ATOM      4  C   UNL     1      -0.312   1.865   0.217  0.00  0.00    +0.005 A 
ATOM      5  C   UNL     1      -0.300   0.597  -0.348  0.00  0.00    +0.001 A 
ATOM      6  C   UNL     1      -0.247  -0.516   0.442  0.00  0.00    +0.010 A 
ATOM      7  C   UNL     1      -0.198  -0.378   1.833  0.00  0.00    -0.001 A 
ATOM      8  C   UNL     1      -0.203   0.907   2.410  0.00  0.00    +0.052 A 
ATOM      9  N   UNL     1      -0.154   1.038   3.781  0.00  0.00    -0.322 N 
ATOM     10  H   UNL     1      -0.157   2.038   4.239  0.00  0.00    +0.169 HD
ATOM     11  C   UNL     1      -0.101  -0.044   4.578  0.00  0.00    +0.254 A 
ATOM     12  O   UNL     1      -0.059   0.110   5.786  0.00  0.00    -0.268 OA
ATOM     13  C   UNL     1      -0.094  -1.353   4.050  0.00  0.00    +0.042 A 
ATOM     14  C   UNL     1      -0.140  -1.549   2.709  0.00  0.00    +0.021 A 
ENDBRANCH   1  13
BRANCH   1  15
ATOM     15  C   UNL     1      -1.305  -2.610   5.785  0.00  0.00    +0.173 A 
ATOM     16  N   UNL     1      -1.637  -1.845   6.796  0.00  0.00    -0.111 NA
ATOM     17  N   UNL     1      -2.797  -2.217   7.213  0.00  0.00    -0.023 NA
ATOM     18  N   UNL     1      -3.212  -3.205   6.499  0.00  0.00    -0.044 NA
ATOM     19  N   UNL     1      -2.320  -3.477   5.608  0.00  0.00    -0.224 N 
BRANCH  19  20
ATOM     20  C   UNL     1      -2.396  -4.531   4.593  0.00  0.00    +0.111 C 
ATOM     21  C   UNL     1      -3.616  -4.293   3.701  0.00  0.00    +0.027 C 
ATOM     22  C   UNL     1      -3.696  -5.394   2.642  0.00  0.00    +0.002 C 
ATOM     23  C   UNL     1      -3.825  -6.755   3.329  0.00  0.00    +0.000 C 
ATOM     24  C   UNL     1      -2.605  -6.993   4.221  0.00  0.00    +0.002 C 
ATOM     25  C   UNL     1      -2.525  -5.892   5.280  0.00  0.00    +0.027 C 
ENDBRANCH  19  20
ENDBRANCH   1  15
BRANCH   1  26
ATOM     26  N   UNL     1       1.112  -2.389   5.888  0.00  0.00    -0.284 NA
BRANCH  26  27
ATOM     27  C   UNL     1       1.105  -3.433   6.921  0.00  0.00    +0.090 C 
BRANCH  27  28
ATOM     28  C   UNL     1       2.067  -3.046   8.045  0.00  0.00    +0.050 C 
BRANCH  28  29
ATOM     29  C   UNL     1       2.058  -4.117   9.105  0.00  0.00    -0.046 A 
ATOM     30  C   UNL     1       1.169  -4.038  10.160  0.00  0.00    +0.003 A 
ATOM     31  C   UNL     1       1.157  -5.023  11.130  0.00  0.00    +0.000 A 
ATOM     32  C   UNL     1       2.042  -6.082  11.050  0.00  0.00    +0.000 A 
ATOM     33  C   UNL     1       2.935  -6.159   9.998  0.00  0.00    +0.000 A 
ATOM     34  C   UNL     1       2.943  -5.176   9.025  0.00  0.00    +0.003 A 
ENDBRANCH  28  29
ENDBRANCH  27  28
ENDBRANCH  26  27
BRANCH  26  35
ATOM     35  C   UNL     1       2.378  -2.394   5.143  0.00  0.00    +0.120 C 
BRANCH  35  36
ATOM     36  C   UNL     1       2.590  -3.750   4.521  0.00  0.00    -0.033 A 
ATOM     37  C   UNL     1       3.282  -4.727   5.212  0.00  0.00    +0.005 A 
ATOM     38  C   UNL     1       3.471  -5.973   4.643  0.00  0.00    +0.000 A 
ATOM     39  C   UNL     1       2.977  -6.238   3.379  0.00  0.00    +0.000 A 
ATOM     40  C   UNL     1       2.289  -5.259   2.687  0.00  0.00    +0.000 A 
ATOM     41  C   UNL     1       2.096  -4.015   3.257  0.00  0.00    +0.005 A 
ENDBRANCH  35  36
ENDBRANCH  26  35
ENDBRANCH   1  26
TORSDOF 9
