REMARK  Name = ZINC63425773
REMARK  15 active torsions:
REMARK  status: ('A' for Active; 'I' for Inactive)
REMARK    1  A    between atoms: C_1  and  C_2
REMARK    2  A    between atoms: C_6  and  N_9
REMARK    3  A    between atoms: C_7  and  C_8
REMARK    4  A    between atoms: C_10  and  C_12
REMARK    5  A    between atoms: C_12  and  S_13
REMARK    6  A    between atoms: S_13  and  C_14
REMARK    7  A    between atoms: C_18  and  C_21
REMARK    8  A    between atoms: C_21  and  C_23
REMARK    9  A    between atoms: C_21  and  N_33
REMARK   10  A    between atoms: C_23  and  C_24
REMARK   11  A    between atoms: C_34  and  O_36
REMARK   12  A    between atoms: O_36  and  C_37
REMARK   13  A    between atoms: C_37  and  C_38
REMARK   14  A    between atoms: C_37  and  C_39
REMARK   15  A    between atoms: C_37  and  C_40
REMARK                            x       y       z     vdW  Elec       q    Type
REMARK                         _______ _______ _______ _____ _____    ______ ____
ROOT
ATOM      1  C   UNL     1      -1.372  -8.151   7.807  0.00  0.00    +0.133 C 
ENDROOT
BRANCH   1   5
ATOM      2  C   UNL     1      -0.342  -7.434   4.989  0.00  0.00    +0.319 C 
ATOM      3  N   UNL     1       0.814  -7.043   5.806  0.00  0.00    -0.146 NA
ATOM      4  N   UNL     1       0.444  -6.731   6.945  0.00  0.00    -0.155 NA
ATOM      5  C   UNL     1      -1.015  -6.867   7.056  0.00  0.00    +0.280 C 
ATOM      6  O   UNL     1      -1.495  -6.932   5.696  0.00  0.00    -0.316 OA
BRANCH   2   7
ATOM      7  S   UNL     1      -0.234  -6.677   3.343  0.00  0.00    -0.095 S 
BRANCH   7   8
ATOM      8  C   UNL     1      -0.135  -4.898   3.684  0.00  0.00    +0.169 C 
BRANCH   8  10
ATOM      9  N   UNL     1       0.044  -2.797   2.391  0.00  0.00    -0.285 N 
ATOM     10  C   UNL     1      -0.040  -4.142   2.384  0.00  0.00    +0.227 C 
ATOM     11  O   UNL     1      -0.039  -4.744   1.331  0.00  0.00    -0.275 OA
ATOM     12  H   UNL     1       0.124  -2.321   3.233  0.00  0.00    +0.155 HD
BRANCH   9  18
ATOM     13  C   UNL     1       1.194   1.236  -0.174  0.00  0.00    +0.044 C 
ATOM     14  C   UNL     1       0.565  -0.130  -0.086  0.00  0.00    -0.046 A 
ATOM     15  C   UNL     1      -0.041  -0.685  -1.199  0.00  0.00    +0.004 A 
ATOM     16  C   UNL     1      -0.619  -1.938  -1.122  0.00  0.00    +0.002 A 
ATOM     17  C   UNL     1      -0.592  -2.641   0.067  0.00  0.00    +0.023 A 
ATOM     18  C   UNL     1       0.016  -2.088   1.186  0.00  0.00    +0.037 A 
ATOM     19  C   UNL     1       0.600  -0.830   1.104  0.00  0.00    -0.026 A 
ATOM     20  C   UNL     1       1.266  -0.228   2.314  0.00  0.00    +0.046 C 
ENDBRANCH   9  18
ENDBRANCH   8  10
ENDBRANCH   7   8
ENDBRANCH   2   7
ENDBRANCH   1   5
BRANCH   1  21
ATOM     21  N   UNL     1      -0.708  -9.291   7.169  0.00  0.00    -0.274 N 
ATOM     22  C   UNL     1      -1.433 -10.349   6.756  0.00  0.00    +0.401 C 
ATOM     23  O   UNL     1      -2.646 -10.320   6.830  0.00  0.00    -0.226 OA
ATOM     24  H   UNL     1       0.254  -9.284   7.043  0.00  0.00    +0.152 HD
BRANCH  22  25
ATOM     25  O   UNL     1      -0.814 -11.438   6.263  0.00  0.00    -0.445 OA
BRANCH  25  26
ATOM     26  C   UNL     1      -1.645 -12.523   5.844  0.00  0.00    +0.107 C 
ATOM     27  C   UNL     1      -2.586 -12.046   4.736  0.00  0.00    +0.055 C 
ATOM     28  C   UNL     1      -0.770 -13.662   5.317  0.00  0.00    +0.055 C 
ATOM     29  C   UNL     1      -2.470 -13.022   7.033  0.00  0.00    +0.055 C 
ENDBRANCH  25  26
ENDBRANCH  22  25
ENDBRANCH   1  21
BRANCH   1  30
ATOM     30  C   UNL     1      -0.907  -8.039   9.260  0.00  0.00    +0.060 C 
BRANCH  30  31
ATOM     31  C   UNL     1      -1.366  -9.250  10.030  0.00  0.00    -0.040 C 
ATOM     32  C   UNL     1      -0.657 -10.375  10.275  0.00  0.00    -0.001 A 
ATOM     33  C   UNL     1       0.703 -10.792   9.910  0.00  0.00    +0.010 A 
ATOM     34  C   UNL     1       1.145 -12.007  10.308  0.00  0.00    +0.001 A 
ATOM     35  C   UNL     1       0.339 -12.876  11.057  0.00  0.00    +0.002 A 
ATOM     36  C   UNL     1      -0.920 -12.563  11.430  0.00  0.00    +0.026 A 
ATOM     37  C   UNL     1      -1.487 -11.310  11.067  0.00  0.00    +0.043 A 
ATOM     38  N   UNL     1      -2.664 -10.784  11.302  0.00  0.00    -0.380 N 
ATOM     39  C   UNL     1      -2.712  -9.451  10.691  0.00  0.00    +0.144 C 
ATOM     40  H   UNL     1      -3.383 -11.204  11.801  0.00  0.00    +0.160 HD
ENDBRANCH  30  31
ENDBRANCH   1  30
TORSDOF 10
