REMARK  Name = ZINC34792438
REMARK  9 active torsions:
REMARK  status: ('A' for Active; 'I' for Inactive)
REMARK    1  A    between atoms: C_1  and  C_2
REMARK    2  A    between atoms: C_2  and  C_3
REMARK    3  A    between atoms: C_2  and  C_4
REMARK    4  A    between atoms: C_2  and  C_5
REMARK    5  A    between atoms: C_8  and  C_11
REMARK    6  A    between atoms: N_16  and  C_19
REMARK    7  A    between atoms: C_19  and  C_20
REMARK    8  A    between atoms: N_22  and  C_23
REMARK    9  A    between atoms: N_30  and  C_34
REMARK                            x       y       z     vdW  Elec       q    Type
REMARK                         _______ _______ _______ _____ _____    ______ ____
ROOT
ATOM      1  C   UNL     1       2.714  -1.861  -4.745  0.00  0.00    +0.142 C 
ATOM      2  C   UNL     1       3.493  -3.110  -4.383  0.00  0.00    +0.058 C 
ATOM      3  C   UNL     1       4.824  -3.104  -4.601  0.00  0.00    +0.042 C 
ATOM      4  C   UNL     1       5.335  -4.455  -4.154  0.00  0.00    +0.160 C 
ATOM      5  N   UNL     1       4.142  -5.172  -3.679  0.00  0.00    -0.283 N 
ATOM      6  C   UNL     1       3.092  -4.345  -3.833  0.00  0.00    +0.247 C 
ATOM      7  O   UNL     1       1.945  -4.625  -3.536  0.00  0.00    -0.270 OA
ATOM      8  N   UNL     1       5.450  -2.011  -5.131  0.00  0.00    -0.260 N 
ATOM      9  C   UNL     1       4.811  -0.884  -5.470  0.00  0.00    +0.307 C 
ATOM     10  O   UNL     1       5.452   0.038  -5.936  0.00  0.00    -0.252 OA
ATOM     11  N   UNL     1       3.482  -0.738  -5.309  0.00  0.00    -0.288 N 
ATOM     12  C   UNL     1       6.898  -2.077  -5.340  0.00  0.00    +0.139 C 
ATOM     13  H   UNL     1       3.040   0.088  -5.561  0.00  0.00    +0.151 HD
ENDROOT
BRANCH   1  17
ATOM     14  C   UNL     1       0.741  -0.472  -1.220  0.00  0.00    -0.042 A 
ATOM     15  C   UNL     1       0.061  -1.264  -2.127  0.00  0.00    +0.004 A 
ATOM     16  C   UNL     1       0.699  -1.713  -3.268  0.00  0.00    +0.006 A 
ATOM     17  C   UNL     1       2.018  -1.371  -3.502  0.00  0.00    -0.023 A 
ATOM     18  C   UNL     1       2.698  -0.579  -2.596  0.00  0.00    +0.006 A 
ATOM     19  C   UNL     1       2.058  -0.126  -1.457  0.00  0.00    +0.004 A 
BRANCH  14  21
ATOM     20  C   UNL     1       0.032   1.547   0.031  0.00  0.00    +0.015 C 
ATOM     21  C   UNL     1       0.045   0.017   0.023  0.00  0.00    -0.013 C 
ATOM     22  C   UNL     1       0.789  -0.493   1.259  0.00  0.00    +0.015 C 
ATOM     23  C   UNL     1      -1.393  -0.505   0.042  0.00  0.00    +0.015 C 
ENDBRANCH  14  21
ENDBRANCH   1  17
BRANCH   5  24
ATOM     24  C   UNL     1       4.103  -6.533  -3.139  0.00  0.00    +0.204 C 
BRANCH  24  25
ATOM     25  C   UNL     1       4.302  -6.487  -1.646  0.00  0.00    +0.235 C 
ATOM     26  O   UNL     1       4.461  -5.422  -1.088  0.00  0.00    -0.274 OA
ATOM     27  N   UNL     1       4.304  -7.629  -0.931  0.00  0.00    -0.284 N 
ATOM     28  H   UNL     1       4.111  -8.474  -1.366  0.00  0.00    +0.155 HD
BRANCH  27  29
ATOM     29  C   UNL     1       4.585  -7.596   0.441  0.00  0.00    +0.034 A 
ATOM     30  C   UNL     1       5.290  -8.637   1.031  0.00  0.00    +0.026 A 
ATOM     31  C   UNL     1       5.566  -8.602   2.384  0.00  0.00    +0.040 A 
ATOM     32  C   UNL     1       5.140  -7.531   3.152  0.00  0.00    +0.124 A 
ATOM     33  C   UNL     1       4.438  -6.492   2.564  0.00  0.00    +0.040 A 
ATOM     34  C   UNL     1       4.165  -6.520   1.211  0.00  0.00    +0.026 A 
ATOM     35  F   UNL     1       5.411  -7.500   4.475  0.00  0.00    -0.205 F 
ENDBRANCH  27  29
ENDBRANCH  24  25
ENDBRANCH   5  24
TORSDOF 5
