REMARK  Name = ZINC04282421
REMARK  10 active torsions:
REMARK  status: ('A' for Active; 'I' for Inactive)
REMARK    1  A    between atoms: C_1  and  O_2
REMARK    2  A    between atoms: O_2  and  C_3
REMARK    3  A    between atoms: C_6  and  C_9
REMARK    4  A    between atoms: C_9  and  O_11
REMARK    5  A    between atoms: O_11  and  C_12
REMARK    6  A    between atoms: C_15  and  C_18
REMARK    7  A    between atoms: N_19  and  N_20
REMARK    8  A    between atoms: C_21  and  C_23
REMARK    9  A    between atoms: N_25  and  C_26
REMARK   10  A    between atoms: C_27  and  C_35
REMARK                            x       y       z     vdW  Elec       q    Type
REMARK                         _______ _______ _______ _____ _____    ______ ____
ROOT
ATOM      1  C   UNL     1      -3.620  10.535  -6.168  0.00  0.00    +0.138 C 
ATOM      2  N   UNL     1      -3.392  10.223  -4.928  0.00  0.00    -0.187 NA
ENDROOT
BRANCH   1   6
ATOM      3  C   UNL     1      -4.693  14.513  -7.190  0.00  0.00    +0.132 A 
ATOM      4  C   UNL     1      -4.587  13.547  -8.183  0.00  0.00    +0.047 A 
ATOM      5  C   UNL     1      -4.239  12.255  -7.856  0.00  0.00    +0.013 A 
ATOM      6  C   UNL     1      -3.993  11.916  -6.523  0.00  0.00    -0.005 A 
ATOM      7  C   UNL     1      -4.105  12.890  -5.526  0.00  0.00    +0.013 A 
ATOM      8  C   UNL     1      -4.449  14.181  -5.864  0.00  0.00    +0.047 A 
BRANCH   3   9
ATOM      9  O   UNL     1      -5.036  15.786  -7.518  0.00  0.00    -0.422 OA
BRANCH   9  10
ATOM     10  C   UNL     1      -6.298  15.989  -7.943  0.00  0.00    +0.344 C 
ATOM     11  O   UNL     1      -7.101  15.078  -7.921  0.00  0.00    -0.245 OA
BRANCH  10  15
ATOM     12  C   UNL     1      -7.469  19.815  -9.362  0.00  0.00    +0.120 A 
ATOM     13  C   UNL     1      -8.389  18.774  -9.338  0.00  0.00    +0.046 A 
ATOM     14  C   UNL     1      -8.014  17.532  -8.878  0.00  0.00    +0.018 A 
ATOM     15  C   UNL     1      -6.705  17.318  -8.436  0.00  0.00    +0.060 A 
ATOM     16  C   UNL     1      -5.784  18.370  -8.457  0.00  0.00    +0.018 A 
ATOM     17  C   UNL     1      -6.167  19.608  -8.924  0.00  0.00    +0.046 A 
BRANCH  12  19
ATOM     18  C   UNL     1      -6.848  22.064  -9.815  0.00  0.00    +0.277 C 
ATOM     19  O   UNL     1      -7.843  21.038  -9.816  0.00  0.00    -0.495 OA
ENDBRANCH  12  19
ENDBRANCH  10  15
ENDBRANCH   9  10
ENDBRANCH   3   9
ENDBRANCH   1   6
BRANCH   2  20
ATOM     20  N   UNL     1      -3.038   8.910  -4.590  0.00  0.00    -0.199 N 
ATOM     21  C   UNL     1      -2.800   8.585  -3.304  0.00  0.00    +0.318 C 
ATOM     22  O   UNL     1      -2.893   9.431  -2.437  0.00  0.00    -0.263 OA
ATOM     23  H   UNL     1      -2.964   8.234  -5.283  0.00  0.00    +0.178 HD
BRANCH  21  24
ATOM     24  C   UNL     1      -2.424   7.189  -2.945  0.00  0.00    +0.305 C 
ATOM     25  O   UNL     1      -2.332   6.343  -3.812  0.00  0.00    -0.265 OA
ATOM     26  N   UNL     1      -2.187   6.864  -1.659  0.00  0.00    -0.271 N 
ATOM     27  H   UNL     1      -2.260   7.540  -0.967  0.00  0.00    +0.156 HD
BRANCH  26  28
ATOM     28  C   UNL     1      -1.837   5.566  -1.325  0.00  0.00    +0.090 A 
ATOM     29  C   UNL     1      -1.554   5.034  -0.073  0.00  0.00    +0.084 A 
ATOM     30  C   UNL     1      -1.210   3.625   0.003  0.00  0.00    -0.018 A 
ATOM     31  C   UNL     1      -1.196   2.949  -1.169  0.00  0.00    -0.004 A 
ATOM     32  S   UNL     1      -1.635   4.152  -2.393  0.00  0.00    -0.077 S 
ATOM     33  C   UNL     1      -0.877   1.500  -1.375  0.00  0.00    +0.043 C 
ATOM     34  C   UNL     1      -0.202   0.966  -0.104  0.00  0.00    +0.005 C 
ATOM     35  C   UNL     1      -1.020   1.409   1.113  0.00  0.00    +0.005 C 
ATOM     36  C   UNL     1      -0.880   2.917   1.314  0.00  0.00    +0.037 C 
BRANCH  29  37
ATOM     37  C   UNL     1      -1.601   5.848   1.104  0.00  0.00    +0.102 C 
ATOM     38  N   UNL     1      -1.638   6.494   2.038  0.00  0.00    -0.191 NA
ENDBRANCH  29  37
ENDBRANCH  26  28
ENDBRANCH  21  24
ENDBRANCH   2  20
TORSDOF 9
