REMARK  Name = ZINC37361034
REMARK  3 active torsions:
REMARK  status: ('A' for Active; 'I' for Inactive)
REMARK    1  A    between atoms: C_1  and  N_2
REMARK    2  A    between atoms: C_3  and  N_24
REMARK    3  A    between atoms: C_5  and  C_17
REMARK                            x       y       z     vdW  Elec       q    Type
REMARK                         _______ _______ _______ _____ _____    ______ ____
ROOT
ATOM      1  C   UNL     1      -1.048   1.180  -0.100  0.00  0.00    +0.174 C 
ATOM      2  N   UNL     1      -0.468  -0.164  -0.059  0.00  0.00    -0.251 N 
ATOM      3  C   UNL     1      -0.031  -0.850  -1.129  0.00  0.00    +0.126 A 
ATOM      4  C   UNL     1       0.444  -2.075  -0.677  0.00  0.00    +0.086 A 
ATOM      5  C   UNL     1       1.020  -3.219  -1.272  0.00  0.00    +0.089 A 
ATOM      6  N   UNL     1       1.360  -4.232  -0.486  0.00  0.00    -0.214 NA
ATOM      7  C   UNL     1       1.177  -4.199   0.830  0.00  0.00    +0.220 A 
ATOM      8  N   UNL     1       0.648  -3.175   1.466  0.00  0.00    -0.193 NA
ATOM      9  C   UNL     1       0.258  -2.079   0.785  0.00  0.00    +0.188 A 
ATOM     10  N   UNL     1      -0.280  -0.923   1.102  0.00  0.00    -0.149 NA
ATOM     11  N   UNL     1       1.562  -5.302   1.572  0.00  0.00    -0.300 N 
ATOM     12  C   UNL     1       2.163  -6.472   0.918  0.00  0.00    +0.108 C 
ATOM     13  C   UNL     1       3.495  -6.790   1.603  0.00  0.00    +0.019 C 
ATOM     14  C   UNL     1       3.264  -6.960   3.106  0.00  0.00    +0.003 C 
ATOM     15  C   UNL     1       2.719  -5.655   3.691  0.00  0.00    +0.019 C 
ATOM     16  C   UNL     1       1.383  -5.322   3.030  0.00  0.00    +0.108 C 
ENDROOT
BRANCH   5  17
ATOM     17  C   UNL     1       1.237  -3.287  -2.736  0.00  0.00    +0.004 A 
ATOM     18  C   UNL     1       1.798  -2.203  -3.411  0.00  0.00    +0.010 A 
ATOM     19  C   UNL     1       1.998  -2.270  -4.774  0.00  0.00    +0.003 A 
ATOM     20  C   UNL     1       1.644  -3.411  -5.473  0.00  0.00    +0.038 A 
ATOM     21  C   UNL     1       1.087  -4.491  -4.809  0.00  0.00    +0.124 A 
ATOM     22  C   UNL     1       0.887  -4.437  -3.442  0.00  0.00    +0.048 A 
ATOM     23  F   UNL     1       0.743  -5.602  -5.498  0.00  0.00    -0.205 F 
ENDBRANCH   5  17
BRANCH   3  24
ATOM     24  N   UNL     1      -0.052  -0.415  -2.442  0.00  0.00    -0.343 N 
ATOM     25  H   UNL     1      -0.147   0.530  -2.638  0.00  0.00    +0.144 HD
ATOM     26  H   UNL     1       0.027  -1.056  -3.166  0.00  0.00    +0.144 HD
ENDBRANCH   3  24
TORSDOF 2
