REMARK  Name = ZINC14552909
REMARK  9 active torsions:
REMARK  status: ('A' for Active; 'I' for Inactive)
REMARK    1  A    between atoms: C_1  and  C_2
REMARK    2  A    between atoms: C_7  and  C_8
REMARK    3  A    between atoms: N_10  and  C_11
REMARK    4  A    between atoms: C_14  and  N_17
REMARK    5  A    between atoms: N_17  and  C_18
REMARK    6  A    between atoms: C_18  and  N_20
REMARK    7  A    between atoms: C_21  and  C_23
REMARK    8  A    between atoms: C_24  and  C_25
REMARK    9  A    between atoms: C_28  and  N_31
REMARK                            x       y       z     vdW  Elec       q    Type
REMARK                         _______ _______ _______ _____ _____    ______ ____
ROOT
ATOM      1  N   UNL     1       0.438   2.224   8.394  0.00  0.00    -0.297 N 
ATOM      2  H   UNL     1      -0.349   2.709   8.685  0.00  0.00    +0.154 HD
ENDROOT
BRANCH   1   6
ATOM      3  C   UNL     1       0.396   0.172   4.764  0.00  0.00    +0.034 A 
ATOM      4  C   UNL     1      -0.171   1.437   4.854  0.00  0.00    +0.025 A 
ATOM      5  C   UNL     1      -0.163   2.113   6.057  0.00  0.00    +0.025 A 
ATOM      6  C   UNL     1       0.424   1.535   7.175  0.00  0.00    +0.033 A 
ATOM      7  C   UNL     1       0.997   0.273   7.084  0.00  0.00    +0.025 A 
ATOM      8  C   UNL     1       0.983  -0.406   5.882  0.00  0.00    +0.025 A 
BRANCH   3  11
ATOM      9  C   UNL     1      -0.679  -0.407   2.721  0.00  0.00    +0.249 C 
ATOM     10  O   UNL     1      -1.593   0.342   3.005  0.00  0.00    -0.270 OA
ATOM     11  N   UNL     1       0.382  -0.517   3.546  0.00  0.00    -0.281 N 
ATOM     12  H   UNL     1       1.135  -1.074   3.295  0.00  0.00    +0.155 HD
BRANCH   9  19
ATOM     13  C   UNL     1      -2.941  -0.122   0.941  0.00  0.00    +0.044 C 
ATOM     14  C   UNL     1      -1.816  -1.067   0.606  0.00  0.00    -0.038 A 
ATOM     15  C   UNL     1      -1.860  -1.811  -0.556  0.00  0.00    +0.004 A 
ATOM     16  C   UNL     1      -0.826  -2.675  -0.867  0.00  0.00    +0.000 A 
ATOM     17  C   UNL     1       0.255  -2.808  -0.012  0.00  0.00    +0.001 A 
ATOM     18  C   UNL     1       0.308  -2.074   1.155  0.00  0.00    +0.013 A 
ATOM     19  C   UNL     1      -0.730  -1.196   1.472  0.00  0.00    +0.040 A 
ENDBRANCH   9  19
ENDBRANCH   3  11
ENDBRANCH   1   6
BRANCH   1  20
ATOM     20  C   UNL     1       1.546   2.214   9.161  0.00  0.00    +0.141 C 
ATOM     21  S   UNL     1       2.981   1.480   8.583  0.00  0.00    -0.018 S 
BRANCH  20  22
ATOM     22  N   UNL     1       1.524   2.781  10.383  0.00  0.00    -0.264 N 
ATOM     23  C   UNL     1       2.632   2.770  11.151  0.00  0.00    +0.242 C 
ATOM     24  O   UNL     1       3.652   2.249  10.740  0.00  0.00    -0.270 OA
ATOM     25  H   UNL     1       0.712   3.197  10.711  0.00  0.00    +0.157 HD
BRANCH  23  26
ATOM     26  C   UNL     1       2.609   3.386  12.478  0.00  0.00    +0.068 C 
ATOM     27  C   UNL     1       3.717   3.376  13.246  0.00  0.00    +0.013 C 
BRANCH  27  28
ATOM     28  C   UNL     1       3.694   3.995  14.581  0.00  0.00    -0.025 A 
ATOM     29  C   UNL     1       2.526   4.601  15.054  0.00  0.00    +0.010 A 
ATOM     30  C   UNL     1       2.510   5.173  16.308  0.00  0.00    +0.033 A 
ATOM     31  C   UNL     1       3.649   5.160  17.093  0.00  0.00    +0.126 A 
ATOM     32  C   UNL     1       4.811   4.568  16.630  0.00  0.00    +0.033 A 
ATOM     33  C   UNL     1       4.841   3.986  15.380  0.00  0.00    +0.010 A 
BRANCH  31  34
ATOM     34  N   UNL     1       3.626   5.783  18.436  0.00  0.00    +0.056 N 
ATOM     35  O   UNL     1       4.627   5.774  19.129  0.00  0.00    -0.126 OA
ATOM     36  O   UNL     1       2.605   6.305  18.847  0.00  0.00    -0.126 OA
ENDBRANCH  31  34
ENDBRANCH  27  28
ENDBRANCH  23  26
ENDBRANCH  20  22
ENDBRANCH   1  20
TORSDOF 8
