REMARK  Name = ZINC44322345
REMARK  10 active torsions:
REMARK  status: ('A' for Active; 'I' for Inactive)
REMARK    1  A    between atoms: C_13  and  C_14
REMARK    2  A    between atoms: C_14  and  O_15
REMARK    3  A    between atoms: O_15  and  C_16
REMARK    4  A    between atoms: N_18  and  CA_19
REMARK    5  A    between atoms: CA_19  and  C_21
REMARK    6  A    between atoms: CA_19  and  C_36
REMARK    7  A    between atoms: C_21  and  C_22
REMARK    8  A    between atoms: C_25  and  C_27
REMARK    9  A    between atoms: C_27  and  N_28
REMARK   10  A    between atoms: C_30  and  N_33
REMARK                            x       y       z     vdW  Elec       q    Type
REMARK                         _______ _______ _______ _____ _____    ______ ____
ROOT
ATOM      1  C   UNL     1       6.379  -1.577  -2.289  0.00  0.00    +0.401 C 
ATOM      2  O   UNL     1       6.162  -0.826  -3.219  0.00  0.00    -0.226 OA
ATOM      3  N   UNL     1       7.473  -2.366  -2.301  0.00  0.00    -0.267 N 
ATOM      4  H   UNL     1       7.646  -2.965  -1.559  0.00  0.00    +0.153 HD
ENDROOT
BRANCH   1   5
ATOM      5  O   UNL     1       5.529  -1.622  -1.247  0.00  0.00    -0.449 OA
BRANCH   5   6
ATOM      6  C   UNL     1       4.391  -0.759  -1.300  0.00  0.00    +0.246 C 
BRANCH   6  19
ATOM      7  C   UNL     1      -0.017   1.375   0.010  0.00  0.00    +0.001 A 
ATOM      8  C   UNL     1       1.169   2.088   0.002  0.00  0.00    +0.000 A 
ATOM      9  C   UNL     1       2.380   1.420  -0.013  0.00  0.00    +0.005 A 
ATOM     10  C   UNL     1       2.408   0.042  -0.021  0.00  0.00    -0.029 A 
ATOM     11  C   UNL     1       1.221  -0.685  -0.013  0.00  0.00    -0.014 A 
ATOM     12  C   UNL     1       0.002  -0.004   0.002  0.00  0.00    +0.009 A 
ATOM     13  C   UNL     1       1.530  -2.136  -0.025  0.00  0.00    -0.014 A 
ATOM     14  C   UNL     1       0.694  -3.254  -0.023  0.00  0.00    +0.009 A 
ATOM     15  C   UNL     1       1.238  -4.521  -0.035  0.00  0.00    +0.001 A 
ATOM     16  C   UNL     1       2.611  -4.690  -0.050  0.00  0.00    +0.000 A 
ATOM     17  C   UNL     1       3.445  -3.587  -0.052  0.00  0.00    +0.005 A 
ATOM     18  C   UNL     1       2.910  -2.316  -0.040  0.00  0.00    -0.029 A 
ATOM     19  C   UNL     1       3.547  -0.948  -0.038  0.00  0.00    +0.088 C 
ENDBRANCH   6  19
ENDBRANCH   5   6
ENDBRANCH   1   5
BRANCH   3  20
ATOM     20  CA  UNL     1       8.398  -2.317  -3.436  0.00  0.00    +0.196 C 
BRANCH  20  21
ATOM     21  C   UNL     1       9.386  -1.197  -3.231  0.00  0.00    +0.376 C 
ATOM     22  O   UNL     1       9.709  -0.868  -2.102  0.00  0.00    -0.244 OA
ATOM     23  OXT UNL     1       9.861  -0.620  -4.194  0.00  0.00    -0.244 OA
ENDBRANCH  20  21
BRANCH  20  24
ATOM     24  C   UNL     1       9.149  -3.646  -3.538  0.00  0.00    +0.108 C 
BRANCH  24  25
ATOM     25  C   UNL     1       8.175  -4.749  -3.865  0.00  0.00    +0.108 A 
ATOM     26  C   UNL     1       7.832  -5.155  -5.101  0.00  0.00    +0.045 A 
ATOM     27  C   UNL     1       6.898  -6.205  -4.943  0.00  0.00    +0.047 A 
ATOM     28  C   UNL     1       6.727  -6.378  -3.620  0.00  0.00    +0.126 A 
ATOM     29  O   UNL     1       7.507  -5.497  -2.972  0.00  0.00    -0.463 OA
BRANCH  28  30
ATOM     30  C   UNL     1       5.818  -7.392  -2.974  0.00  0.00    +0.217 C 
BRANCH  30  31
ATOM     31  N   UNL     1       6.556  -8.637  -2.751  0.00  0.00    -0.262 N 
ATOM     32  C   UNL     1       6.688  -9.282  -1.573  0.00  0.00    +0.141 A 
ATOM     33  C   UNL     1       7.439 -10.386  -1.789  0.00  0.00    +0.163 A 
ATOM     34  C   UNL     1       7.779 -10.418  -3.146  0.00  0.00    +0.167 A 
ATOM     35  N   UNL     1       7.245  -9.373  -3.725  0.00  0.00    -0.177 NA
BRANCH  33  36
ATOM     36  N   UNL     1       7.834 -11.384  -0.769  0.00  0.00    +0.059 N 
ATOM     37  O   UNL     1       7.478 -11.249   0.378  0.00  0.00    -0.126 OA
ATOM     38  O   UNL     1       8.511 -12.335  -1.084  0.00  0.00    -0.126 OA
ENDBRANCH  33  36
ENDBRANCH  30  31
ENDBRANCH  28  30
ENDBRANCH  24  25
ENDBRANCH  20  24
ENDBRANCH   3  20
TORSDOF 10
