REMARK  Name = ZINC11084830
REMARK  5 active torsions:
REMARK  status: ('A' for Active; 'I' for Inactive)
REMARK    1  A    between atoms: C_7  and  C_11
REMARK    2  A    between atoms: N_14  and  C_17
REMARK    3  A    between atoms: C_17  and  N_19
REMARK    4  A    between atoms: N_19  and  C_20
REMARK    5  A    between atoms: C_22  and  N_27
REMARK                            x       y       z     vdW  Elec       q    Type
REMARK                         _______ _______ _______ _____ _____    ______ ____
ROOT
ATOM      1  C   UNL     1      -8.133  -1.977   1.179  0.00  0.00    -0.039 C 
ATOM      2  C   UNL     1      -8.345  -0.813   0.610  0.00  0.00    -0.004 C 
ATOM      3  C   UNL     1      -7.343  -0.132  -0.280  0.00  0.00    +0.134 C 
ATOM      4  N   UNL     1      -6.053  -0.830  -0.178  0.00  0.00    -0.308 N 
ATOM      5  C   UNL     1      -6.079  -2.303  -0.197  0.00  0.00    +0.112 C 
ATOM      6  C   UNL     1      -6.868  -2.772   1.035  0.00  0.00    +0.054 C 
ENDROOT
BRANCH   1  13
ATOM      7  C   UNL     1      -9.706  -0.967   5.464  0.00  0.00    +0.001 A 
ATOM      8  C   UNL     1     -10.763  -1.780   5.851  0.00  0.00    +0.002 A 
ATOM      9  C   UNL     1     -11.241  -2.758   5.007  0.00  0.00    +0.026 A 
ATOM     10  C   UNL     1     -10.661  -2.935   3.754  0.00  0.00    +0.047 A 
ATOM     11  C   UNL     1      -9.592  -2.108   3.369  0.00  0.00    +0.007 A 
ATOM     12  C   UNL     1      -9.123  -1.124   4.238  0.00  0.00    +0.010 A 
ATOM     13  C   UNL     1      -9.210  -2.542   2.014  0.00  0.00    +0.003 A 
ATOM     14  C   UNL     1     -10.046  -3.559   1.682  0.00  0.00    +0.091 A 
ATOM     15  N   UNL     1     -10.907  -3.803   2.712  0.00  0.00    -0.360 N 
ATOM     16  H   UNL     1     -11.595  -4.486   2.710  0.00  0.00    +0.165 HD
ENDBRANCH   1  13
BRANCH   4  17
ATOM     17  C   UNL     1      -4.894  -0.151  -0.078  0.00  0.00    +0.137 C 
ATOM     18  S   UNL     1      -3.404  -0.994  -0.091  0.00  0.00    -0.018 S 
BRANCH  17  19
ATOM     19  N   UNL     1      -4.907   1.192   0.032  0.00  0.00    -0.296 N 
ATOM     20  H   UNL     1      -5.752   1.664   0.108  0.00  0.00    +0.154 HD
BRANCH  19  21
ATOM     21  C   UNL     1      -3.704   1.906   0.038  0.00  0.00    +0.053 A 
ATOM     22  C   UNL     1      -2.648   1.484   0.836  0.00  0.00    +0.057 A 
ATOM     23  C   UNL     1      -1.461   2.190   0.839  0.00  0.00    +0.128 A 
ATOM     24  C   UNL     1      -1.325   3.320   0.053  0.00  0.00    +0.034 A 
ATOM     25  C   UNL     1      -2.371   3.741  -0.747  0.00  0.00    +0.024 A 
ATOM     26  C   UNL     1      -3.562   3.039  -0.754  0.00  0.00    +0.062 A 
ATOM     27 CL   UNL     1      -4.878   3.571  -1.754  0.00  0.00    -0.082 Cl
BRANCH  23  28
ATOM     28  N   UNL     1      -0.336   1.741   1.689  0.00  0.00    +0.056 N 
ATOM     29  O   UNL     1      -0.457   0.749   2.385  0.00  0.00    -0.126 OA
ATOM     30  O   UNL     1       0.713   2.360   1.689  0.00  0.00    -0.126 OA
ENDBRANCH  23  28
ENDBRANCH  19  21
ENDBRANCH  17  19
ENDBRANCH   4  17
TORSDOF 5
