REMARK  Name = ZINC45445413
REMARK  4 active torsions:
REMARK  status: ('A' for Active; 'I' for Inactive)
REMARK    1  A    between atoms: C_1  and  C_2
REMARK    2  A    between atoms: C_9  and  C_11
REMARK    3  A    between atoms: C_15  and  C_22
REMARK    4  A    between atoms: C_19  and  C_21
REMARK                            x       y       z     vdW  Elec       q    Type
REMARK                         _______ _______ _______ _____ _____    ______ ____
ROOT
ATOM      1  C   UNL     1      -2.183   0.746  -0.028  0.00  0.00    +0.008 C 
ATOM      2  C   UNL     1      -1.554  -0.647  -0.097  0.00  0.00    -0.009 C 
ATOM      3  C   UNL     1      -0.419  -0.643  -1.125  0.00  0.00    +0.009 C 
ATOM      4  C   UNL     1       0.020  -2.091  -1.382  0.00  0.00    +0.043 C 
ATOM      5  C   UNL     1       0.214  -2.771  -0.058  0.00  0.00    -0.006 A 
ATOM      6  C   UNL     1      -0.225  -2.332   1.156  0.00  0.00    -0.036 A 
ATOM      7  C   UNL     1       0.074  -3.128   2.252  0.00  0.00    +0.024 A 
ATOM      8  C   UNL     1       0.786  -4.287   2.005  0.00  0.00    +0.075 A 
ATOM      9  S   UNL     1       1.007  -4.210   0.237  0.00  0.00    -0.088 S 
ATOM     10  C   UNL     1      -1.004  -1.025   1.279  0.00  0.00    +0.039 C 
ENDROOT
BRANCH   8  11
ATOM     11  C   UNL     1       1.240  -5.312   2.950  0.00  0.00    +0.254 C 
ATOM     12  O   UNL     1       1.483  -5.011   4.104  0.00  0.00    -0.269 OA
ATOM     13  N   UNL     1       1.390  -6.587   2.540  0.00  0.00    -0.290 N 
ATOM     14  C   UNL     1       1.176  -6.961   1.133  0.00  0.00    +0.139 C 
ATOM     15  C   UNL     1       0.223  -8.161   1.091  0.00  0.00    +0.133 C 
ATOM     16  O   UNL     1       0.720  -9.188   1.952  0.00  0.00    -0.373 OA
ATOM     17  C   UNL     1       0.790  -8.813   3.330  0.00  0.00    +0.182 C 
ATOM     18  C   UNL     1       1.778  -7.646   3.486  0.00  0.00    +0.099 C 
ATOM     19  C   UNL     1       1.719  -7.106   4.916  0.00  0.00    +0.030 C 
ATOM     20  C   UNL     1       0.133  -8.692  -0.341  0.00  0.00    +0.039 C 
ENDBRANCH   8  11
TORSDOF 1
