REMARK  Name = ZINC09614648
REMARK  1 active torsions:
REMARK  status: ('A' for Active; 'I' for Inactive)
REMARK    1  A    between atoms: C_5  and  N_7
REMARK                            x       y       z     vdW  Elec       q    Type
REMARK                         _______ _______ _______ _____ _____    ______ ____
ROOT
ATOM      1  N   UNL     1      -3.659  -1.583  -1.072  0.00  0.00    -0.325 N 
ATOM      2  C   UNL     1      -3.626  -0.581   0.003  0.00  0.00    +0.124 C 
ATOM      3  C   UNL     1      -2.325   0.221  -0.091  0.00  0.00    +0.127 C 
ATOM      4  N   UNL     1      -1.180  -0.695   0.011  0.00  0.00    -0.298 N 
ATOM      5  C   UNL     1      -1.213  -1.697  -1.063  0.00  0.00    +0.127 C 
ATOM      6  C   UNL     1      -2.513  -2.498  -0.970  0.00  0.00    +0.124 C 
ATOM      7  C   UNL     1       0.002  -0.004   0.002  0.00  0.00    +0.199 A 
ATOM      8  N   UNL     1       1.178  -0.689  -0.015  0.00  0.00    -0.295 N 
ATOM      9  H   UNL     1       1.179  -1.659  -0.024  0.00  0.00    +0.172 HD
ATOM     10  C   UNL     1       2.342  -0.008  -0.019  0.00  0.00    +0.256 A 
ATOM     11  O   UNL     1       3.406  -0.605  -0.034  0.00  0.00    -0.267 OA
ATOM     12  C   UNL     1       2.313   1.403  -0.006  0.00  0.00    +0.038 A 
ATOM     13  C   UNL     1       1.111   2.034   0.002  0.00  0.00    +0.053 A 
ATOM     14  N   UNL     1      -0.016   1.311   0.009  0.00  0.00    -0.220 NA
ATOM     15  C   UNL     1       0.981   3.535  -0.004  0.00  0.00    +0.056 C 
ATOM     16  C   UNL     1       2.293   4.189   0.426  0.00  0.00    +0.006 C 
ATOM     17  C   UNL     1       3.429   3.594  -0.415  0.00  0.00    +0.005 C 
ATOM     18  C   UNL     1       3.625   2.138   0.004  0.00  0.00    +0.042 C 
ENDROOT
BRANCH   1  23
ATOM     19  C   UNL     1      -7.259  -2.312  -1.218  0.00  0.00    +0.002 A 
ATOM     20  C   UNL     1      -7.257  -3.684  -1.042  0.00  0.00    +0.003 A 
ATOM     21  C   UNL     1      -6.063  -4.361  -0.876  0.00  0.00    +0.040 A 
ATOM     22  C   UNL     1      -4.866  -3.668  -0.886  0.00  0.00    +0.144 A 
ATOM     23  C   UNL     1      -4.866  -2.288  -1.062  0.00  0.00    +0.065 A 
ATOM     24  C   UNL     1      -6.068  -1.613  -1.224  0.00  0.00    +0.026 A 
ATOM     25  F   UNL     1      -3.700  -4.330  -0.723  0.00  0.00    -0.204 F 
ENDBRANCH   1  23
TORSDOF 1
