REMARK  Name = ZINC05821192
REMARK  27 active torsions:
REMARK  status: ('A' for Active; 'I' for Inactive)
REMARK    1  A    between atoms: C_1  and  C_2
REMARK    2  A    between atoms: C_2  and  C_3
REMARK    3  A    between atoms: C_3  and  C_4
REMARK    4  A    between atoms: C_4  and  N_5
REMARK    5  A    between atoms: N_5  and  C_6
REMARK    6  A    between atoms: N_5  and  P_10
REMARK    7  A    between atoms: C_6  and  C_7
REMARK    8  A    between atoms: C_7  and  C_8
REMARK    9  A    between atoms: C_8  and  C_9
REMARK   10  A    between atoms: P_10  and  N_12
REMARK   11  A    between atoms: P_10  and  N_21
REMARK   12  A    between atoms: N_12  and  C_13
REMARK   13  A    between atoms: N_12  and  C_17
REMARK   14  A    between atoms: C_13  and  C_14
REMARK   15  A    between atoms: C_14  and  C_15
REMARK   16  A    between atoms: C_15  and  C_16
REMARK   17  A    between atoms: C_17  and  C_18
REMARK   18  A    between atoms: C_18  and  C_19
REMARK   19  A    between atoms: C_19  and  C_20
REMARK   20  A    between atoms: N_21  and  C_22
REMARK   21  A    between atoms: N_21  and  C_26
REMARK   22  A    between atoms: C_22  and  C_23
REMARK   23  A    between atoms: C_23  and  C_24
REMARK   24  A    between atoms: C_24  and  C_25
REMARK   25  A    between atoms: C_26  and  C_27
REMARK   26  A    between atoms: C_27  and  C_28
REMARK   27  A    between atoms: C_28  and  C_29
REMARK                            x       y       z     vdW  Elec       q    Type
REMARK                         _______ _______ _______ _____ _____    ______ ____
ROOT
ATOM      1  P   UNL     1       2.466  -3.256   2.221  0.00  0.00    +0.128 P 
ATOM      2  S   UNL     1       3.462  -3.044   3.782  0.00  0.00    -0.017 S 
ENDROOT
BRANCH   1   3
ATOM      3  N   UNL     1       2.635  -4.791   1.668  0.00  0.00    -0.254 NA
BRANCH   3   4
ATOM      4  C   UNL     1       2.274  -5.115   0.286  0.00  0.00    +0.091 C 
BRANCH   4   5
ATOM      5  C   UNL     1       3.546  -5.274  -0.549  0.00  0.00    +0.015 C 
BRANCH   5   6
ATOM      6  C   UNL     1       3.168  -5.614  -1.993  0.00  0.00    -0.002 C 
ATOM      7  C   UNL     1       4.440  -5.773  -2.829  0.00  0.00    +0.004 C 
ENDBRANCH   5   6
ENDBRANCH   4   5
ENDBRANCH   3   4
BRANCH   3   8
ATOM      8  C   UNL     1       3.148  -5.837   2.556  0.00  0.00    +0.091 C 
BRANCH   8   9
ATOM      9  C   UNL     1       1.993  -6.729   3.015  0.00  0.00    +0.015 C 
BRANCH   9  10
ATOM     10  C   UNL     1       2.507  -7.743   4.038  0.00  0.00    -0.002 C 
ATOM     11  C   UNL     1       1.351  -8.635   4.496  0.00  0.00    +0.004 C 
ENDBRANCH   9  10
ENDBRANCH   8   9
ENDBRANCH   3   8
ENDBRANCH   1   3
BRANCH   1  12
ATOM     12  N   UNL     1       0.884  -2.961   2.538  0.00  0.00    -0.254 NA
BRANCH  12  13
ATOM     13  C   UNL     1      -0.157  -3.600   1.729  0.00  0.00    +0.091 C 
BRANCH  13  14
ATOM     14  C   UNL     1      -0.813  -2.555   0.824  0.00  0.00    +0.015 C 
BRANCH  14  15
ATOM     15  C   UNL     1      -1.990  -3.190   0.082  0.00  0.00    -0.002 C 
ATOM     16  C   UNL     1      -2.576  -2.178  -0.905  0.00  0.00    +0.004 C 
ENDBRANCH  14  15
ENDBRANCH  13  14
ENDBRANCH  12  13
BRANCH  12  17
ATOM     17  C   UNL     1       0.511  -2.059   3.631  0.00  0.00    +0.091 C 
BRANCH  17  18
ATOM     18  C   UNL     1       0.013  -2.879   4.822  0.00  0.00    +0.015 C 
BRANCH  18  20
ATOM     19  C   UNL     1      -1.099  -2.755   7.056  0.00  0.00    +0.004 C 
ATOM     20  C   UNL     1      -0.489  -1.935   5.917  0.00  0.00    -0.002 C 
ENDBRANCH  18  20
ENDBRANCH  17  18
ENDBRANCH  12  17
ENDBRANCH   1  12
BRANCH   1  21
ATOM     21  N   UNL     1       3.001  -2.203   1.084  0.00  0.00    -0.254 NA
BRANCH  21  22
ATOM     22  C   UNL     1       4.289  -1.527   1.260  0.00  0.00    +0.091 C 
BRANCH  22  23
ATOM     23  C   UNL     1       5.332  -2.172   0.346  0.00  0.00    +0.015 C 
BRANCH  23  24
ATOM     24  C   UNL     1       6.643  -1.388   0.435  0.00  0.00    -0.002 C 
ATOM     25  C   UNL     1       7.647  -1.958  -0.569  0.00  0.00    +0.004 C 
ENDBRANCH  23  24
ENDBRANCH  22  23
ENDBRANCH  21  22
BRANCH  21  26
ATOM     26  C   UNL     1       2.191  -1.938  -0.108  0.00  0.00    +0.091 C 
BRANCH  26  27
ATOM     27  C   UNL     1       1.546  -0.555   0.011  0.00  0.00    +0.015 C 
BRANCH  27  28
ATOM     28  C   UNL     1       0.808  -0.224  -1.287  0.00  0.00    -0.002 C 
ATOM     29  C   UNL     1       0.262   1.204  -1.214  0.00  0.00    +0.004 C 
ENDBRANCH  27  28
ENDBRANCH  26  27
ENDBRANCH  21  26
ENDBRANCH   1  21
TORSDOF 21
