REMARK  Name = ZINC36053967
REMARK  10 active torsions:
REMARK  status: ('A' for Active; 'I' for Inactive)
REMARK    1  A    between atoms: C_1  and  C_2
REMARK    2  A    between atoms: C_5  and  C_9
REMARK    3  A    between atoms: C_6  and  C_8
REMARK    4  A    between atoms: C_9  and  N_10
REMARK    5  A    between atoms: N_10  and  C_11
REMARK    6  A    between atoms: N_10  and  C_22
REMARK    7  A    between atoms: C_11  and  C_12
REMARK    8  A    between atoms: C_16  and  C_18
REMARK    9  A    between atoms: C_22  and  C_23
REMARK   10  A    between atoms: C_25  and  C_28
REMARK                            x       y       z     vdW  Elec       q    Type
REMARK                         _______ _______ _______ _____ _____    ______ ____
ROOT
ATOM      1  N   UNK     1      -1.431  -4.679   0.415  0.00  0.00    +0.391 N 
ATOM      2  H   UNK     1      -2.045  -4.311   1.127  0.00  0.00    -0.080 HD
ENDROOT
BRANCH   1   3
ATOM      3  C   UNK     1      -0.168  -3.929   0.422  0.00  0.00    -0.042 C 
BRANCH   3   8
ATOM      4  C   UNK     1      -1.278   1.710  -0.186  0.00  0.00    +0.044 C 
ATOM      5  C   UNK     1      -0.989   0.239  -0.027  0.00  0.00    -0.050 A 
ATOM      6  C   UNK     1      -0.578  -0.506  -1.117  0.00  0.00    +0.003 A 
ATOM      7  C   UNK     1      -0.313  -1.854  -0.972  0.00  0.00    +0.002 A 
ATOM      8  C   UNK     1      -0.457  -2.458   0.264  0.00  0.00    -0.061 A 
ATOM      9  C   UNK     1      -0.866  -1.713   1.354  0.00  0.00    -0.049 A 
ATOM     10  C   UNK     1      -1.127  -0.363   1.209  0.00  0.00    +0.007 A 
ATOM     11  C   UNK     1      -1.023  -2.371   2.700  0.00  0.00    +0.044 C 
ENDBRANCH   3   8
ENDBRANCH   1   3
BRANCH   1  12
ATOM     12  C   UNK     1      -2.071  -4.548  -0.900  0.00  0.00    -0.042 C 
BRANCH  12  13
ATOM     13  C   UNK     1      -3.428  -5.203  -0.865  0.00  0.00    -0.063 A 
ATOM     14  C   UNK     1      -3.579  -6.505  -1.304  0.00  0.00    +0.002 A 
ATOM     15  C   UNK     1      -4.824  -7.105  -1.272  0.00  0.00    +0.001 A 
ATOM     16  C   UNK     1      -5.918  -6.403  -0.801  0.00  0.00    +0.012 A 
ATOM     17  C   UNK     1      -5.767  -5.101  -0.362  0.00  0.00    +0.055 A 
ATOM     18  C   UNK     1      -4.521  -4.502  -0.390  0.00  0.00    +0.014 A 
BRANCH  17  19
ATOM     19  C   UNK     1      -6.960  -4.336   0.150  0.00  0.00    +0.417 C 
ATOM     20  F   UNK     1      -8.098  -5.147   0.084  0.00  0.00    -0.166 F 
ATOM     21  F   UNK     1      -6.734  -3.956   1.478  0.00  0.00    -0.166 F 
ATOM     22  F   UNK     1      -7.154  -3.195  -0.635  0.00  0.00    -0.166 F 
ENDBRANCH  17  19
ENDBRANCH  12  13
ENDBRANCH   1  12
BRANCH   1  23
ATOM     23  C   UNK     1      -1.159  -6.097   0.689  0.00  0.00    +0.018 C 
BRANCH  23  24
ATOM     24  C   UNK     1      -0.615  -6.243   2.087  0.00  0.00    +0.158 A 
ATOM     25  N   UNK     1      -1.331  -6.332   3.167  0.00  0.00    -0.323 N 
ATOM     26  C   UNK     1      -0.491  -6.453   4.232  0.00  0.00    +0.166 A 
ATOM     27  C   UNK     1       0.781  -6.433   3.742  0.00  0.00    +0.230 A 
ATOM     28  O   UNK     1       0.685  -6.309   2.410  0.00  0.00    -0.451 OA
ATOM     29  H   UNK     1      -2.300  -6.314   3.208  0.00  0.00    +0.169 HD
BRANCH  26  30
ATOM     30  C   UNK     1      -0.882  -6.580   5.643  0.00  0.00    +0.406 C 
ATOM     31  O   UNK     1      -2.064  -6.678   5.944  0.00  0.00    -0.239 OA
ATOM     32  O   UNK     1      -0.026  -6.587   6.517  0.00  0.00    -0.239 OA
ENDBRANCH  26  30
ENDBRANCH  23  24
ENDBRANCH   1  23
TORSDOF 8
