REMARK  Name = ZINC16311179
REMARK  7 active torsions:
REMARK  status: ('A' for Active; 'I' for Inactive)
REMARK    1  A    between atoms: C_1  and  C_2
REMARK    2  A    between atoms: C_5  and  C_8
REMARK    3  A    between atoms: C_10  and  S_21
REMARK    4  A    between atoms: C_11  and  N_13
REMARK    5  A    between atoms: N_13  and  C_14
REMARK    6  A    between atoms: S_21  and  C_22
REMARK    7  A    between atoms: C_22  and  C_24
REMARK                            x       y       z     vdW  Elec       q    Type
REMARK                         _______ _______ _______ _____ _____    ______ ____
ROOT
ATOM      1  C   UNL     1       1.740  -0.202   0.488  0.00  0.00    +0.111 A 
ATOM      2  N   UNL     1       2.161   1.046   0.337  0.00  0.00    -0.230 NA
ATOM      3  C   UNL     1       1.315   2.040   0.181  0.00  0.00    +0.134 A 
ATOM      4  C   UNL     1      -0.034   1.782   0.174  0.00  0.00    +0.104 A 
ATOM      5  S   UNL     1      -0.033   0.009   0.407  0.00  0.00    -0.051 S 
ENDROOT
BRANCH   1  10
ATOM      6  C   UNL     1       4.806  -5.016   1.210  0.00  0.00    +0.044 C 
ATOM      7  C   UNL     1       4.003  -3.755   1.021  0.00  0.00    -0.050 A 
ATOM      8  C   UNL     1       4.651  -2.541   0.881  0.00  0.00    +0.004 A 
ATOM      9  C   UNL     1       3.922  -1.382   0.708  0.00  0.00    +0.011 A 
ATOM     10  C   UNL     1       2.527  -1.438   0.673  0.00  0.00    +0.007 A 
ATOM     11  C   UNL     1       1.880  -2.666   0.820  0.00  0.00    +0.011 A 
ATOM     12  C   UNL     1       2.621  -3.817   0.987  0.00  0.00    +0.004 A 
ENDBRANCH   1  10
BRANCH   4  13
ATOM     13  N   UNL     1      -1.109   2.661   0.022  0.00  0.00    -0.307 N 
ATOM     14  H   UNL     1      -0.952   3.617  -0.014  0.00  0.00    +0.153 HD
BRANCH  13  15
ATOM     15  C   UNL     1      -2.409   2.162  -0.079  0.00  0.00    +0.032 A 
ATOM     16  C   UNL     1      -2.640   0.939  -0.696  0.00  0.00    +0.024 A 
ATOM     17  C   UNL     1      -3.926   0.445  -0.788  0.00  0.00    +0.017 A 
ATOM     18  C   UNL     1      -4.987   1.174  -0.279  0.00  0.00    +0.018 A 
ATOM     19  C   UNL     1      -4.761   2.396   0.330  0.00  0.00    +0.017 A 
ATOM     20  C   UNL     1      -3.476   2.892   0.431  0.00  0.00    +0.024 A 
ATOM     21 BR   UNL     1      -6.748   0.499  -0.416  0.00  0.00    -0.050 Br
ENDBRANCH  13  15
ENDBRANCH   4  13
BRANCH   3  22
ATOM     22  S   UNL     1       1.906   3.688  -0.017  0.00  0.00    -0.025 S 
BRANCH  22  23
ATOM     23  C   UNL     1       3.643   3.403   0.073  0.00  0.00    +0.226 C 
ATOM     24  O   UNL     1       4.066   2.274   0.233  0.00  0.00    -0.279 OA
BRANCH  23  25
ATOM     25  C   UNL     1       4.584   4.535  -0.048  0.00  0.00    +0.029 A 
ATOM     26  C   UNL     1       4.102   5.832  -0.238  0.00  0.00    +0.012 A 
ATOM     27  C   UNL     1       4.986   6.885  -0.343  0.00  0.00    +0.001 A 
ATOM     28  C   UNL     1       6.349   6.658  -0.272  0.00  0.00    +0.000 A 
ATOM     29  C   UNL     1       6.834   5.375  -0.090  0.00  0.00    +0.001 A 
ATOM     30  C   UNL     1       5.961   4.313   0.023  0.00  0.00    +0.012 A 
ENDBRANCH  23  25
ENDBRANCH  22  23
ENDBRANCH   3  22
TORSDOF 6
