REMARK  Name = ZINC06409787
REMARK  12 active torsions:
REMARK  status: ('A' for Active; 'I' for Inactive)
REMARK    1  A    between atoms: C_1  and  C_2
REMARK    2  A    between atoms: C_7  and  C_14
REMARK    3  A    between atoms: C_14  and  C_16
REMARK    4  A    between atoms: C_14  and  N_66
REMARK    5  A    between atoms: N_20  and  C_21
REMARK    6  A    between atoms: C_21  and  C_22
REMARK    7  A    between atoms: C_21  and  C_23
REMARK    8  A    between atoms: C_21  and  C_24
REMARK    9  A    between atoms: C_25  and  C_26
REMARK   10  A    between atoms: C_25  and  N_66
REMARK   11  A    between atoms: C_33  and  C_34
REMARK   12  A    between atoms: C_33  and  N_66
REMARK                            x       y       z     vdW  Elec       q    Type
REMARK                         _______ _______ _______ _____ _____    ______ ____
ROOT
ATOM      1  C   UNL     1       3.535   1.080   0.238  0.00  0.00    +0.040 C 
ENDROOT
BRANCH   1   8
ATOM      2  C   UNL     1      -4.135   3.216   0.710  0.00  0.00    +0.044 C 
ATOM      3  C   UNL     1      -2.767   2.598   0.575  0.00  0.00    -0.048 A 
ATOM      4  C   UNL     1      -2.650   1.247   0.278  0.00  0.00    +0.004 A 
ATOM      5  C   UNL     1      -1.420   0.666   0.158  0.00  0.00    +0.010 A 
ATOM      6  C   UNL     1      -0.267   1.442   0.323  0.00  0.00    -0.001 A 
ATOM      7  C   UNL     1       1.067   0.853   0.195  0.00  0.00    +0.017 A 
ATOM      8  C   UNL     1       2.148   1.654   0.364  0.00  0.00    +0.011 A 
ATOM      9  C   UNL     1       1.978   3.024   0.659  0.00  0.00    +0.251 A 
ATOM     10  O   UNL     1       2.962   3.726   0.809  0.00  0.00    -0.268 OA
ATOM     11  N   UNL     1       0.756   3.573   0.780  0.00  0.00    -0.322 N 
ATOM     12  H   UNL     1       0.675   4.518   0.984  0.00  0.00    +0.169 HD
ATOM     13  C   UNL     1      -0.382   2.813   0.618  0.00  0.00    +0.049 A 
ATOM     14  C   UNL     1      -1.646   3.381   0.742  0.00  0.00    +0.029 A 
ENDBRANCH   1   8
BRANCH   1  15
ATOM     15  C   UNL     1       4.229   1.700  -0.947  0.00  0.00    +0.143 A 
ATOM     16  N   UNL     1       4.741   2.905  -1.012  0.00  0.00    -0.115 NA
ATOM     17  N   UNL     1       5.246   3.061  -2.187  0.00  0.00    -0.023 NA
ATOM     18  N   UNL     1       5.063   1.989  -2.876  0.00  0.00    -0.043 NA
ATOM     19  N   UNL     1       4.439   1.127  -2.147  0.00  0.00    -0.225 N 
BRANCH  19  20
ATOM     20  C   UNL     1       4.036  -0.224  -2.548  0.00  0.00    +0.059 C 
ATOM     21  C   UNL     1       2.533  -0.395  -2.321  0.00  0.00    +0.036 C 
ATOM     22  C   UNL     1       4.356  -0.432  -4.030  0.00  0.00    +0.036 C 
ATOM     23  C   UNL     1       4.799  -1.253  -1.712  0.00  0.00    +0.036 C 
ENDBRANCH  19  20
ENDBRANCH   1  15
BRANCH   1  24
ATOM     24  N   UNL     1       4.304   1.398   1.459  0.00  0.00    +0.397 N 
ATOM     25  H   UNL     1       4.520   2.402   1.466  0.00  0.00    -0.079 HD
BRANCH  24  26
ATOM     26  C   UNL     1       5.570   0.635   1.472  0.00  0.00    -0.041 C 
BRANCH  26  27
ATOM     27  C   UNL     1       6.600   1.399   0.681  0.00  0.00    -0.064 A 
ATOM     28  C   UNL     1       6.873   1.041  -0.626  0.00  0.00    +0.004 A 
ATOM     29  C   UNL     1       7.814   1.744  -1.354  0.00  0.00    +0.038 A 
ATOM     30  C   UNL     1       8.491   2.801  -0.770  0.00  0.00    +0.123 A 
ATOM     31  C   UNL     1       8.220   3.156   0.540  0.00  0.00    +0.038 A 
ATOM     32  C   UNL     1       7.275   2.455   1.265  0.00  0.00    +0.004 A 
ATOM     33  F   UNL     1       9.414   3.487  -1.480  0.00  0.00    -0.205 F 
ENDBRANCH  26  27
ENDBRANCH  24  26
BRANCH  24  34
ATOM     34  C   UNL     1       3.505   1.071   2.659  0.00  0.00    -0.001 C 
BRANCH  34  35
ATOM     35  C   UNL     1       4.132   1.739   3.855  0.00  0.00    +0.089 A 
ATOM     36  C   UNL     1       3.823   2.960   4.326  0.00  0.00    +0.042 A 
ATOM     37  C   UNL     1       4.647   3.186   5.452  0.00  0.00    +0.041 A 
ATOM     38  C   UNL     1       5.410   2.089   5.603  0.00  0.00    +0.195 A 
ATOM     39  O   UNL     1       5.090   1.213   4.636  0.00  0.00    -0.470 OA
ENDBRANCH  34  35
ENDBRANCH  24  34
ENDBRANCH   1  24
TORSDOF 8
