REMARK  Name = ZINC39237562
REMARK  6 active torsions:
REMARK  status: ('A' for Active; 'I' for Inactive)
REMARK    1  A    between atoms: C_1  and  C_2
REMARK    2  A    between atoms: C_4  and  C_33
REMARK    3  A    between atoms: C_16  and  C_19
REMARK    4  A    between atoms: C_24  and  C_25
REMARK    5  A    between atoms: C_28  and  O_31
REMARK    6  A    between atoms: O_31  and  C_32
REMARK                            x       y       z     vdW  Elec       q    Type
REMARK                         _______ _______ _______ _____ _____    ______ ____
ROOT
ATOM      1  C   UNL     1      -0.352   2.184  -0.363  0.00  0.00    +0.044 C 
ATOM      2  C   UNL     1      -0.302   0.703  -0.640  0.00  0.00    -0.041 A 
ATOM      3  C   UNL     1      -0.411   0.234  -1.936  0.00  0.00    +0.036 A 
ATOM      4  C   UNL     1      -0.362  -1.122  -2.185  0.00  0.00    +0.145 A 
ATOM      5  N   UNL     1      -0.187  -1.969  -1.186  0.00  0.00    -0.236 NA
ATOM      6  C   UNL     1      -0.065  -1.561   0.058  0.00  0.00    +0.103 A 
ATOM      7  C   UNL     1      -0.140  -0.201   0.411  0.00  0.00    +0.006 A 
ATOM      8  C   UNL     1      -0.086   0.055   1.869  0.00  0.00    +0.110 C 
ATOM      9  C   UNL     1       0.730  -1.030   2.626  0.00  0.00    +0.160 C 
ATOM     10  S   UNL     1       0.238  -2.455   1.573  0.00  0.00    -0.091 S 
ATOM     11  C   UNL     1       0.050  -1.076   3.979  0.00  0.00    +0.229 C 
ATOM     12  O   UNL     1      -0.188  -2.110   4.566  0.00  0.00    -0.274 OA
ATOM     13  N   UNL     1      -0.267   0.151   4.475  0.00  0.00    -0.298 N 
ATOM     14  C   UNL     1       0.154   1.395   3.851  0.00  0.00    +0.156 C 
ATOM     15  N   UNL     1       0.237   1.350   2.394  0.00  0.00    -0.289 NA
ATOM     16  H   UNL     1      -0.800   0.198   5.284  0.00  0.00    +0.150 HD
ATOM     17  H   UNL     1       1.148   1.650   2.082  0.00  0.00    +0.124 HD
ENDROOT
BRANCH  14  18
ATOM     18  C   UNL     1      -0.834   2.493   4.249  0.00  0.00    +0.118 C 
ATOM     19  C   UNL     1      -2.205   2.215   3.666  0.00  0.00    +0.120 C 
ATOM     20  N   UNL     1      -2.470   3.209   2.882  0.00  0.00    -0.161 NA
ATOM     21  N   UNL     1      -1.446   4.149   2.848  0.00  0.00    -0.153 NA
ATOM     22  C   UNL     1      -0.443   3.817   3.621  0.00  0.00    +0.082 C 
BRANCH  22  23
ATOM     23  C   UNL     1       0.803   4.566   3.835  0.00  0.00    -0.001 A 
ATOM     24  C   UNL     1       1.075   5.708   3.073  0.00  0.00    +0.013 A 
ATOM     25  C   UNL     1       2.244   6.407   3.278  0.00  0.00    +0.046 A 
ATOM     26  C   UNL     1       3.152   5.980   4.240  0.00  0.00    +0.120 A 
ATOM     27  C   UNL     1       2.887   4.847   4.999  0.00  0.00    +0.046 A 
ATOM     28  C   UNL     1       1.719   4.144   4.805  0.00  0.00    +0.013 A 
BRANCH  26  29
ATOM     29  O   UNL     1       4.303   6.673   4.438  0.00  0.00    -0.495 OA
ATOM     30  C   UNL     1       5.193   6.179   5.441  0.00  0.00    +0.277 C 
ENDBRANCH  26  29
ENDBRANCH  22  23
ENDBRANCH  14  18
BRANCH   4  31
ATOM     31  C   UNL     1      -0.508  -1.637  -3.594  0.00  0.00    +0.434 C 
ATOM     32  F   UNL     1       0.753  -1.720  -4.193  0.00  0.00    -0.164 F 
ATOM     33  F   UNL     1      -1.096  -2.906  -3.568  0.00  0.00    -0.164 F 
ATOM     34  F   UNL     1      -1.317  -0.763  -4.328  0.00  0.00    -0.164 F 
ENDBRANCH   4  31
TORSDOF 4
