REMARK  Name = ZINC59160736
REMARK  10 active torsions:
REMARK  status: ('A' for Active; 'I' for Inactive)
REMARK    1  A    between atoms: C_1  and  C_2
REMARK    2  A    between atoms: C_2  and  C_3
REMARK    3  A    between atoms: C_2  and  C_4
REMARK    4  A    between atoms: C_4  and  C_5
REMARK    5  A    between atoms: C_5  and  C_7
REMARK    6  A    between atoms: C_5  and  N_34
REMARK    7  A    between atoms: N_9  and  N_10
REMARK    8  A    between atoms: N_18  and  C_21
REMARK    9  A    between atoms: C_21  and  C_22
REMARK   10  A    between atoms: C_22  and  N_23
REMARK                            x       y       z     vdW  Elec       q    Type
REMARK                         _______ _______ _______ _____ _____    ______ ____
ROOT
ATOM      1  N   UNL     1      -4.675  -3.232   1.358  0.00  0.00    -0.175 NA
ATOM      2  C   UNL     1      -5.176  -3.468   2.546  0.00  0.00    +0.153 C 
ATOM      3  C   UNL     1      -4.559  -3.174   3.860  0.00  0.00    +0.028 A 
ATOM      4  C   UNL     1      -3.350  -2.600   4.237  0.00  0.00    +0.012 A 
ATOM      5  C   UNL     1      -3.049  -2.455   5.577  0.00  0.00    +0.001 A 
ATOM      6  C   UNL     1      -3.948  -2.880   6.540  0.00  0.00    +0.002 A 
ATOM      7  C   UNL     1      -5.151  -3.451   6.176  0.00  0.00    +0.024 A 
ATOM      8  C   UNL     1      -5.472  -3.605   4.831  0.00  0.00    +0.046 A 
ATOM      9  N   UNL     1      -6.593  -4.138   4.204  0.00  0.00    -0.264 N 
ATOM     10  C   UNL     1      -6.482  -4.080   2.866  0.00  0.00    +0.271 C 
ATOM     11  O   UNL     1      -7.309  -4.466   2.062  0.00  0.00    -0.268 OA
ENDROOT
BRANCH   1  14
ATOM     12  C   UNL     1      -2.862  -2.462   0.021  0.00  0.00    +0.218 C 
ATOM     13  O   UNL     1      -3.579  -2.512  -0.956  0.00  0.00    -0.276 OA
ATOM     14  N   UNL     1      -3.345  -2.812   1.230  0.00  0.00    -0.208 N 
ATOM     15  H   UNL     1      -2.772  -2.772   2.011  0.00  0.00    +0.177 HD
BRANCH  12  16
ATOM     16  C   UNL     1      -1.432  -2.010  -0.117  0.00  0.00    +0.015 C 
BRANCH  16  17
ATOM     17  N   UNL     1      -1.008  -2.147  -1.517  0.00  0.00    +0.386 N 
ATOM     18  H   UNL     1      -1.083  -3.113  -1.799  0.00  0.00    -0.089 HD
ATOM     19  H   UNL     1      -1.599  -1.578  -2.105  0.00  0.00    -0.089 HD
ATOM     20  H   UNL     1      -0.050  -1.844  -1.610  0.00  0.00    -0.089 HD
ENDBRANCH  16  17
BRANCH  16  21
ATOM     21  C   UNL     1      -1.317  -0.545   0.309  0.00  0.00    -0.004 C 
BRANCH  21  23
ATOM     22  C   UNL     1       0.258   1.374   0.593  0.00  0.00    +0.007 C 
ATOM     23  C   UNL     1       0.153  -0.122   0.288  0.00  0.00    -0.018 C 
ATOM     24  C   UNL     1       0.927  -0.913   1.345  0.00  0.00    +0.007 C 
ENDBRANCH  21  23
ENDBRANCH  16  21
ENDBRANCH  12  16
ENDBRANCH   1  14
BRANCH   9  25
ATOM     25  C   UNL     1      -7.752  -4.687   4.913  0.00  0.00    +0.133 C 
BRANCH  25  26
ATOM     26  C   UNL     1      -8.773  -3.575   5.158  0.00  0.00    +0.136 C 
BRANCH  26  27
ATOM     27  N   UNL     1      -9.932  -4.123   5.867  0.00  0.00    -0.233 N 
ATOM     28  C   UNL     1     -11.016  -4.645   5.264  0.00  0.00    +0.254 C 
ATOM     29  O   UNL     1     -11.187  -4.733   4.065  0.00  0.00    -0.270 OA
ATOM     30  C   UNL     1     -11.964  -5.092   6.306  0.00  0.00    +0.049 A 
ATOM     31  C   UNL     1     -13.214  -5.689   6.285  0.00  0.00    +0.014 A 
ATOM     32  C   UNL     1     -13.854  -5.988   7.478  0.00  0.00    +0.001 A 
ATOM     33  C   UNL     1     -13.253  -5.694   8.688  0.00  0.00    +0.001 A 
ATOM     34  C   UNL     1     -12.003  -5.096   8.725  0.00  0.00    +0.014 A 
ATOM     35  C   UNL     1     -11.352  -4.792   7.540  0.00  0.00    +0.049 A 
ATOM     36  C   UNL     1     -10.050  -4.177   7.206  0.00  0.00    +0.254 C 
ATOM     37  O   UNL     1      -9.225  -3.785   8.007  0.00  0.00    -0.270 OA
ENDBRANCH  26  27
ENDBRANCH  25  26
ENDBRANCH   9  25
TORSDOF 8
