REMARK  Name = ZINC33957248
REMARK  10 active torsions:
REMARK  status: ('A' for Active; 'I' for Inactive)
REMARK    1  A    between atoms: C_1  and  O_2
REMARK    2  A    between atoms: O_2  and  C_3
REMARK    3  A    between atoms: C_6  and  N_9
REMARK    4  A    between atoms: C_10  and  C_12
REMARK    5  A    between atoms: C_12  and  C_13
REMARK    6  A    between atoms: N_17  and  C_31
REMARK    7  A    between atoms: N_19  and  N_20
REMARK    8  A    between atoms: C_21  and  C_22
REMARK    9  A    between atoms: C_23  and  C_24
REMARK   10  A    between atoms: C_34  and  O_37
REMARK                            x       y       z     vdW  Elec       q    Type
REMARK                         _______ _______ _______ _____ _____    ______ ____
ROOT
ATOM      1  C   UNL     1      -6.055  -6.375  -0.087  0.00  0.00    +0.149 C 
ATOM      2  C   UNL     1      -7.218  -7.339  -0.258  0.00  0.00    +0.239 C 
ATOM      3  O   UNL     1      -7.847  -7.764   0.687  0.00  0.00    -0.274 OA
ATOM      4  N   UNL     1      -7.500  -7.686  -1.502  0.00  0.00    -0.217 N 
ATOM      5  C   UNL     1      -6.789  -7.206  -2.583  0.00  0.00    +0.190 C 
ATOM      6  N   UNL     1      -6.972  -7.475  -3.861  0.00  0.00    -0.126 NA
ATOM      7  S   UNL     1      -5.562  -6.137  -1.844  0.00  0.00    -0.075 S 
ENDROOT
BRANCH   4   8
ATOM      8  C   UNL     1      -8.561  -8.573  -1.732  0.00  0.00    +0.043 A 
ATOM      9  C   UNL     1      -9.862  -8.095  -1.811  0.00  0.00    +0.027 A 
ATOM     10  C   UNL     1     -10.906  -8.970  -2.037  0.00  0.00    +0.047 A 
ATOM     11  C   UNL     1     -10.655 -10.326  -2.187  0.00  0.00    +0.117 A 
ATOM     12  C   UNL     1      -9.355 -10.805  -2.108  0.00  0.00    +0.047 A 
ATOM     13  C   UNL     1      -8.310  -9.930  -1.887  0.00  0.00    +0.027 A 
BRANCH  11  14
ATOM     14  O   UNL     1     -11.684 -11.187  -2.409  0.00  0.00    -0.507 OA
ATOM     15  H   UNL     1     -11.887 -11.323  -3.345  0.00  0.00    +0.292 HD
ENDBRANCH  11  14
ENDBRANCH   4   8
BRANCH   6  16
ATOM     16  N   UNL     1      -7.942  -8.242  -4.227  0.00  0.00    -0.155 NA
ATOM     17  C   UNL     1      -8.072  -8.580  -5.487  0.00  0.00    +0.135 C 
BRANCH  17  18
ATOM     18  C   UNL     1      -9.202  -9.313  -5.909  0.00  0.00    +0.022 C 
ATOM     19  C   UNL     1      -9.284  -9.755  -7.184  0.00  0.00    +0.009 C 
BRANCH  19  20
ATOM     20  C   UNL     1     -10.461 -10.519  -7.624  0.00  0.00    -0.025 A 
ATOM     21  C   UNL     1     -11.501 -10.787  -6.727  0.00  0.00    +0.008 A 
ATOM     22  C   UNL     1     -12.601 -11.503  -7.147  0.00  0.00    +0.001 A 
ATOM     23  C   UNL     1     -12.678 -11.958  -8.452  0.00  0.00    +0.000 A 
ATOM     24  C   UNL     1     -11.654 -11.698  -9.345  0.00  0.00    +0.001 A 
ATOM     25  C   UNL     1     -10.549 -10.978  -8.943  0.00  0.00    +0.008 A 
ENDBRANCH  19  20
ENDBRANCH  17  18
ENDBRANCH   6  16
BRANCH   1  26
ATOM     26  C   UNL     1      -6.515  -5.058   0.543  0.00  0.00    +0.120 C 
BRANCH  26  28
ATOM     27  N   UNL     1      -5.497  -2.922   1.261  0.00  0.00    -0.285 N 
ATOM     28  C   UNL     1      -5.330  -4.145   0.721  0.00  0.00    +0.219 C 
ATOM     29  O   UNL     1      -4.226  -4.511   0.378  0.00  0.00    -0.275 OA
ATOM     30  H   UNL     1      -6.369  -2.651   1.589  0.00  0.00    +0.155 HD
BRANCH  27  34
ATOM     31  C   UNL     1      -2.265  -0.300   1.524  0.00  0.00    +0.120 A 
ATOM     32  C   UNL     1      -2.350  -1.191   0.464  0.00  0.00    +0.047 A 
ATOM     33  C   UNL     1      -3.420  -2.059   0.377  0.00  0.00    +0.027 A 
ATOM     34  C   UNL     1      -4.411  -2.041   1.350  0.00  0.00    +0.034 A 
ATOM     35  C   UNL     1      -4.324  -1.149   2.410  0.00  0.00    +0.027 A 
ATOM     36  C   UNL     1      -3.251  -0.285   2.500  0.00  0.00    +0.047 A 
BRANCH  31  38
ATOM     37  C   UNL     1      -0.233   0.485   0.570  0.00  0.00    +0.277 C 
ATOM     38  O   UNL     1      -1.211   0.555   1.610  0.00  0.00    -0.495 OA
ENDBRANCH  31  38
ENDBRANCH  27  34
ENDBRANCH  26  28
ENDBRANCH   1  26
TORSDOF 9
