REMARK  Name = ZINC35215247
REMARK  9 active torsions:
REMARK  status: ('A' for Active; 'I' for Inactive)
REMARK    1  A    between atoms: C_1  and  C_2
REMARK    2  A    between atoms: C_2  and  C_3
REMARK    3  A    between atoms: C_3  and  C_4
REMARK    4  A    between atoms: C_4  and  C_5
REMARK    5  A    between atoms: C_8  and  C_17
REMARK    6  A    between atoms: C_12  and  C_14
REMARK    7  A    between atoms: C_14  and  C_15
REMARK    8  A    between atoms: C_15  and  C_16
REMARK    9  A    between atoms: N_19  and  C_20
REMARK                            x       y       z     vdW  Elec       q    Type
REMARK                         _______ _______ _______ _____ _____    ______ ____
ROOT
ATOM      1  C   UNL     1       1.508  -2.553   2.461  0.00  0.00    +0.217 C 
ATOM      2  O   UNL     1       1.966  -1.764   3.260  0.00  0.00    -0.276 OA
ATOM      3  N   UNL     1       1.642  -3.878   2.668  0.00  0.00    -0.277 N 
ATOM      4  C   UNL     1       1.113  -4.865   1.732  0.00  0.00    +0.173 C 
ATOM      5  C   UNL     1       1.997  -6.146   1.719  0.00  0.00    +0.103 C 
ATOM      6  S   UNL     1       2.380  -6.229   3.526  0.00  0.00    -0.136 S 
ATOM      7  C   UNL     1       2.338  -4.416   3.853  0.00  0.00    +0.135 C 
ENDROOT
BRANCH   4   8
ATOM      8  C   UNL     1      -0.289  -5.237   2.142  0.00  0.00    +0.239 C 
ATOM      9  O   UNL     1      -0.790  -4.724   3.121  0.00  0.00    -0.273 OA
ATOM     10  N   UNL     1      -0.986  -6.138   1.422  0.00  0.00    -0.282 N 
ATOM     11  H   UNL     1      -0.617  -6.487   0.596  0.00  0.00    +0.155 HD
BRANCH  10  12
ATOM     12  C   UNL     1      -2.241  -6.570   1.867  0.00  0.00    +0.069 A 
ATOM     13  C   UNL     1      -2.559  -6.511   3.217  0.00  0.00    +0.026 A 
ATOM     14  C   UNL     1      -3.799  -6.937   3.653  0.00  0.00    +0.002 A 
ATOM     15  C   UNL     1      -4.724  -7.423   2.747  0.00  0.00    +0.003 A 
ATOM     16  C   UNL     1      -4.412  -7.484   1.401  0.00  0.00    +0.040 A 
ATOM     17  C   UNL     1      -3.175  -7.053   0.957  0.00  0.00    +0.144 A 
ATOM     18  F   UNL     1      -2.872  -7.108  -0.359  0.00  0.00    -0.204 F 
ENDBRANCH  10  12
ENDBRANCH   4   8
BRANCH   1  19
ATOM     19  C   UNL     1       0.789  -2.052   1.235  0.00  0.00    +0.096 C 
BRANCH  19  20
ATOM     20  C   UNL     1       0.777  -0.522   1.240  0.00  0.00    +0.009 C 
BRANCH  20  22
ATOM     21  C   UNL     1       0.035   1.517   0.002  0.00  0.00    +0.004 C 
ATOM     22  C   UNL     1       0.047  -0.013  -0.004  0.00  0.00    -0.003 C 
ENDBRANCH  20  22
ENDBRANCH  19  20
ENDBRANCH   1  19
BRANCH   7  23
ATOM     23  C   UNL     1       1.546  -4.117   5.127  0.00  0.00    +0.033 C 
BRANCH  23  24
ATOM     24  C   UNL     1       2.349  -4.576   6.346  0.00  0.00    -0.001 C 
ATOM     25  C   UNL     1       1.557  -4.277   7.621  0.00  0.00    +0.004 C 
ENDBRANCH  23  24
ENDBRANCH   7  23
TORSDOF 7
