REMARK  Name = ZINC59420221
REMARK  8 active torsions:
REMARK  status: ('A' for Active; 'I' for Inactive)
REMARK    1  A    between atoms: C_1  and  C_2
REMARK    2  A    between atoms: C_2  and  C_3
REMARK    3  A    between atoms: C_2  and  N_4
REMARK    4  A    between atoms: N_7  and  C_8
REMARK    5  A    between atoms: C_11  and  C_14
REMARK    6  A    between atoms: C_14  and  N_15
REMARK    7  A    between atoms: C_16  and  C_18
REMARK    8  A    between atoms: C_18  and  C_23
REMARK                            x       y       z     vdW  Elec       q    Type
REMARK                         _______ _______ _______ _____ _____    ______ ____
ROOT
ATOM      1  C   UNL     1      -3.515  -7.525  -2.275  0.00  0.00    +0.139 C 
ENDROOT
BRANCH   1   5
ATOM      2  C   UNL     1      -2.077  -3.707  -1.001  0.00  0.00    +0.035 A 
ATOM      3  C   UNL     1      -1.199  -4.636  -1.543  0.00  0.00    +0.023 A 
ATOM      4  C   UNL     1      -1.666  -5.869  -1.954  0.00  0.00    +0.007 A 
ATOM      5  C   UNL     1      -3.008  -6.179  -1.826  0.00  0.00    -0.030 A 
ATOM      6  C   UNL     1      -3.885  -5.256  -1.288  0.00  0.00    +0.007 A 
ATOM      7  C   UNL     1      -3.423  -4.023  -0.870  0.00  0.00    +0.023 A 
BRANCH   2  11
ATOM      8  N   UNL     1      -1.611  -0.716   0.970  0.00  0.00    -0.297 N 
ATOM      9  C   UNL     1      -2.133  -1.869   0.509  0.00  0.00    +0.304 C 
ATOM     10  O   UNL     1      -3.078  -2.380   1.078  0.00  0.00    -0.253 OA
ATOM     11  N   UNL     1      -1.606  -2.457  -0.584  0.00  0.00    -0.269 N 
ATOM     12  H   UNL     1      -0.857  -0.308   0.516  0.00  0.00    +0.151 HD
ATOM     13  H   UNL     1      -0.901  -2.014  -1.081  0.00  0.00    +0.156 HD
BRANCH   8  15
ATOM     14  C   UNL     1      -1.121   0.794   2.831  0.00  0.00    +0.027 C 
ATOM     15  C   UNL     1      -2.184  -0.076   2.158  0.00  0.00    +0.068 C 
ATOM     16  C   UNL     1      -3.371   0.796   1.745  0.00  0.00    +0.027 C 
ENDBRANCH   8  15
ENDBRANCH   2  11
ENDBRANCH   1   5
BRANCH   1  17
ATOM     17  N   UNL     1      -3.441  -8.472  -1.160  0.00  0.00    -0.310 N 
ATOM     18  C   UNL     1      -3.845  -9.746  -1.330  0.00  0.00    +0.224 C 
ATOM     19  O   UNL     1      -4.184 -10.134  -2.428  0.00  0.00    -0.275 OA
ATOM     20  H   UNL     1      -3.102  -8.181  -0.299  0.00  0.00    +0.149 HD
BRANCH  18  21
ATOM     21  C   UNL     1      -3.874 -10.690  -0.155  0.00  0.00    +0.072 C 
ATOM     22  C   UNL     1      -2.482 -10.767   0.494  0.00  0.00    +0.021 C 
ATOM     23  C   UNL     1      -2.027 -12.238   0.390  0.00  0.00    +0.001 C 
ATOM     24  C   UNL     1      -2.839 -12.802  -0.803  0.00  0.00    +0.001 C 
ATOM     25  C   UNL     1      -4.218 -12.117  -0.633  0.00  0.00    +0.021 C 
BRANCH  21  26
ATOM     26  C   UNL     1      -4.892 -10.225   0.855  0.00  0.00    -0.032 A 
ATOM     27  C   UNL     1      -5.712  -9.151   0.565  0.00  0.00    +0.006 A 
ATOM     28  C   UNL     1      -6.645  -8.724   1.491  0.00  0.00    +0.020 A 
ATOM     29  C   UNL     1      -6.758  -9.372   2.708  0.00  0.00    +0.041 A 
ATOM     30  C   UNL     1      -5.937 -10.447   2.997  0.00  0.00    +0.020 A 
ATOM     31  C   UNL     1      -5.008 -10.877   2.068  0.00  0.00    +0.006 A 
ATOM     32 CL   UNL     1      -7.929  -8.836   3.872  0.00  0.00    -0.084 Cl
ENDBRANCH  21  26
ENDBRANCH  18  21
ENDBRANCH   1  17
TORSDOF 6
