REMARK  Name = ZINC11538719
REMARK  11 active torsions:
REMARK  status: ('A' for Active; 'I' for Inactive)
REMARK    1  A    between atoms: C_1  and  C_2
REMARK    2  A    between atoms: C_2  and  N_3
REMARK    3  A    between atoms: N_3  and  C_4
REMARK    4  A    between atoms: N_3  and  S_6
REMARK    5  A    between atoms: C_4  and  C_5
REMARK    6  A    between atoms: S_6  and  C_9
REMARK    7  A    between atoms: C_12  and  S_15
REMARK    8  A    between atoms: S_15  and  C_16
REMARK    9  A    between atoms: C_16  and  C_17
REMARK   10  A    between atoms: N_19  and  C_20
REMARK   11  A    between atoms: C_21  and  C_29
REMARK                            x       y       z     vdW  Elec       q    Type
REMARK                         _______ _______ _______ _____ _____    ______ ____
ROOT
ATOM      1  C   UNL     1       7.262  -0.049  -5.306  0.00  0.00    +0.228 C 
ATOM      2  O   UNL     1       8.011  -0.979  -5.093  0.00  0.00    -0.275 OA
ATOM      3  N   UNL     1       7.657   0.968  -6.098  0.00  0.00    -0.279 N 
ATOM      4  H   UNL     1       7.058   1.711  -6.268  0.00  0.00    +0.155 HD
ENDROOT
BRANCH   3   5
ATOM      5  C   UNL     1       8.920   0.950  -6.670  0.00  0.00    +0.084 A 
ATOM      6  C   UNL     1       9.500   1.891  -7.510  0.00  0.00    +0.068 A 
ATOM      7  C   UNL     1      10.852   1.634  -7.974  0.00  0.00    -0.023 A 
ATOM      8  C   UNL     1      11.401   0.480  -7.536  0.00  0.00    -0.004 A 
ATOM      9  S   UNL     1      10.155  -0.256  -6.517  0.00  0.00    -0.077 S 
ATOM     10  C   UNL     1      12.767  -0.048  -7.852  0.00  0.00    +0.043 C 
ATOM     11  C   UNL     1      13.322   0.734  -9.052  0.00  0.00    +0.005 C 
ATOM     12  C   UNL     1      13.114   2.231  -8.805  0.00  0.00    +0.005 C 
ATOM     13  C   UNL     1      11.625   2.571  -8.893  0.00  0.00    +0.037 C 
BRANCH   6  14
ATOM     14  C   UNL     1       8.776   3.101  -7.910  0.00  0.00    +0.244 C 
ATOM     15  O   UNL     1       8.863   4.112  -7.238  0.00  0.00    -0.270 OA
ATOM     16  N   UNL     1       8.013   3.094  -9.021  0.00  0.00    -0.325 N 
ATOM     17  H   UNL     1       7.944   2.288  -9.557  0.00  0.00    +0.145 HD
ATOM     18  H   UNL     1       7.534   3.895  -9.286  0.00  0.00    +0.145 HD
ENDBRANCH   6  14
ENDBRANCH   3   5
BRANCH   1  19
ATOM     19  C   UNL     1       5.889  -0.029  -4.684  0.00  0.00    +0.171 C 
BRANCH  19  20
ATOM     20  S   UNL     1       5.659  -1.523  -3.681  0.00  0.00    -0.097 S 
BRANCH  20  24
ATOM     21  C   UNL     1       1.510  -1.061  -2.043  0.00  0.00    +0.124 A 
ATOM     22  C   UNL     1       2.233  -2.195  -1.696  0.00  0.00    +0.032 A 
ATOM     23  C   UNL     1       3.512  -2.342  -2.199  0.00  0.00    +0.037 A 
ATOM     24  C   UNL     1       4.030  -1.353  -3.031  0.00  0.00    +0.097 A 
ATOM     25  N   UNL     1       3.309  -0.285  -3.338  0.00  0.00    -0.247 NA
ATOM     26  C   UNL     1       2.083  -0.123  -2.877  0.00  0.00    +0.140 A 
BRANCH  21  27
ATOM     27  S   UNL     1      -0.125  -0.826  -1.430  0.00  0.00    +0.062 S 
ATOM     28  O   UNL     1      -0.630  -2.116  -1.114  0.00  0.00    -0.153 OA
ATOM     29  O   UNL     1      -0.780   0.046  -2.342  0.00  0.00    -0.153 OA
BRANCH  27  30
ATOM     30  N   UNL     1       0.002  -0.004   0.002  0.00  0.00    -0.177 NA
BRANCH  30  32
ATOM     31  C   UNL     1       1.418   1.990  -0.001  0.00  0.00    +0.022 C 
ATOM     32  C   UNL     1      -0.018   1.461   0.010  0.00  0.00    +0.106 C 
ENDBRANCH  30  32
BRANCH  30  33
ATOM     33  C   UNL     1       0.135  -0.742   1.261  0.00  0.00    +0.106 C 
ATOM     34  C   UNL     1      -1.245  -0.910   1.901  0.00  0.00    +0.022 C 
ENDBRANCH  30  33
ENDBRANCH  27  30
ENDBRANCH  21  27
ENDBRANCH  20  24
ENDBRANCH  19  20
ENDBRANCH   1  19
TORSDOF 9
