REMARK  Name = ZINC25391713
REMARK  12 active torsions:
REMARK  status: ('A' for Active; 'I' for Inactive)
REMARK    1  A    between atoms: C_1  and  C_2
REMARK    2  A    between atoms: C_2  and  N_3
REMARK    3  A    between atoms: N_3  and  C_4
REMARK    4  A    between atoms: N_3  and  C_6
REMARK    5  A    between atoms: C_4  and  C_5
REMARK    6  A    between atoms: C_6  and  C_7
REMARK    7  A    between atoms: C_7  and  N_8
REMARK    8  A    between atoms: N_17  and  C_18
REMARK    9  A    between atoms: C_18  and  C_20
REMARK   10  A    between atoms: C_23  and  C_35
REMARK   11  A    between atoms: N_25  and  C_28
REMARK   12  A    between atoms: C_28  and  C_29
REMARK                            x       y       z     vdW  Elec       q    Type
REMARK                         _______ _______ _______ _____ _____    ______ ____
ROOT
ATOM      1  N   UNL     1      -0.606  -3.779   2.104  0.00  0.00    -0.314 N 
ATOM      2  C   UNL     1      -1.566  -4.486   2.821  0.00  0.00    +0.068 A 
ATOM      3  C   UNL     1      -2.760  -4.115   3.424  0.00  0.00    +0.028 A 
ATOM      4  C   UNL     1      -3.521  -5.060   4.082  0.00  0.00    +0.002 A 
ATOM      5  C   UNL     1      -3.099  -6.377   4.144  0.00  0.00    +0.002 A 
ATOM      6  C   UNL     1      -1.912  -6.756   3.548  0.00  0.00    +0.028 A 
ATOM      7  C   UNL     1      -1.140  -5.814   2.884  0.00  0.00    +0.066 A 
ATOM      8  N   UNL     1       0.072  -5.889   2.203  0.00  0.00    -0.326 N 
ATOM      9  C   UNL     1       0.375  -4.647   1.734  0.00  0.00    +0.201 A 
ATOM     10  N   UNL     1       1.455  -4.334   1.032  0.00  0.00    -0.142 NA
ATOM     11  H   UNL     1       0.607  -6.689   2.082  0.00  0.00    +0.169 HD
ENDROOT
BRANCH  10  12
ATOM     12  C   UNL     1       2.293  -5.298   0.624  0.00  0.00    +0.277 C 
ATOM     13  O   UNL     1       2.015  -6.470   0.818  0.00  0.00    -0.267 OA
BRANCH  12  14
ATOM     14  C   UNL     1       3.548  -4.942  -0.056  0.00  0.00    +0.079 A 
ATOM     15  C   UNL     1       4.514  -5.768  -0.543  0.00  0.00    +0.032 A 
ATOM     16  C   UNL     1       5.648  -5.219  -1.166  0.00  0.00    +0.031 A 
ATOM     17  C   UNL     1       6.857  -5.658  -1.797  0.00  0.00    +0.068 A 
ATOM     18  N   UNL     1       7.532  -4.620  -2.191  0.00  0.00    -0.175 NA
ATOM     19  N   UNL     1       6.830  -3.454  -1.856  0.00  0.00    -0.252 N 
ATOM     20  C   UNL     1       5.691  -3.820  -1.237  0.00  0.00    +0.107 A 
ATOM     21  S   UNL     1       4.179  -3.322  -0.455  0.00  0.00    -0.064 S 
ATOM     22  C   UNL     1       7.280  -7.093  -1.973  0.00  0.00    +0.068 C 
BRANCH  19  23
ATOM     23  C   UNL     1       7.259  -2.081  -2.131  0.00  0.00    +0.180 C 
BRANCH  23  24
ATOM     24  C   UNL     1       6.738  -1.652  -3.478  0.00  0.00    -0.026 A 
ATOM     25  C   UNL     1       7.492  -1.875  -4.615  0.00  0.00    +0.005 A 
ATOM     26  C   UNL     1       7.014  -1.482  -5.851  0.00  0.00    +0.000 A 
ATOM     27  C   UNL     1       5.780  -0.866  -5.950  0.00  0.00    +0.000 A 
ATOM     28  C   UNL     1       5.025  -0.643  -4.814  0.00  0.00    +0.000 A 
ATOM     29  C   UNL     1       5.502  -1.040  -3.579  0.00  0.00    +0.005 A 
ENDBRANCH  23  24
ENDBRANCH  19  23
ENDBRANCH  12  14
ENDBRANCH  10  12
BRANCH   1  30
ATOM     30  C   UNL     1      -0.646  -2.348   1.795  0.00  0.00    +0.106 C 
BRANCH  30  31
ATOM     31  C   UNL     1      -1.372  -2.133   0.465  0.00  0.00    -0.057 C 
BRANCH  31  32
ATOM     32  N   UNL     1      -1.413  -0.698   0.155  0.00  0.00    +0.380 N 
ATOM     33  H   UNL     1      -1.830  -0.199   0.926  0.00  0.00    -0.082 HD
BRANCH  32  35
ATOM     34  C   UNL     1      -0.074   1.313  -0.247  0.00  0.00    -0.017 C 
ATOM     35  C   UNL     1      -0.046  -0.206  -0.064  0.00  0.00    -0.082 C 
ENDBRANCH  32  35
BRANCH  32  36
ATOM     36  C   UNL     1      -2.212  -0.481  -1.058  0.00  0.00    -0.082 C 
ATOM     37  C   UNL     1      -3.668  -0.861  -0.784  0.00  0.00    -0.017 C 
ENDBRANCH  32  36
ENDBRANCH  31  32
ENDBRANCH  30  31
ENDBRANCH   1  30
TORSDOF 9
