REMARK  Name = ZINC59120115
REMARK  5 active torsions:
REMARK  status: ('A' for Active; 'I' for Inactive)
REMARK    1  A    between atoms: C_4  and  N_7
REMARK    2  A    between atoms: C_9  and  C_22
REMARK    3  A    between atoms: C_10  and  C_12
REMARK    4  A    between atoms: N_23  and  N_24
REMARK    5  A    between atoms: C_25  and  C_27
REMARK                            x       y       z     vdW  Elec       q    Type
REMARK                         _______ _______ _______ _____ _____    ______ ____
ROOT
ATOM      1  N   UNL     1       4.457  -0.080   1.014  0.00  0.00    -0.239 N 
ATOM      2  C   UNL     1       4.497  -1.227   1.727  0.00  0.00    +0.124 A 
ATOM      3  C   UNL     1       5.760  -1.758   1.582  0.00  0.00    +0.036 A 
ATOM      4  C   UNL     1       6.490  -0.883   0.748  0.00  0.00    +0.078 A 
ATOM      5  N   UNL     1       5.707   0.107   0.412  0.00  0.00    -0.170 NA
ENDROOT
BRANCH   4   6
ATOM      6  C   UNL     1       7.922  -1.063   0.315  0.00  0.00    +0.016 C 
ATOM      7  C   UNL     1       8.852  -0.450   1.363  0.00  0.00    +0.016 C 
ATOM      8  C   UNL     1      10.307  -0.632   0.924  0.00  0.00    -0.010 C 
ATOM      9  C   UNL     1      10.613  -2.125   0.781  0.00  0.00    +0.007 C 
ATOM     10  C   UNL     1       9.682  -2.738  -0.267  0.00  0.00    -0.010 C 
ATOM     11  C   UNL     1       8.228  -2.555   0.172  0.00  0.00    +0.016 C 
ATOM     12  C   UNL     1       9.900  -2.042  -1.612  0.00  0.00    +0.007 C 
ATOM     13  C   UNL     1       9.594  -0.549  -1.469  0.00  0.00    -0.010 C 
ATOM     14  C   UNL     1      10.524   0.064  -0.421  0.00  0.00    +0.007 C 
ATOM     15  C   UNL     1       8.140  -0.367  -1.030  0.00  0.00    +0.016 C 
ENDBRANCH   4   6
BRANCH   1  19
ATOM     16  C   UNL     1       1.171   2.458   0.656  0.00  0.00    +0.000 A 
ATOM     17  C   UNL     1       2.353   2.763   0.005  0.00  0.00    +0.002 A 
ATOM     18  C   UNL     1       3.443   1.924   0.122  0.00  0.00    +0.028 A 
ATOM     19  C   UNL     1       3.353   0.773   0.894  0.00  0.00    +0.065 A 
ATOM     20  C   UNL     1       2.165   0.470   1.546  0.00  0.00    +0.028 A 
ATOM     21  C   UNL     1       1.077   1.313   1.425  0.00  0.00    +0.002 A 
ENDBRANCH   1  19
BRANCH   3  22
ATOM     22  C   UNL     1       6.258  -3.009   2.186  0.00  0.00    +0.141 C 
ATOM     23  N   UNL     1       6.556  -4.021   1.430  0.00  0.00    -0.187 NA
BRANCH  23  24
ATOM     24  N   UNL     1       6.891  -5.252   2.008  0.00  0.00    -0.203 N 
ATOM     25  C   UNL     1       8.184  -5.616   2.118  0.00  0.00    +0.270 C 
ATOM     26  O   UNL     1       9.064  -4.838   1.799  0.00  0.00    -0.268 OA
ATOM     27  H   UNL     1       6.191  -5.843   2.328  0.00  0.00    +0.178 HD
BRANCH  25  28
ATOM     28  C   UNL     1       8.530  -6.948   2.622  0.00  0.00    +0.075 A 
ATOM     29  C   UNL     1       9.782  -7.511   2.817  0.00  0.00    +0.021 A 
ATOM     30  C   UNL     1       9.790  -8.794   3.309  0.00  0.00    +0.008 A 
ATOM     31  C   UNL     1       8.609  -9.409   3.565  0.00  0.00    +0.046 A 
ATOM     32  S   UNL     1       7.451  -8.264   3.153  0.00  0.00    -0.092 S 
ENDBRANCH  25  28
ENDBRANCH  23  24
ENDBRANCH   3  22
TORSDOF 5
