REMARK  Name = ZINC08951299
REMARK  10 active torsions:
REMARK  status: ('A' for Active; 'I' for Inactive)
REMARK    1  A    between atoms: C_1  and  C_2
REMARK    2  A    between atoms: C_5  and  S_8
REMARK    3  A    between atoms: S_8  and  N_11
REMARK    4  A    between atoms: N_11  and  C_12
REMARK    5  A    between atoms: C_12  and  C_14
REMARK    6  A    between atoms: C_12  and  C_15
REMARK    7  A    between atoms: C_15  and  O_17
REMARK    8  A    between atoms: O_17  and  C_18
REMARK    9  A    between atoms: C_25  and  C_36
REMARK   10  A    between atoms: C_26  and  C_29
REMARK                            x       y       z     vdW  Elec       q    Type
REMARK                         _______ _______ _______ _____ _____    ______ ____
ROOT
ATOM      1  C   UNL     1      -0.505   2.743   6.024  0.00  0.00    +0.135 A 
ATOM      2  C   UNL     1      -1.209   1.545   6.125  0.00  0.00    +0.047 A 
ATOM      3  C   UNL     1      -1.275   0.882   7.317  0.00  0.00    +0.019 A 
ATOM      4  C   UNL     1      -0.644   1.416   8.442  0.00  0.00    +0.065 A 
ATOM      5  C   UNL     1       0.064   2.627   8.352  0.00  0.00    +0.142 A 
ATOM      6  C   UNL     1       0.126   3.284   7.130  0.00  0.00    +0.093 A 
ATOM      7  O   UNL     1       0.673   3.140   9.439  0.00  0.00    -0.459 OA
ATOM      8  C   UNL     1       0.648   2.555  10.639  0.00  0.00    +0.114 A 
ATOM      9  C   UNL     1       0.001   1.382  10.867  0.00  0.00    +0.067 A 
ATOM     10  C   UNL     1      -0.700   0.732   9.746  0.00  0.00    +0.200 A 
ATOM     11  O   UNL     1      -1.298  -0.321   9.891  0.00  0.00    -0.286 OA
ATOM     12  C   UNL     1       1.365   3.220  11.785  0.00  0.00    +0.087 C 
ENDROOT
BRANCH   9  13
ATOM     13  C   UNL     1       0.000   0.769  12.217  0.00  0.00    -0.011 A 
ATOM     14  C   UNL     1      -0.623   1.420  13.280  0.00  0.00    +0.011 A 
ATOM     15  C   UNL     1      -0.627   0.843  14.534  0.00  0.00    +0.039 A 
ATOM     16  C   UNL     1      -0.001  -0.376  14.739  0.00  0.00    +0.123 A 
ATOM     17  C   UNL     1       0.625  -1.024  13.687  0.00  0.00    +0.039 A 
ATOM     18  C   UNL     1       0.628  -0.457  12.428  0.00  0.00    +0.011 A 
ATOM     19  F   UNL     1      -0.001  -0.934  15.969  0.00  0.00    -0.205 F 
ENDBRANCH   9  13
BRANCH   1  20
ATOM     20  O   UNL     1      -0.443   3.388   4.831  0.00  0.00    -0.425 OA
BRANCH  20  21
ATOM     21  C   UNL     1       0.704   3.283   4.140  0.00  0.00    +0.331 C 
ATOM     22  O   UNL     1       1.651   2.710   4.625  0.00  0.00    -0.249 OA
BRANCH  21  23
ATOM     23  C   UNL     1       0.809   3.878   2.759  0.00  0.00    +0.182 C 
ATOM     24  C   UNL     1      -0.234   3.234   1.845  0.00  0.00    +0.037 C 
BRANCH  23  25
ATOM     25  N   UNL     1       2.150   3.630   2.222  0.00  0.00    -0.176 NA
ATOM     26  H   UNL     1       2.611   2.804   2.432  0.00  0.00    +0.149 HD
BRANCH  25  27
ATOM     27  S   UNL     1       2.876   4.761   1.255  0.00  0.00    +0.059 S 
ATOM     28  O   UNL     1       1.921   5.125   0.268  0.00  0.00    -0.153 OA
ATOM     29  O   UNL     1       4.158   4.248   0.921  0.00  0.00    -0.153 OA
BRANCH  27  34
ATOM     30  C   UNL     1       3.818   9.676   4.626  0.00  0.00    +0.044 C 
ATOM     31  C   UNL     1       3.582   8.448   3.785  0.00  0.00    -0.050 A 
ATOM     32  C   UNL     1       4.548   7.461   3.717  0.00  0.00    +0.005 A 
ATOM     33  C   UNL     1       4.331   6.334   2.946  0.00  0.00    +0.029 A 
ATOM     34  C   UNL     1       3.149   6.194   2.244  0.00  0.00    +0.105 A 
ATOM     35  C   UNL     1       2.183   7.181   2.313  0.00  0.00    +0.029 A 
ATOM     36  C   UNL     1       2.400   8.308   3.083  0.00  0.00    +0.005 A 
ENDBRANCH  27  34
ENDBRANCH  25  27
ENDBRANCH  23  25
ENDBRANCH  21  23
ENDBRANCH  20  21
ENDBRANCH   1  20
TORSDOF 7
