REMARK  Name = ZINC17015724
REMARK  5 active torsions:
REMARK  status: ('A' for Active; 'I' for Inactive)
REMARK    1  A    between atoms: C_1  and  C_2
REMARK    2  A    between atoms: C_5  and  C_8
REMARK    3  A    between atoms: N_9  and  N_10
REMARK    4  A    between atoms: C_11  and  C_13
REMARK    5  A    between atoms: C_15  and  C_19
REMARK                            x       y       z     vdW  Elec       q    Type
REMARK                         _______ _______ _______ _____ _____    ______ ____
ROOT
ATOM      1  C   UNL     1       0.127  -8.455   2.247  0.00  0.00    +0.122 A 
ATOM      2  C   UNL     1       0.139  -9.289   3.349  0.00  0.00    +0.062 A 
ATOM      3  C   UNL     1       0.156 -10.595   2.827  0.00  0.00    +0.093 A 
ATOM      4  N   UNL     1       0.154 -10.498   1.514  0.00  0.00    -0.173 NA
ATOM      5  N   UNL     1       0.132  -9.267   1.147  0.00  0.00    -0.272 N 
ATOM      6  H   UNL     1       0.123  -8.960   0.228  0.00  0.00    +0.189 HD
ENDROOT
BRANCH   3   7
ATOM      7  C   UNL     1       0.173 -11.854   3.613  0.00  0.00    +0.004 A 
ATOM      8  C   UNL     1       0.167 -11.808   5.006  0.00  0.00    +0.011 A 
ATOM      9  C   UNL     1       0.182 -12.980   5.734  0.00  0.00    +0.022 A 
ATOM     10  C   UNL     1       0.204 -14.201   5.082  0.00  0.00    +0.059 A 
ATOM     11  C   UNL     1       0.211 -14.253   3.698  0.00  0.00    +0.060 A 
ATOM     12  C   UNL     1       0.189 -13.084   2.962  0.00  0.00    +0.031 A 
ATOM     13 CL   UNL     1       0.239 -15.788   2.888  0.00  0.00    -0.082 Cl
ATOM     14 CL   UNL     1       0.225 -15.673   6.003  0.00  0.00    -0.082 Cl
ENDBRANCH   3   7
BRANCH   1  16
ATOM     15  N   UNL     1       0.093  -6.304   1.091  0.00  0.00    -0.202 N 
ATOM     16  C   UNL     1       0.108  -6.984   2.255  0.00  0.00    +0.281 C 
ATOM     17  O   UNL     1       0.105  -6.381   3.312  0.00  0.00    -0.267 OA
ATOM     18  H   UNL     1       0.095  -6.784   0.249  0.00  0.00    +0.178 HD
BRANCH  15  20
ATOM     19  C   UNL     1       0.060  -4.248  -0.021  0.00  0.00    +0.138 C 
ATOM     20  N   UNL     1       0.074  -4.903   1.099  0.00  0.00    -0.187 NA
BRANCH  19  25
ATOM     21  C   UNL     1      -0.018   1.503   0.010  0.00  0.00    +0.044 C 
ATOM     22  C   UNL     1       0.002  -0.004   0.002  0.00  0.00    -0.050 A 
ATOM     23  C   UNL     1       0.006  -0.686  -1.202  0.00  0.00    +0.004 A 
ATOM     24  C   UNL     1       0.024  -2.065  -1.217  0.00  0.00    +0.010 A 
ATOM     25  C   UNL     1       0.040  -2.773  -0.013  0.00  0.00    -0.005 A 
ATOM     26  C   UNL     1       0.037  -2.078   1.198  0.00  0.00    +0.010 A 
ATOM     27  C   UNL     1       0.023  -0.699   1.198  0.00  0.00    +0.004 A 
ENDBRANCH  19  25
ENDBRANCH  15  20
ENDBRANCH   1  16
TORSDOF 4
