REMARK  Name = ZINC19527033
REMARK  2 active torsions:
REMARK  status: ('A' for Active; 'I' for Inactive)
REMARK    1  A    between atoms: C_1  and  C_2
REMARK    2  A    between atoms: C_2  and  N_3
REMARK                            x       y       z     vdW  Elec       q    Type
REMARK                         _______ _______ _______ _____ _____    ______ ____
ROOT
ATOM      1  N   UNL     1       0.719  -0.495   1.203  0.00  0.00    +0.381 N 
ATOM      2  C   UNL     1       0.013   0.013   2.369  0.00  0.00    -0.069 C 
ATOM      3  C   UNL     1       0.448  -0.610   3.700  0.00  0.00    +0.018 C 
ATOM      4  C   UNL     1       1.859  -0.175   4.073  0.00  0.00    +0.007 C 
ATOM      5  C   UNL     1       2.889  -0.622   3.050  0.00  0.00    +0.002 C 
ATOM      6  C   UNL     1       2.777  -2.071   2.642  0.00  0.00    +0.020 C 
ATOM      7  C   UNL     1       1.359  -2.567   2.379  0.00  0.00    +0.070 C 
ATOM      8  C   UNL     1       0.818  -1.951   1.089  0.00  0.00    -0.057 C 
ATOM      9  C   UNL     1       0.432  -2.111   3.477  0.00  0.00    +0.030 C 
ATOM     10  N   UNL     1      -0.291  -2.880   4.149  0.00  0.00    -0.266 NA
ATOM     11  C   UNL     1      -0.437  -4.315   3.941  0.00  0.00    +0.126 C 
ATOM     12  C   UNL     1      -0.401  -5.038   5.289  0.00  0.00    +0.050 C 
ATOM     13  C   UNL     1      -0.598  -6.540   5.081  0.00  0.00    +0.004 C 
ATOM     14  C   UNL     1      -1.949  -6.794   4.408  0.00  0.00    +0.000 C 
ATOM     15  C   UNL     1      -1.993  -6.068   3.062  0.00  0.00    +0.004 C 
ATOM     16  C   UNL     1      -1.804  -4.568   3.284  0.00  0.00    +0.050 C 
ATOM     17  N   UNL     1       0.604  -4.840   3.067  0.00  0.00    -0.290 N 
ATOM     18  C   UNL     1       1.398  -4.065   2.321  0.00  0.00    +0.225 C 
ATOM     19  O   UNL     1       2.185  -4.590   1.563  0.00  0.00    -0.275 OA
ATOM     20  H   UNL     1       0.731  -5.801   3.019  0.00  0.00    +0.151 HD
ATOM     21  H   UNL     1       1.641  -0.090   1.155  0.00  0.00    -0.082 HD
ENDROOT
BRANCH   1  23
ATOM     22  C   UNL     1      -0.019   1.526   0.010  0.00  0.00    -0.017 C 
ATOM     23  C   UNL     1       0.002  -0.004   0.002  0.00  0.00    -0.082 C 
ENDBRANCH   1  23
TORSDOF 1
