REMARK  Name = ZINC36714363
REMARK  8 active torsions:
REMARK  status: ('A' for Active; 'I' for Inactive)
REMARK    1  A    between atoms: C_1  and  C_2
REMARK    2  A    between atoms: C_5  and  N_8
REMARK    3  A    between atoms: C_9  and  C_31
REMARK    4  A    between atoms: C_10  and  C_13
REMARK    5  A    between atoms: N_15  and  C_16
REMARK    6  A    between atoms: C_16  and  C_17
REMARK    7  A    between atoms: C_17  and  C_19
REMARK    8  A    between atoms: C_17  and  N_26
REMARK                            x       y       z     vdW  Elec       q    Type
REMARK                         _______ _______ _______ _____ _____    ______ ____
ROOT
ATOM      1  C   UNL     1       1.090  -7.459   0.828  0.00  0.00    +0.248 C 
ATOM      2  O   UNL     1       1.729  -7.263   1.843  0.00  0.00    -0.270 OA
ATOM      3  N   UNL     1       0.759  -8.716   0.472  0.00  0.00    -0.312 N 
ATOM      4  H   UNL     1       0.249  -8.872  -0.339  0.00  0.00    +0.149 HD
ENDROOT
BRANCH   1   7
ATOM      5  N   UNL     1       0.393  -4.283  -0.783  0.00  0.00    -0.227 N 
ATOM      6  C   UNL     1       0.944  -4.987   0.222  0.00  0.00    +0.159 A 
ATOM      7  C   UNL     1       0.678  -6.321  -0.015  0.00  0.00    +0.086 A 
ATOM      8  C   UNL     1      -0.063  -6.392  -1.216  0.00  0.00    +0.148 A 
ATOM      9  N   UNL     1      -0.231  -5.177  -1.660  0.00  0.00    -0.174 NA
BRANCH   5  14
ATOM     10  C   UNL     1       0.552   1.361  -1.357  0.00  0.00    +0.044 C 
ATOM     11  C   UNL     1       0.510  -0.138  -1.204  0.00  0.00    -0.050 A 
ATOM     12  C   UNL     1       0.555  -0.947  -2.325  0.00  0.00    +0.005 A 
ATOM     13  C   UNL     1       0.517  -2.321  -2.189  0.00  0.00    +0.028 A 
ATOM     14  C   UNL     1       0.433  -2.889  -0.925  0.00  0.00    +0.066 A 
ATOM     15  C   UNL     1       0.389  -2.074   0.199  0.00  0.00    +0.028 A 
ATOM     16  C   UNL     1       0.433  -0.701   0.056  0.00  0.00    +0.005 A 
ENDBRANCH   5  14
BRANCH   6  17
ATOM     17  C   UNL     1       1.710  -4.424   1.391  0.00  0.00    +0.435 C 
ATOM     18  F   UNL     1       0.826  -4.147   2.439  0.00  0.00    -0.164 F 
ATOM     19  F   UNL     1       2.662  -5.357   1.818  0.00  0.00    -0.164 F 
ATOM     20  F   UNL     1       2.355  -3.245   1.002  0.00  0.00    -0.164 F 
ENDBRANCH   6  17
ENDBRANCH   1   7
BRANCH   3  21
ATOM     21  C   UNL     1       1.168  -9.846   1.309  0.00  0.00    +0.094 C 
BRANCH  21  22
ATOM     22  C   UNL     1       0.564 -11.137   0.753  0.00  0.00    -0.019 C 
BRANCH  22  23
ATOM     23  C   UNL     1       1.150 -11.423  -0.605  0.00  0.00    -0.041 A 
ATOM     24  C   UNL     1       0.488 -11.006  -1.745  0.00  0.00    +0.003 A 
ATOM     25  C   UNL     1       1.026 -11.267  -2.991  0.00  0.00    +0.000 A 
ATOM     26  C   UNL     1       2.226 -11.946  -3.099  0.00  0.00    +0.001 A 
ATOM     27  C   UNL     1       2.888 -12.363  -1.960  0.00  0.00    +0.020 A 
ATOM     28  C   UNL     1       2.353 -12.097  -0.712  0.00  0.00    +0.043 A 
ATOM     29 CL   UNL     1       3.188 -12.615   0.719  0.00  0.00    -0.083 Cl
ENDBRANCH  22  23
BRANCH  22  30
ATOM     30  N   UNL     1      -0.893 -10.985   0.636  0.00  0.00    +0.385 N 
ATOM     31  C   UNL     1      -1.507 -12.264   0.196  0.00  0.00    -0.078 C 
ATOM     32  C   UNL     1      -2.980 -12.126   0.657  0.00  0.00    -0.020 C 
ATOM     33  C   UNL     1      -2.851 -11.393   2.012  0.00  0.00    -0.020 C 
ATOM     34  C   UNL     1      -1.483 -10.689   1.960  0.00  0.00    -0.078 C 
ATOM     35  H   UNL     1      -1.115 -10.248  -0.017  0.00  0.00    -0.081 HD
ENDBRANCH  22  30
ENDBRANCH  21  22
ENDBRANCH   3  21
TORSDOF 7
