REMARK  Name = ZINC14472528
REMARK  3 active torsions:
REMARK  status: ('A' for Active; 'I' for Inactive)
REMARK    1  A    between atoms: C_4  and  C_10
REMARK    2  A    between atoms: C_6  and  N_7
REMARK    3  A    between atoms: C_21  and  O_26
REMARK                            x       y       z     vdW  Elec       q    Type
REMARK                         _______ _______ _______ _____ _____    ______ ____
ROOT
ATOM      1  C   UNL     1      -1.995   0.671  -1.438  0.00  0.00    +0.106 C 
ATOM      2  C   UNL     1      -0.505   0.941  -1.205  0.00  0.00    +0.029 C 
ATOM      3  C   UNL     1       0.029  -0.184  -0.270  0.00  0.00    +0.033 C 
ATOM      4  C   UNL     1      -0.356   0.294   1.117  0.00  0.00    -0.030 C 
ATOM      5  C   UNL     1      -0.554   1.593   1.113  0.00  0.00    -0.023 C 
ATOM      6  C   UNL     1      -0.330   2.154  -0.271  0.00  0.00    +0.049 C 
ATOM      7  C   UNL     1      -1.283   3.266  -0.571  0.00  0.00    -0.016 A 
ATOM      8  C   UNL     1      -1.074   4.502   0.026  0.00  0.00    +0.051 A 
ATOM      9  C   UNL     1      -1.931   5.558  -0.225  0.00  0.00    +0.117 A 
ATOM     10  C   UNL     1      -3.011   5.392  -1.080  0.00  0.00    +0.047 A 
ATOM     11  C   UNL     1      -3.227   4.166  -1.677  0.00  0.00    +0.027 A 
ATOM     12  C   UNL     1      -2.366   3.106  -1.421  0.00  0.00    +0.032 A 
ATOM     13  N   UNL     1      -2.606   1.866  -2.030  0.00  0.00    -0.336 N 
ATOM     14  H   UNL     1      -3.161   1.800  -2.823  0.00  0.00    +0.147 HD
ENDROOT
BRANCH   1  18
ATOM     15  C   UNL     1      -3.891  -0.207   2.289  0.00  0.00    +0.034 A 
ATOM     16  C   UNL     1      -3.433  -1.236   1.488  0.00  0.00    +0.022 A 
ATOM     17  C   UNL     1      -2.823  -0.953   0.279  0.00  0.00    +0.046 A 
ATOM     18  C   UNL     1      -2.663   0.361  -0.123  0.00  0.00    -0.007 A 
ATOM     19  C   UNL     1      -3.122   1.390   0.678  0.00  0.00    +0.039 A 
ATOM     20  C   UNL     1      -3.735   1.105   1.884  0.00  0.00    +0.127 A 
ATOM     21 CL   UNL     1      -2.253  -2.245  -0.731  0.00  0.00    -0.083 Cl
BRANCH  20  22
ATOM     22  N   UNL     1      -4.226   2.207   2.742  0.00  0.00    +0.056 N 
ATOM     23  O   UNL     1      -4.089   3.364   2.386  0.00  0.00    -0.126 OA
ATOM     24  O   UNL     1      -4.767   1.957   3.804  0.00  0.00    -0.126 OA
ENDBRANCH  20  22
ENDBRANCH   1  18
BRANCH   9  25
ATOM     25  O   UNL     1      -1.714   6.763   0.367  0.00  0.00    -0.507 OA
ATOM     26  H   UNL     1      -1.148   7.357  -0.145  0.00  0.00    +0.292 HD
ENDBRANCH   9  25
TORSDOF 3
