REMARK  Name = ZINC13304779
REMARK  6 active torsions:
REMARK  status: ('A' for Active; 'I' for Inactive)
REMARK    1  A    between atoms: C_1  and  C_2
REMARK    2  A    between atoms: C_2  and  C_14
REMARK    3  A    between atoms: N_3  and  N_4
REMARK    4  A    between atoms: N_4  and  C_5
REMARK    5  A    between atoms: C_8  and  N_11
REMARK    6  A    between atoms: C_18  and  N_20
REMARK                            x       y       z     vdW  Elec       q    Type
REMARK                         _______ _______ _______ _____ _____    ______ ____
ROOT
ATOM      1  C   UNL     1      -0.018   1.503   0.010  0.00  0.00    +0.068 C 
ATOM      2  C   UNL     1       0.002  -0.004   0.002  0.00  0.00    +0.063 C 
ATOM      3  N   UNL     1       0.022  -0.659   1.123  0.00  0.00    -0.187 NA
ENDROOT
BRANCH   2   4
ATOM      4  C   UNL     1      -0.000  -0.734  -1.279  0.00  0.00    -0.001 A 
ATOM      5  C   UNL     1      -0.015  -0.032  -2.487  0.00  0.00    +0.010 A 
ATOM      6  C   UNL     1      -0.017  -0.718  -3.684  0.00  0.00    +0.002 A 
ATOM      7  C   UNL     1      -0.003  -2.100  -3.694  0.00  0.00    +0.023 A 
ATOM      8  C   UNL     1       0.011  -2.809  -2.498  0.00  0.00    +0.025 A 
ATOM      9  C   UNL     1       0.019  -2.130  -1.290  0.00  0.00    +0.032 A 
BRANCH   8  10
ATOM     10  N   UNL     1       0.024  -4.206  -2.515  0.00  0.00    -0.358 N 
ATOM     11  H   UNL     1       0.022  -4.681  -3.360  0.00  0.00    +0.142 HD
ATOM     12  H   UNL     1       0.034  -4.701  -1.680  0.00  0.00    +0.142 HD
ENDBRANCH   8  10
ENDBRANCH   2   4
BRANCH   3  13
ATOM     13  N   UNL     1       0.024   0.035   2.340  0.00  0.00    -0.238 N 
ATOM     14  H   UNL     1       0.011   1.005   2.345  0.00  0.00    +0.174 HD
BRANCH  13  15
ATOM     15  C   UNL     1       0.045  -0.669   3.544  0.00  0.00    +0.048 A 
ATOM     16  C   UNL     1       0.069  -2.059   3.538  0.00  0.00    +0.027 A 
ATOM     17  C   UNL     1       0.091  -2.752   4.732  0.00  0.00    +0.034 A 
ATOM     18  C   UNL     1       0.087  -2.066   5.933  0.00  0.00    +0.126 A 
ATOM     19  C   UNL     1       0.062  -0.683   5.943  0.00  0.00    +0.034 A 
ATOM     20  C   UNL     1       0.047   0.017   4.753  0.00  0.00    +0.027 A 
BRANCH  18  21
ATOM     21  N   UNL     1       0.110  -2.813   7.211  0.00  0.00    +0.056 N 
ATOM     22  O   UNL     1       0.132  -4.021   7.204  0.00  0.00    -0.126 OA
ATOM     23  O   UNL     1       0.107  -2.214   8.261  0.00  0.00    -0.126 OA
ENDBRANCH  18  21
ENDBRANCH  13  15
ENDBRANCH   3  13
TORSDOF 5
