REMARK  Name = ZINC10067455
REMARK  10 active torsions:
REMARK  status: ('A' for Active; 'I' for Inactive)
REMARK    1  A    between atoms: C_1  and  C_2
REMARK    2  A    between atoms: C_2  and  N_52
REMARK    3  A    between atoms: C_3  and  C_4
REMARK    4  A    between atoms: C_3  and  N_52
REMARK    5  A    between atoms: C_5  and  C_6
REMARK    6  A    between atoms: C_5  and  N_52
REMARK    7  A    between atoms: C_6  and  N_7
REMARK    8  A    between atoms: C_19  and  C_21
REMARK    9  A    between atoms: C_23  and  N_30
REMARK   10  A    between atoms: C_25  and  N_27
REMARK                            x       y       z     vdW  Elec       q    Type
REMARK                         _______ _______ _______ _____ _____    ______ ____
ROOT
ATOM      1  N   UNL     1      -1.790   5.247  -0.996  0.00  0.00    -0.248 N 
ATOM      2  C   UNL     1      -2.013   6.498  -1.546  0.00  0.00    +0.168 A 
ATOM      3  N   UNL     1      -3.082   6.949  -2.160  0.00  0.00    -0.221 NA
ATOM      4  C   UNL     1      -3.162   8.206  -2.651  0.00  0.00    +0.116 A 
ATOM      5  C   UNL     1      -4.247   8.812  -3.328  0.00  0.00    +0.152 A 
ATOM      6  C   UNL     1      -4.164  10.110  -3.765  0.00  0.00    +0.079 A 
ATOM      7  C   UNL     1      -3.020  10.872  -3.561  0.00  0.00    +0.127 A 
ATOM      8  C   UNL     1      -1.940  10.309  -2.903  0.00  0.00    +0.055 A 
ATOM      9  C   UNL     1      -2.016   9.010  -2.462  0.00  0.00    +0.046 A 
ATOM     10  S   UNL     1      -0.922   7.913  -1.594  0.00  0.00    -0.052 S 
ATOM     11  F   UNL     1      -2.962  12.148  -4.001  0.00  0.00    -0.205 F 
ATOM     12  F   UNL     1      -5.378   8.105  -3.546  0.00  0.00    -0.203 F 
ATOM     13  C   UNL     1      -2.751   4.304  -1.056  0.00  0.00    +0.252 C 
ATOM     14  O   UNL     1      -3.758   4.502  -1.707  0.00  0.00    -0.270 OA
ENDROOT
BRANCH  13  15
ATOM     15  C   UNL     1      -2.580   3.028  -0.330  0.00  0.00    +0.042 A 
ATOM     16  C   UNL     1      -1.399   2.296  -0.466  0.00  0.00    +0.046 A 
ATOM     17  C   UNL     1      -1.248   1.104   0.211  0.00  0.00    +0.129 A 
ATOM     18  C   UNL     1      -2.264   0.631   1.022  0.00  0.00    +0.065 A 
ATOM     19  C   UNL     1      -3.438   1.351   1.161  0.00  0.00    +0.129 A 
ATOM     20  C   UNL     1      -3.602   2.546   0.490  0.00  0.00    +0.046 A 
BRANCH  19  21
ATOM     21  N   UNL     1      -4.520   0.838   2.031  0.00  0.00    +0.057 N 
ATOM     22  O   UNL     1      -5.553   1.471   2.155  0.00  0.00    -0.126 OA
ATOM     23  O   UNL     1      -4.377  -0.216   2.623  0.00  0.00    -0.126 OA
ENDBRANCH  19  21
BRANCH  17  24
ATOM     24  N   UNL     1       0.005   0.328   0.069  0.00  0.00    +0.057 N 
ATOM     25  O   UNL     1       0.093  -0.781   0.564  0.00  0.00    -0.126 OA
ATOM     26  O   UNL     1       0.947   0.798  -0.544  0.00  0.00    -0.126 OA
ENDBRANCH  17  24
ENDBRANCH  13  15
BRANCH   1  27
ATOM     27  C   UNL     1      -0.510   4.949  -0.349  0.00  0.00    +0.097 C 
BRANCH  27  28
ATOM     28  C   UNL     1       0.632   5.220  -1.330  0.00  0.00    -0.059 C 
BRANCH  28  29
ATOM     29  N   UNL     1       1.668   6.017  -0.639  0.00  0.00    +0.380 N 
ATOM     30  H   UNL     1       1.210   6.699  -0.025  0.00  0.00    -0.082 HD
BRANCH  29  32
ATOM     31  C   UNL     1       3.234   4.105  -0.705  0.00  0.00    -0.017 C 
ATOM     32  C   UNL     1       2.524   5.132   0.179  0.00  0.00    -0.082 C 
ENDBRANCH  29  32
BRANCH  29  33
ATOM     33  C   UNL     1       2.492   6.741  -1.630  0.00  0.00    -0.082 C 
ATOM     34  C   UNL     1       3.462   7.663  -0.888  0.00  0.00    -0.017 C 
ENDBRANCH  29  33
ENDBRANCH  28  29
ENDBRANCH  27  28
ENDBRANCH   1  27
TORSDOF 8
