REMARK  Name = ZINC49067561
REMARK  1 active torsions:
REMARK  status: ('A' for Active; 'I' for Inactive)
REMARK    1  A    between atoms: C_11  and  C_14
REMARK                            x       y       z     vdW  Elec       q    Type
REMARK                         _______ _______ _______ _____ _____    ______ ____
ROOT
ATOM      1  C   UNL     1      -0.017   1.382   0.010  0.00  0.00    +0.022 A 
ATOM      2  C   UNL     1       1.164   2.101   0.002  0.00  0.00    +0.025 A 
ATOM      3  C   UNL     1       2.374   1.430  -0.012  0.00  0.00    +0.041 A 
ATOM      4  C   UNL     1       2.398   0.024  -0.015  0.00  0.00    +0.059 A 
ATOM      5  C   UNL     1       1.202  -0.689  -0.011  0.00  0.00    +0.035 A 
ATOM      6  C   UNL     1       0.002  -0.004   0.002  0.00  0.00    +0.042 A 
ATOM      7 CL   UNL     1      -1.493  -0.886   0.008  0.00  0.00    -0.084 Cl
ATOM      8  C   UNL     1       3.706  -0.656  -0.019  0.00  0.00    +0.247 C 
ATOM      9  O   UNL     1       3.782  -1.844   0.229  0.00  0.00    -0.270 OA
ATOM     10  N   UNL     1       4.817   0.055  -0.301  0.00  0.00    -0.289 N 
ATOM     11  C   UNL     1       4.739   1.466  -0.680  0.00  0.00    +0.196 C 
ATOM     12  N   UNL     1       3.590   2.105  -0.027  0.00  0.00    -0.321 N 
ATOM     13  H   UNL     1       5.684  -0.377  -0.251  0.00  0.00    +0.151 HD
ATOM     14  H   UNL     1       3.677   2.979   0.385  0.00  0.00    +0.148 HD
ENDROOT
BRANCH  11  15
ATOM     15  C   UNL     1       4.582   1.573  -2.175  0.00  0.00    +0.029 A 
ATOM     16  C   UNL     1       5.030   0.736  -3.142  0.00  0.00    +0.016 A 
ATOM     17  C   UNL     1       4.766   1.038  -4.465  0.00  0.00    +0.028 A 
ATOM     18  C   UNL     1       4.065   2.162  -4.756  0.00  0.00    +0.078 A 
ATOM     19  S   UNL     1       3.750   2.831  -3.130  0.00  0.00    -0.078 S 
ATOM     20 CL   UNL     1       3.592   2.786  -6.305  0.00  0.00    -0.076 Cl
ENDBRANCH  11  15
TORSDOF 1
