REMARK  Name = ZINC40812366
REMARK  5 active torsions:
REMARK  status: ('A' for Active; 'I' for Inactive)
REMARK    1  A    between atoms: C_1  and  C_2
REMARK    2  A    between atoms: C_6  and  C_7
REMARK    3  A    between atoms: N_9  and  C_10
REMARK    4  A    between atoms: N_22  and  N_23
REMARK    5  A    between atoms: C_24  and  C_26
REMARK                            x       y       z     vdW  Elec       q    Type
REMARK                         _______ _______ _______ _____ _____    ______ ____
ROOT
ATOM      1  C   UNL     1      -0.014   1.502   0.010  0.00  0.00    +0.048 C 
ATOM      2  C   UNL     1      -0.003  -0.005   0.002  0.00  0.00    +0.009 A 
ATOM      3  C   UNL     1      -0.007  -0.839  -1.123  0.00  0.00    +0.042 A 
ATOM      4  C   UNL     1       0.005  -2.138  -0.672  0.00  0.00    +0.115 A 
ATOM      5  O   UNL     1       0.019  -2.112   0.658  0.00  0.00    -0.454 OA
ATOM      6  C   UNL     1       0.018  -0.831   1.091  0.00  0.00    +0.193 A 
ATOM      7  C   UNL     1      -0.000  -3.328  -1.599  0.00  0.00    +0.075 C 
ATOM      8  C   UNL     1      -0.528  -2.901  -2.971  0.00  0.00    +0.014 C 
ATOM      9  C   UNL     1       0.248  -1.688  -3.495  0.00  0.00    +0.058 C 
ATOM     10  C   UNL     1      -0.019  -0.513  -2.566  0.00  0.00    +0.070 C 
ATOM     11  N   UNL     1      -0.241   0.687  -3.007  0.00  0.00    -0.184 NA
ENDROOT
BRANCH   6  12
ATOM     12  C   UNL     1       0.034  -0.400   2.493  0.00  0.00    +0.284 C 
ATOM     13  O   UNL     1       0.029   0.786   2.765  0.00  0.00    -0.266 OA
ATOM     14  N   UNL     1       0.054  -1.317   3.480  0.00  0.00    -0.279 N 
ATOM     15  H   UNL     1      -0.010  -2.261   3.266  0.00  0.00    +0.155 HD
BRANCH  14  16
ATOM     16  C   UNL     1       0.167  -0.909   4.812  0.00  0.00    +0.037 A 
ATOM     17  C   UNL     1       0.887  -1.677   5.717  0.00  0.00    +0.043 A 
ATOM     18  C   UNL     1       0.998  -1.271   7.034  0.00  0.00    +0.044 A 
ATOM     19  C   UNL     1       0.390  -0.100   7.451  0.00  0.00    +0.040 A 
ATOM     20  C   UNL     1      -0.329   0.668   6.551  0.00  0.00    +0.044 A 
ATOM     21  C   UNL     1      -0.437   0.269   5.232  0.00  0.00    +0.043 A 
ATOM     22 CL   UNL     1      -1.090   2.136   7.079  0.00  0.00    -0.083 Cl
ATOM     23 CL   UNL     1       1.899  -2.231   8.165  0.00  0.00    -0.083 Cl
ENDBRANCH  14  16
ENDBRANCH   6  12
BRANCH  11  24
ATOM     24  N   UNL     1      -0.241   0.938  -4.385  0.00  0.00    -0.203 N 
ATOM     25  C   UNL     1      -0.471   2.184  -4.843  0.00  0.00    +0.266 C 
ATOM     26  O   UNL     1      -0.680   3.091  -4.060  0.00  0.00    -0.268 OA
ATOM     27  H   UNL     1      -0.074   0.214  -5.010  0.00  0.00    +0.178 HD
BRANCH  25  28
ATOM     28  C   UNL     1      -0.471   2.449  -6.296  0.00  0.00    +0.073 A 
ATOM     29  C   UNL     1      -0.237   1.409  -7.199  0.00  0.00    +0.016 A 
ATOM     30  C   UNL     1      -0.238   1.662  -8.554  0.00  0.00    +0.001 A 
ATOM     31  C   UNL     1      -0.470   2.945  -9.022  0.00  0.00    +0.003 A 
ATOM     32  C   UNL     1      -0.703   3.980  -8.137  0.00  0.00    +0.039 A 
ATOM     33  C   UNL     1      -0.710   3.740  -6.775  0.00  0.00    +0.136 A 
ATOM     34  F   UNL     1      -0.942   4.752  -5.910  0.00  0.00    -0.205 F 
ENDBRANCH  25  28
ENDBRANCH  11  24
TORSDOF 4
