REMARK  Name = ZINC44367263
REMARK  10 active torsions:
REMARK  status: ('A' for Active; 'I' for Inactive)
REMARK    1  A    between atoms: C_1  and  C_2
REMARK    2  A    between atoms: C_9  and  N_14
REMARK    3  A    between atoms: C_15  and  C_17
REMARK    4  A    between atoms: C_17  and  C_19
REMARK    5  A    between atoms: C_17  and  O_20
REMARK    6  A    between atoms: O_20  and  C_21
REMARK    7  A    between atoms: C_25  and  C_27
REMARK    8  A    between atoms: C_27  and  C_28
REMARK    9  A    between atoms: C_27  and  C_29
REMARK   10  A    between atoms: C_27  and  C_30
REMARK                            x       y       z     vdW  Elec       q    Type
REMARK                         _______ _______ _______ _____ _____    ______ ____
ROOT
ATOM      1  N   UNL     1       0.222  -5.636   2.687  0.00  0.00    -0.282 N 
ATOM      2  C   UNL     1       1.255  -6.445   2.992  0.00  0.00    +0.258 C 
ATOM      3  O   UNL     1       2.376  -5.990   3.084  0.00  0.00    -0.271 OA
ATOM      4  H   UNL     1      -0.684  -5.983   2.688  0.00  0.00    +0.155 HD
ENDROOT
BRANCH   1  12
ATOM      5  C   UNL     1       2.627   1.462   0.758  0.00  0.00    +0.062 C 
ATOM      6  C   UNL     1       2.511   0.100   1.444  0.00  0.00    +0.256 C 
ATOM      7  C   UNL     1       3.363  -0.905   0.712  0.00  0.00    +0.258 C 
ATOM      8  O   UNL     1       4.354  -0.543   0.114  0.00  0.00    -0.271 OA
ATOM      9  N   UNL     1       3.018  -2.211   0.724  0.00  0.00    -0.279 N 
ATOM     10  C   UNL     1       1.848  -2.599   1.392  0.00  0.00    +0.077 A 
ATOM     11  C   UNL     1       1.621  -3.928   1.706  0.00  0.00    +0.050 A 
ATOM     12  C   UNL     1       0.456  -4.292   2.367  0.00  0.00    +0.035 A 
ATOM     13  C   UNL     1      -0.478  -3.324   2.713  0.00  0.00    +0.027 A 
ATOM     14  C   UNL     1      -0.252  -1.996   2.400  0.00  0.00    +0.049 A 
ATOM     15  C   UNL     1       0.909  -1.629   1.741  0.00  0.00    +0.143 A 
ATOM     16  O   UNL     1       1.146  -0.326   1.430  0.00  0.00    -0.478 OA
ATOM     17  H   UNL     1       3.570  -2.871   0.276  0.00  0.00    +0.155 HD
ENDBRANCH   1  12
BRANCH   2  18
ATOM     18  C   UNL     1       1.018  -7.916   3.220  0.00  0.00    +0.256 C 
ATOM     19  C   UNL     1       0.539  -8.563   1.919  0.00  0.00    +0.062 C 
BRANCH  18  20
ATOM     20  O   UNL     1       2.236  -8.535   3.641  0.00  0.00    -0.480 OA
BRANCH  20  21
ATOM     21  C   UNL     1       2.127  -9.679   4.365  0.00  0.00    +0.122 A 
ATOM     22  C   UNL     1       3.261 -10.268   4.908  0.00  0.00    +0.046 A 
ATOM     23  C   UNL     1       3.148 -11.431   5.645  0.00  0.00    +0.004 A 
ATOM     24  C   UNL     1       1.907 -12.008   5.842  0.00  0.00    +0.004 A 
ATOM     25  C   UNL     1       0.777 -11.425   5.302  0.00  0.00    -0.039 A 
ATOM     26  C   UNL     1       0.883 -10.258   4.569  0.00  0.00    +0.049 A 
BRANCH  25  27
ATOM     27  C   UNL     1      -0.574 -12.057   5.518  0.00  0.00    -0.013 C 
ATOM     28  C   UNL     1      -0.414 -13.324   6.361  0.00  0.00    +0.015 C 
ATOM     29  C   UNL     1      -1.488 -11.071   6.247  0.00  0.00    +0.015 C 
ATOM     30  C   UNL     1      -1.190 -12.419   4.165  0.00  0.00    +0.015 C 
ENDBRANCH  25  27
ENDBRANCH  20  21
ENDBRANCH  18  20
ENDBRANCH   2  18
TORSDOF 5
