REMARK  Name = ZINC19822592
REMARK  7 active torsions:
REMARK  status: ('A' for Active; 'I' for Inactive)
REMARK    1  A    between atoms: C_1  and  C_2
REMARK    2  A    between atoms: C_2  and  C_3
REMARK    3  A    between atoms: C_2  and  C_4
REMARK    4  A    between atoms: C_2  and  C_5
REMARK    5  A    between atoms: C_8  and  S_11
REMARK    6  A    between atoms: S_11  and  C_14
REMARK    7  A    between atoms: C_14  and  C_15
REMARK                            x       y       z     vdW  Elec       q    Type
REMARK                         _______ _______ _______ _____ _____    ______ ____
ROOT
ATOM      1  C   UNL     1       0.190   6.604  -2.062  0.00  0.00    +0.268 C 
ENDROOT
BRANCH   1   2
ATOM      2  C   UNL     1      -0.643   5.779  -1.115  0.00  0.00    +0.233 C 
ATOM      3  N   UNL     1      -1.902   5.645  -1.353  0.00  0.00    -0.144 NA
ATOM      4  N   UNL     1      -2.775   4.968  -0.513  0.00  0.00    -0.200 N 
ATOM      5  C   UNL     1      -2.525   3.862   0.103  0.00  0.00    +0.267 C 
ATOM      6  C   UNL     1      -1.240   3.142   0.035  0.00  0.00    +0.081 A 
ATOM      7  C   UNL     1      -1.220   1.748   0.017  0.00  0.00    +0.017 A 
ATOM      8  C   UNL     1      -0.013   1.076   0.008  0.00  0.00    +0.001 A 
ATOM      9  C   UNL     1       1.176   1.781   0.000  0.00  0.00    +0.004 A 
ATOM     10  C   UNL     1       1.166   3.166  -0.006  0.00  0.00    +0.047 A 
ATOM     11  C   UNL     1      -0.035   3.850   0.005  0.00  0.00    +0.142 A 
ATOM     12  O   UNL     1      -0.043   5.210  -0.048  0.00  0.00    -0.438 OA
ATOM     13  O   UNL     1      -3.509   3.326   0.863  0.00  0.00    -0.268 OA
ATOM     14  H   UNL     1      -3.781   5.372  -0.325  0.00  0.00    +0.178 HD
ENDBRANCH   1   2
BRANCH   1  15
ATOM     15  S   UNL     1      -0.863   7.244  -3.393  0.00  0.00    +0.006 S 
ATOM     16  O   UNL     1      -1.312   6.178  -4.218  0.00  0.00    -0.169 OA
ATOM     17  O   UNL     1      -1.782   8.196  -2.876  0.00  0.00    -0.169 OA
BRANCH  15  21
ATOM     18  C   UNL     1       1.925   9.648  -6.028  0.00  0.00    -0.042 A 
ATOM     19  C   UNL     1       1.728   8.303  -6.277  0.00  0.00    +0.006 A 
ATOM     20  C   UNL     1       0.876   7.569  -5.472  0.00  0.00    +0.027 A 
ATOM     21  C   UNL     1       0.222   8.180  -4.419  0.00  0.00    +0.089 A 
ATOM     22  C   UNL     1       0.415   9.527  -4.173  0.00  0.00    +0.027 A 
ATOM     23  C   UNL     1       1.270  10.259  -4.975  0.00  0.00    +0.006 A 
BRANCH  18  25
ATOM     24  C   UNL     1       2.350  10.409  -8.350  0.00  0.00    +0.015 C 
ATOM     25  C   UNL     1       2.853  10.448  -6.905  0.00  0.00    -0.013 C 
ATOM     26  C   UNL     1       2.891  11.898  -6.418  0.00  0.00    +0.015 C 
ATOM     27  C   UNL     1       4.260   9.850  -6.838  0.00  0.00    +0.015 C 
ENDBRANCH  18  25
ENDBRANCH  15  21
ENDBRANCH   1  15
TORSDOF 4
