REMARK  Name = ZINC16937197
REMARK  9 active torsions:
REMARK  status: ('A' for Active; 'I' for Inactive)
REMARK    1  A    between atoms: C_1  and  C_2
REMARK    2  A    between atoms: C_2  and  C_3
REMARK    3  A    between atoms: C_3  and  C_5
REMARK    4  A    between atoms: C_3  and  O_8
REMARK    5  A    between atoms: O_8  and  C_9
REMARK    6  A    between atoms: C_14  and  C_15
REMARK    7  A    between atoms: N_19  and  C_30
REMARK    8  A    between atoms: N_21  and  C_22
REMARK    9  A    between atoms: C_26  and  O_28
REMARK                            x       y       z     vdW  Elec       q    Type
REMARK                         _______ _______ _______ _____ _____    ______ ____
ROOT
ATOM      1  C   UNL     1       4.945   0.521  -1.234  0.00  0.00    +0.032 C 
ATOM      2  C   UNL     1       6.250   0.894  -1.268  0.00  0.00    +0.078 C 
ATOM      3  C   UNL     1       7.164   1.205  -0.153  0.00  0.00    +0.259 C 
ATOM      4  O   UNL     1       6.796   1.150   1.006  0.00  0.00    -0.269 OA
ATOM      5  N   UNL     1       8.402   1.546  -0.469  0.00  0.00    -0.249 N 
ATOM      6  C   UNL     1       8.800   1.602  -1.788  0.00  0.00    +0.168 C 
ATOM      7  N   UNL     1       9.979   1.919  -2.272  0.00  0.00    -0.225 NA
ATOM      8  S   UNL     1       7.324   1.131  -2.676  0.00  0.00    -0.049 S 
ATOM      9  C   UNL     1       9.360   1.867   0.591  0.00  0.00    +0.140 C 
ENDROOT
BRANCH   1  15
ATOM     10  C   UNL     1       2.977  -0.304  -2.518  0.00  0.00    +0.129 A 
ATOM     11  C   UNL     1       2.256  -0.380  -3.699  0.00  0.00    +0.046 A 
ATOM     12  C   UNL     1       2.717   0.259  -4.834  0.00  0.00    +0.004 A 
ATOM     13  C   UNL     1       3.900   0.980  -4.803  0.00  0.00    +0.001 A 
ATOM     14  C   UNL     1       4.631   1.067  -3.639  0.00  0.00    +0.011 A 
ATOM     15  C   UNL     1       4.175   0.428  -2.480  0.00  0.00    +0.018 A 
BRANCH  10  16
ATOM     16  O   UNL     1       2.526  -0.932  -1.402  0.00  0.00    -0.477 OA
BRANCH  16  17
ATOM     17  C   UNL     1       1.315  -1.681  -1.524  0.00  0.00    +0.285 C 
BRANCH  17  18
ATOM     18  C   UNL     1       1.619  -3.036  -2.110  0.00  0.00    +0.396 C 
ATOM     19  O   UNL     1       0.710  -3.801  -2.382  0.00  0.00    -0.242 OA
ATOM     20  O   UNL     1       2.775  -3.367  -2.311  0.00  0.00    -0.242 OA
ENDBRANCH  17  18
BRANCH  17  22
ATOM     21  C   UNL     1       0.258  -0.486   0.399  0.00  0.00    +0.008 C 
ATOM     22  C   UNL     1       0.681  -1.853  -0.143  0.00  0.00    +0.053 C 
ENDBRANCH  17  22
ENDBRANCH  16  17
ENDBRANCH  10  16
ENDBRANCH   1  15
BRANCH   7  23
ATOM     23  C   UNL     1      10.186   1.918  -3.625  0.00  0.00    +0.070 A 
ATOM     24  C   UNL     1       9.710   0.863  -4.407  0.00  0.00    +0.028 A 
ATOM     25  C   UNL     1       9.920   0.866  -5.770  0.00  0.00    +0.006 A 
ATOM     26  C   UNL     1      10.600   1.912  -6.367  0.00  0.00    +0.045 A 
ATOM     27  C   UNL     1      11.076   2.966  -5.598  0.00  0.00    +0.119 A 
ATOM     28  C   UNL     1      10.867   2.976  -4.230  0.00  0.00    +0.073 A 
BRANCH  27  29
ATOM     29  O   UNL     1      11.744   3.991  -6.191  0.00  0.00    -0.507 OA
ATOM     30  H   UNL     1      11.175   4.717  -6.478  0.00  0.00    +0.292 HD
ENDBRANCH  27  29
ENDBRANCH   7  23
TORSDOF 7
