REMARK  Name = ZINC40362260
REMARK  20 active torsions:
REMARK  status: ('A' for Active; 'I' for Inactive)
REMARK    1  A    between atoms: C_1  and  C_2
REMARK    2  A    between atoms: C_2  and  C_3
REMARK    3  A    between atoms: C_3  and  C_4
REMARK    4  A    between atoms: C_4  and  C_5
REMARK    5  A    between atoms: C_8  and  C_11
REMARK    6  A    between atoms: C_11  and  O_13
REMARK    7  A    between atoms: O_13  and  C_14
REMARK    8  A    between atoms: C_17  and  C_22
REMARK    9  A    between atoms: C_19  and  O_20
REMARK   10  A    between atoms: O_20  and  C_21
REMARK   11  A    between atoms: C_23  and  N_32
REMARK   12  A    between atoms: C_27  and  C_31
REMARK   13  A    between atoms: N_32  and  C_33
REMARK   14  A    between atoms: C_33  and  C_34
REMARK   15  A    between atoms: C_33  and  C_35
REMARK   16  A    between atoms: C_33  and  C_36
REMARK   17  A    between atoms: C_36  and  C_37
REMARK   18  A    between atoms: C_37  and  C_38
REMARK   19  A    between atoms: C_37  and  C_39
REMARK   20  A    between atoms: C_37  and  C_40
REMARK                            x       y       z     vdW  Elec       q    Type
REMARK                         _______ _______ _______ _____ _____    ______ ____
ROOT
ATOM      1  C   UNL     1       9.293  -9.491 -12.183  0.00  0.00    +0.173 A 
ATOM      2  C   UNL     1       8.566  -8.322 -12.005  0.00  0.00    +0.051 A 
ATOM      3  C   UNL     1       7.370  -8.143 -12.668  0.00  0.00    +0.014 A 
ATOM      4  C   UNL     1       6.888  -9.137 -13.519  0.00  0.00    +0.005 A 
ATOM      5  C   UNL     1       7.617 -10.312 -13.699  0.00  0.00    +0.059 A 
ATOM      6  C   UNL     1       8.819 -10.485 -13.036  0.00  0.00    +0.163 A 
ENDROOT
BRANCH   4   7
ATOM      7  C   UNL     1       5.602  -8.946 -14.231  0.00  0.00    +0.087 A 
ATOM      8  C   UNL     1       4.436  -8.458 -13.680  0.00  0.00    +0.129 A 
ATOM      9  N   UNL     1       3.502  -8.445 -14.679  0.00  0.00    -0.289 N 
ATOM     10  C   UNL     1       2.187  -8.065 -14.706  0.00  0.00    +0.094 A 
ATOM     11  C   UNL     1       1.471  -8.152 -15.845  0.00  0.00    +0.021 A 
ATOM     12  C   UNL     1       2.067  -8.636 -17.023  0.00  0.00    -0.046 A 
ATOM     13  C   UNL     1       3.371  -9.018 -17.014  0.00  0.00    +0.048 A 
ATOM     14  C   UNL     1       4.112  -8.923 -15.816  0.00  0.00    +0.117 A 
ATOM     15  N   UNL     1       5.370  -9.212 -15.530  0.00  0.00    -0.338 N 
ATOM     16  C   UNL     1       1.260  -8.732 -18.293  0.00  0.00    +0.044 C 
ATOM     17  H   UNL     1       6.023  -9.562 -16.156  0.00  0.00    +0.167 HD
BRANCH   8  18
ATOM     18  N   UNL     1       4.245  -8.056 -12.357  0.00  0.00    -0.323 N 
ATOM     19  H   UNL     1       4.948  -8.191 -11.703  0.00  0.00    +0.148 HD
BRANCH  18  20
ATOM     20  C   UNL     1       2.983  -7.429 -11.957  0.00  0.00    +0.028 C 
ATOM     21  C   UNL     1       2.687  -6.244 -12.879  0.00  0.00    +0.031 C 
ATOM     22  C   UNL     1       1.850  -8.452 -12.062  0.00  0.00    +0.031 C 
BRANCH  20  23
ATOM     23  C   UNL     1       3.094  -6.937 -10.513  0.00  0.00    +0.031 C 
BRANCH  23  24
ATOM     24  C   UNL     1       3.929  -7.927  -9.699  0.00  0.00    -0.036 C 
ATOM     25  C   UNL     1       5.412  -7.725 -10.018  0.00  0.00    +0.010 C 
ATOM     26  C   UNL     1       3.692  -7.689  -8.207  0.00  0.00    +0.010 C 
ATOM     27  C   UNL     1       3.520  -9.356 -10.059  0.00  0.00    +0.010 C 
ENDBRANCH  23  24
ENDBRANCH  20  23
ENDBRANCH  18  20
ENDBRANCH   8  18
ENDBRANCH   4   7
BRANCH   6  28
ATOM     28  O   UNL     1       9.535 -11.627 -13.213  0.00  0.00    -0.491 OA
ATOM     29  C   UNL     1       8.990 -12.604 -14.102  0.00  0.00    +0.277 C 
ENDBRANCH   6  28
BRANCH   1  30
ATOM     30  O   UNL     1      10.472  -9.663 -11.528  0.00  0.00    -0.419 OA
BRANCH  30  31
ATOM     31  C   UNL     1      11.607  -9.320 -12.168  0.00  0.00    +0.345 C 
ATOM     32  O   UNL     1      11.565  -8.960 -13.327  0.00  0.00    -0.245 OA
BRANCH  31  36
ATOM     33  C   UNL     1      15.329  -9.500 -10.133  0.00  0.00    -0.047 A 
ATOM     34  C   UNL     1      15.285  -9.090 -11.453  0.00  0.00    +0.004 A 
ATOM     35  C   UNL     1      14.080  -9.029 -12.120  0.00  0.00    +0.015 A 
ATOM     36  C   UNL     1      12.901  -9.383 -11.460  0.00  0.00    +0.059 A 
ATOM     37  C   UNL     1      12.953  -9.798 -10.128  0.00  0.00    +0.015 A 
ATOM     38  C   UNL     1      14.166  -9.859  -9.474  0.00  0.00    +0.004 A 
BRANCH  33  39
ATOM     39  C   UNL     1      16.650  -9.564  -9.410  0.00  0.00    +0.035 C 
BRANCH  39  40
ATOM     40  C   UNL     1      17.270 -10.949  -9.602  0.00  0.00    +0.004 C 
BRANCH  40  42
ATOM     41  C   UNL     1      19.232 -12.399  -9.060  0.00  0.00    +0.004 C 
ATOM     42  C   UNL     1      18.611 -11.014  -8.868  0.00  0.00    -0.003 C 
ENDBRANCH  40  42
ENDBRANCH  39  40
ENDBRANCH  33  39
ENDBRANCH  31  36
ENDBRANCH  30  31
ENDBRANCH   1  30
TORSDOF 12
