REMARK  Name = ZINC07993038
REMARK  5 active torsions:
REMARK  status: ('A' for Active; 'I' for Inactive)
REMARK    1  A    between atoms: C_1  and  C_2
REMARK    2  A    between atoms: C_2  and  C_10
REMARK    3  A    between atoms: N_3  and  N_4
REMARK    4  A    between atoms: C_5  and  C_7
REMARK    5  A    between atoms: C_10  and  C_11
REMARK                            x       y       z     vdW  Elec       q    Type
REMARK                         _______ _______ _______ _____ _____    ______ ____
ROOT
ATOM      1  C   UNL     1       0.742   5.307   1.354  0.00  0.00    +0.062 C 
ATOM      2  C   UNL     1      -0.101   5.667   0.157  0.00  0.00    +0.034 C 
ATOM      3  N   UNL     1       0.384   6.408  -0.767  0.00  0.00    -0.189 NA
ENDROOT
BRANCH   3   4
ATOM      4  N   UNL     1       1.697   6.886  -0.666  0.00  0.00    -0.199 N 
ATOM      5  C   UNL     1       2.207   7.666  -1.639  0.00  0.00    +0.318 C 
ATOM      6  O   UNL     1       1.529   7.955  -2.603  0.00  0.00    -0.263 OA
ATOM      7  H   UNL     1       2.239   6.654   0.104  0.00  0.00    +0.178 HD
BRANCH   5   8
ATOM      8  C   UNL     1       3.607   8.175  -1.531  0.00  0.00    +0.298 C 
ATOM      9  O   UNL     1       4.285   7.885  -0.567  0.00  0.00    -0.265 OA
ATOM     10  N   UNL     1       4.117   8.955  -2.504  0.00  0.00    -0.322 N 
ATOM     11  H   UNL     1       3.575   9.187  -3.275  0.00  0.00    +0.145 HD
ATOM     12  H   UNL     1       5.026   9.286  -2.434  0.00  0.00    +0.145 HD
ENDBRANCH   5   8
ENDBRANCH   3   4
BRANCH   2  13
ATOM     13  C   UNL     1      -1.513   5.153   0.049  0.00  0.00    +0.059 C 
BRANCH  13  14
ATOM     14  C   UNL     1      -1.491   3.634  -0.130  0.00  0.00    -0.023 C 
ATOM     15  C   UNL     1      -0.594   3.273  -1.316  0.00  0.00    +0.011 C 
ATOM     16  C   UNL     1      -0.572   1.753  -1.494  0.00  0.00    -0.010 C 
ATOM     17  C   UNL     1      -0.027   1.098  -0.224  0.00  0.00    +0.007 C 
ATOM     18  C   UNL     1      -0.924   1.459   0.962  0.00  0.00    -0.010 C 
ATOM     19  C   UNL     1      -0.946   2.979   1.140  0.00  0.00    +0.011 C 
ATOM     20  C   UNL     1      -2.345   0.956   0.698  0.00  0.00    +0.007 C 
ATOM     21  C   UNL     1      -2.890   1.611  -0.573  0.00  0.00    -0.010 C 
ATOM     22  C   UNL     1      -1.992   1.250  -1.758  0.00  0.00    +0.007 C 
ATOM     23  C   UNL     1      -2.912   3.131  -0.394  0.00  0.00    +0.011 C 
ENDBRANCH  13  14
ENDBRANCH   2  13
TORSDOF 4
