REMARK  Name = ZINC36313783
REMARK  19 active torsions:
REMARK  status: ('A' for Active; 'I' for Inactive)
REMARK    1  A    between atoms: C_1  and  C_2
REMARK    2  A    between atoms: C_2  and  C_3
REMARK    3  A    between atoms: C_3  and  C_4
REMARK    4  A    between atoms: C_4  and  C_5
REMARK    5  A    between atoms: C_5  and  C_7
REMARK    6  A    between atoms: C_5  and  O_36
REMARK    7  A    between atoms: C_7  and  N_8
REMARK    8  A    between atoms: N_8  and  C_9
REMARK    9  A    between atoms: N_8  and  C_31
REMARK   10  A    between atoms: C_9  and  C_10
REMARK   11  A    between atoms: C_11  and  C_25
REMARK   12  A    between atoms: N_13  and  C_24
REMARK   13  A    between atoms: C_14  and  O_15
REMARK   14  A    between atoms: O_15  and  C_16
REMARK   15  A    between atoms: C_21  and  O_22
REMARK   16  A    between atoms: O_22  and  C_23
REMARK   17  A    between atoms: C_31  and  C_33
REMARK   18  A    between atoms: C_31  and  C_34
REMARK   19  A    between atoms: C_34  and  C_35
REMARK                            x       y       z     vdW  Elec       q    Type
REMARK                         _______ _______ _______ _____ _____    ______ ____
ROOT
ATOM      1  C   UNL     1       3.380  -5.652   4.709  0.00  0.00    +0.025 A 
ATOM      2  C   UNL     1       2.872  -5.793   6.014  0.00  0.00    +0.098 A 
ATOM      3  N   UNL     1       3.880  -6.044   6.821  0.00  0.00    -0.168 NA
ATOM      4  N   UNL     1       5.056  -6.070   6.060  0.00  0.00    -0.235 N 
ATOM      5  C   UNL     1       4.724  -5.832   4.765  0.00  0.00    +0.221 A 
ATOM      6  C   UNL     1       6.407  -6.316   6.571  0.00  0.00    +0.176 C 
ENDROOT
BRANCH   2   7
ATOM      7  C   UNL     1       1.446  -5.679   6.411  0.00  0.00    +0.002 A 
ATOM      8  C   UNL     1       0.640  -4.692   5.847  0.00  0.00    +0.010 A 
ATOM      9  C   UNL     1      -0.685  -4.590   6.220  0.00  0.00    +0.001 A 
ATOM     10  C   UNL     1      -1.213  -5.466   7.151  0.00  0.00    +0.000 A 
ATOM     11  C   UNL     1      -0.417  -6.447   7.714  0.00  0.00    +0.001 A 
ATOM     12  C   UNL     1       0.907  -6.562   7.345  0.00  0.00    +0.010 A 
ENDBRANCH   2   7
BRANCH   1  13
ATOM     13  C   UNL     1       2.574  -5.359   3.469  0.00  0.00    -0.035 C 
BRANCH  13  14
ATOM     14  N   UNL     1       2.561  -3.910   3.224  0.00  0.00    +0.386 N 
ATOM     15  H   UNL     1       2.261  -3.430   4.060  0.00  0.00    -0.081 HD
BRANCH  14  16
ATOM     16  C   UNL     1       3.913  -3.463   2.862  0.00  0.00    -0.071 C 
ATOM     17  C   UNL     1       4.399  -4.247   1.641  0.00  0.00    -0.013 C 
BRANCH  16  18
ATOM     18  C   UNL     1       3.885  -1.970   2.531  0.00  0.00    -0.019 C 
ATOM     19  C   UNL     1       3.603  -1.170   3.805  0.00  0.00    +0.002 C 
ENDBRANCH  16  18
ENDBRANCH  14  16
BRANCH  14  20
ATOM     20  C   UNL     1       1.635  -3.607   2.126  0.00  0.00    -0.046 C 
BRANCH  20  21
ATOM     21  C   UNL     1       1.047  -2.209   2.325  0.00  0.00    +0.098 C 
BRANCH  21  22
ATOM     22  O   UNL     1       1.278  -1.424   1.153  0.00  0.00    -0.394 OA
ATOM     23  H   UNL     1       0.695  -1.642   0.413  0.00  0.00    +0.210 HD
ENDBRANCH  21  22
BRANCH  21  24
ATOM     24  C   UNL     1      -0.458  -2.319   2.577  0.00  0.00    +0.029 C 
BRANCH  24  25
ATOM     25  C   UNL     1      -1.024  -0.934   2.899  0.00  0.00    +0.002 C 
BRANCH  25  27
ATOM     26  C   UNL     1      -3.095   0.340   3.474  0.00  0.00    +0.004 C 
ATOM     27  C   UNL     1      -2.529  -1.044   3.151  0.00  0.00    -0.003 C 
ENDBRANCH  25  27
ENDBRANCH  24  25
ENDBRANCH  21  24
ENDBRANCH  20  21
ENDBRANCH  14  20
ENDBRANCH  13  14
ENDBRANCH   1  13
BRANCH   5  28
ATOM     28  O   UNL     1       5.583  -5.781   3.715  0.00  0.00    -0.434 OA
BRANCH  28  29
ATOM     29  C   UNL     1       5.851  -6.938   3.053  0.00  0.00    +0.172 A 
ATOM     30  C   UNL     1       5.176  -8.101   3.386  0.00  0.00    +0.050 A 
ATOM     31  C   UNL     1       5.449  -9.276   2.711  0.00  0.00    +0.004 A 
ATOM     32  C   UNL     1       6.396  -9.294   1.704  0.00  0.00    +0.004 A 
ATOM     33  C   UNL     1       7.073  -8.137   1.367  0.00  0.00    +0.049 A 
ATOM     34  C   UNL     1       6.800  -6.955   2.035  0.00  0.00    +0.162 A 
BRANCH  34  35
ATOM     35  O   UNL     1       7.461  -5.814   1.700  0.00  0.00    -0.491 OA
ATOM     36  C   UNL     1       8.422  -5.907   0.646  0.00  0.00    +0.277 C 
ENDBRANCH  34  35
ENDBRANCH  28  29
ENDBRANCH   5  28
TORSDOF 14
