REMARK  Name = ZINC36260603
REMARK  3 active torsions:
REMARK  status: ('A' for Active; 'I' for Inactive)
REMARK    1  A    between atoms: C_4  and  C_7
REMARK    2  A    between atoms: C_7  and  C_8
REMARK    3  A    between atoms: N_10  and  C_11
REMARK                            x       y       z     vdW  Elec       q    Type
REMARK                         _______ _______ _______ _____ _____    ______ ____
ROOT
ATOM      1  C   UNL     1       3.726  -4.080  -3.435  0.00  0.00    +0.070 C 
ATOM      2  C   UNL     1       4.979  -4.460  -2.642  0.00  0.00    +0.003 C 
ATOM      3  C   UNL     1       5.147  -5.980  -2.661  0.00  0.00    -0.080 C 
ATOM      4  N   UNL     1       5.285  -6.444  -4.047  0.00  0.00    +0.383 N 
ATOM      5  C   UNL     1       4.058  -6.147  -4.796  0.00  0.00    -0.067 C 
ATOM      6  C   UNL     1       3.847  -4.632  -4.859  0.00  0.00    +0.010 C 
ATOM      7  C   UNL     1       4.182  -6.701  -6.218  0.00  0.00    -0.012 C 
ATOM      8  C   UNL     1       4.388  -8.216  -6.159  0.00  0.00    -0.001 C 
ATOM      9  C   UNL     1       3.192  -8.866  -5.461  0.00  0.00    -0.000 C 
ATOM     10  C   UNL     1       3.068  -8.313  -4.040  0.00  0.00    -0.001 C 
ATOM     11  C   UNL     1       2.863  -6.798  -4.098  0.00  0.00    -0.012 C 
ATOM     12  H   UNL     1       6.065  -5.974  -4.481  0.00  0.00    -0.085 HD
ATOM     13  H   UNL     1       5.449  -7.439  -4.053  0.00  0.00    -0.085 HD
ENDROOT
BRANCH   1  16
ATOM     14  C   UNL     1       2.999  -1.962  -2.475  0.00  0.00    +0.213 C 
ATOM     15  O   UNL     1       2.561  -2.576  -1.526  0.00  0.00    -0.276 OA
ATOM     16  N   UNL     1       3.601  -2.621  -3.485  0.00  0.00    -0.313 N 
ATOM     17  H   UNL     1       3.951  -2.130  -4.245  0.00  0.00    +0.149 HD
BRANCH  14  18
ATOM     18  C   UNL     1       2.870  -0.461  -2.526  0.00  0.00    +0.099 C 
BRANCH  18  22
ATOM     19  C   UNL     1      -0.019   1.526   0.010  0.00  0.00    +0.000 C 
ATOM     20  C   UNL     1       1.417   2.055  -0.000  0.00  0.00    +0.000 C 
ATOM     21  C   UNL     1       2.133   1.562  -1.259  0.00  0.00    +0.004 C 
ATOM     22  C   UNL     1       2.154   0.032  -1.268  0.00  0.00    -0.002 C 
ATOM     23  C   UNL     1       0.718  -0.497  -1.257  0.00  0.00    +0.004 C 
ATOM     24  C   UNL     1       0.002  -0.004   0.002  0.00  0.00    +0.000 C 
ENDBRANCH  18  22
ENDBRANCH  14  18
ENDBRANCH   1  16
TORSDOF 3
