REMARK  Name = ZINC36580956
REMARK  15 active torsions:
REMARK  status: ('A' for Active; 'I' for Inactive)
REMARK    1  A    between atoms: C_1  and  C_2
REMARK    2  A    between atoms: C_5  and  S_8
REMARK    3  A    between atoms: S_8  and  C_11
REMARK    4  A    between atoms: C_11  and  N_12
REMARK    5  A    between atoms: C_13  and  C_15
REMARK    6  A    between atoms: C_15  and  C_17
REMARK    7  A    between atoms: C_15  and  N_23
REMARK    8  A    between atoms: N_23  and  C_36
REMARK    9  A    between atoms: C_24  and  C_26
REMARK   10  A    between atoms: C_26  and  C_28
REMARK   11  A    between atoms: C_26  and  O_34
REMARK   12  A    between atoms: O_34  and  C_35
REMARK   13  A    between atoms: C_36  and  C_37
REMARK   14  A    between atoms: C_36  and  C_38
REMARK   15  A    between atoms: C_36  and  C_39
REMARK                            x       y       z     vdW  Elec       q    Type
REMARK                         _______ _______ _______ _____ _____    ______ ____
ROOT
ATOM      1  C   UNL     1       3.793  -5.258   2.415  0.00  0.00    +0.193 C 
ENDROOT
BRANCH   1   2
ATOM      2  C   UNL     1       5.289  -5.099   2.325  0.00  0.00    -0.018 A 
ATOM      3  C   UNL     1       6.106  -6.214   2.360  0.00  0.00    +0.006 A 
ATOM      4  C   UNL     1       7.478  -6.069   2.276  0.00  0.00    +0.000 A 
ATOM      5  C   UNL     1       8.034  -4.809   2.158  0.00  0.00    +0.000 A 
ATOM      6  C   UNL     1       7.217  -3.694   2.122  0.00  0.00    +0.000 A 
ATOM      7  C   UNL     1       5.845  -3.840   2.201  0.00  0.00    +0.006 A 
ENDBRANCH   1   2
BRANCH   1   9
ATOM      8  N   UNL     1       3.274  -3.931   0.393  0.00  0.00    -0.294 N 
ATOM      9  C   UNL     1       3.188  -5.108   1.043  0.00  0.00    +0.239 C 
ATOM     10  O   UNL     1       2.625  -6.048   0.523  0.00  0.00    -0.273 OA
ATOM     11  H   UNL     1       3.724  -3.179   0.809  0.00  0.00    +0.150 HD
BRANCH   8  12
ATOM     12  C   UNL     1       2.686  -3.786  -0.941  0.00  0.00    +0.278 C 
BRANCH  12  13
ATOM     13  S   UNL     1       1.017  -3.090  -0.793  0.00  0.00    +0.013 S 
ATOM     14  O   UNL     1       0.286  -3.779   0.212  0.00  0.00    -0.168 OA
ATOM     15  O   UNL     1       0.457  -2.884  -2.083  0.00  0.00    -0.168 OA
BRANCH  13  20
ATOM     16  C   UNL     1       1.838   2.459   1.431  0.00  0.00    +0.044 C 
ATOM     17  C   UNL     1       1.633   1.073   0.875  0.00  0.00    -0.050 A 
ATOM     18  C   UNL     1       1.623   0.871  -0.492  0.00  0.00    +0.005 A 
ATOM     19  C   UNL     1       1.435  -0.400  -1.002  0.00  0.00    +0.027 A 
ATOM     20  C   UNL     1       1.258  -1.470  -0.144  0.00  0.00    +0.090 A 
ATOM     21  C   UNL     1       1.269  -1.268   1.224  0.00  0.00    +0.027 A 
ATOM     22  C   UNL     1       1.461   0.003   1.733  0.00  0.00    +0.005 A 
ENDBRANCH  13  20
ENDBRANCH  12  13
ENDBRANCH   8  12
ENDBRANCH   1   9
BRANCH   1  23
ATOM     23  N   UNL     1       3.474  -6.584   2.948  0.00  0.00    -0.278 N 
ATOM     24  C   UNL     1       3.787  -7.688   2.241  0.00  0.00    +0.250 C 
ATOM     25  O   UNL     1       4.328  -7.582   1.160  0.00  0.00    -0.272 OA
BRANCH  23  26
ATOM     26  C   UNL     1       2.814  -6.712   4.250  0.00  0.00    +0.030 C 
ATOM     27  C   UNL     1       2.222  -5.361   4.655  0.00  0.00    +0.031 C 
ATOM     28  C   UNL     1       1.696  -7.751   4.156  0.00  0.00    +0.031 C 
ATOM     29  C   UNL     1       3.836  -7.155   5.298  0.00  0.00    +0.031 C 
ENDBRANCH  23  26
BRANCH  24  30
ATOM     30  C   UNL     1       3.465  -9.053   2.792  0.00  0.00    +0.233 C 
BRANCH  30  31
ATOM     31  C   UNL     1       4.515  -9.449   3.798  0.00  0.00    -0.010 A 
ATOM     32  C   UNL     1       5.852  -9.225   3.526  0.00  0.00    +0.006 A 
ATOM     33  C   UNL     1       6.815  -9.588   4.449  0.00  0.00    +0.000 A 
ATOM     34  C   UNL     1       6.441 -10.175   5.644  0.00  0.00    +0.000 A 
ATOM     35  C   UNL     1       5.104 -10.398   5.916  0.00  0.00    +0.000 A 
ATOM     36  C   UNL     1       4.141 -10.031   4.995  0.00  0.00    +0.006 A 
ENDBRANCH  30  31
BRANCH  30  37
ATOM     37  O   UNL     1       3.444 -10.004   1.726  0.00  0.00    -0.366 OA
ATOM     38  C   UNL     1       2.162 -10.163   1.114  0.00  0.00    +0.195 C 
ENDBRANCH  30  37
ENDBRANCH  24  30
ENDBRANCH   1  23
TORSDOF 10
