REMARK  Name = ZINC02886577
REMARK  4 active torsions:
REMARK  status: ('A' for Active; 'I' for Inactive)
REMARK    1  A    between atoms: C_3  and  C_9
REMARK    2  A    between atoms: N_11  and  C_13
REMARK    3  A    between atoms: C_13  and  C_25
REMARK    4  A    between atoms: N_16  and  C_20
REMARK                            x       y       z     vdW  Elec       q    Type
REMARK                         _______ _______ _______ _____ _____    ______ ____
ROOT
ATOM      1  C   UNL     1      -0.727   3.357   0.027  0.00  0.00    +0.278 C 
ATOM      2  C   UNL     1       0.787   3.284   0.012  0.00  0.00    +0.274 C 
ATOM      3  O   UNL     1       1.565   4.213   0.009  0.00  0.00    -0.271 OA
ATOM      4  N   UNL     1       1.087   1.970   0.002  0.00  0.00    -0.219 N 
ATOM      5  C   UNL     1      -0.014   1.211   0.009  0.00  0.00    +0.311 C 
ATOM      6  O   UNL     1       0.002  -0.004   0.002  0.00  0.00    -0.252 OA
ATOM      7  N   UNL     1      -1.143   1.944   0.018  0.00  0.00    -0.263 N 
ATOM      8  H   UNL     1      -2.052   1.607   0.019  0.00  0.00    +0.153 HD
ENDROOT
BRANCH   4   9
ATOM      9  C   UNL     1       2.453   1.438  -0.013  0.00  0.00    +0.086 C 
ATOM     10  C   UNL     1       2.655   0.536  -1.247  0.00  0.00    +0.023 C 
ATOM     11  C   UNL     1       3.561  -0.612  -0.734  0.00  0.00    +0.002 C 
ATOM     12  C   UNL     1       3.023  -0.858   0.698  0.00  0.00    +0.002 C 
ATOM     13  C   UNL     1       2.687   0.553   1.224  0.00  0.00    +0.023 C 
ENDBRANCH   4   9
BRANCH   1  16
ATOM     14  C   UNL     1      -0.853   5.315  -1.418  0.00  0.00    +0.248 C 
ATOM     15  O   UNL     1      -0.110   5.894  -0.649  0.00  0.00    -0.270 OA
ATOM     16  N   UNL     1      -1.222   4.043  -1.169  0.00  0.00    -0.276 N 
ATOM     17  H   UNL     1      -1.815   3.581  -1.783  0.00  0.00    +0.152 HD
BRANCH  14  20
ATOM     18  C   UNL     1      -2.667   5.995  -4.634  0.00  0.00    +0.021 A 
ATOM     19  C   UNL     1      -2.201   5.343  -3.512  0.00  0.00    +0.016 A 
ATOM     20  C   UNL     1      -1.352   6.006  -2.624  0.00  0.00    +0.055 A 
ATOM     21  C   UNL     1      -0.971   7.325  -2.885  0.00  0.00    +0.054 A 
ATOM     22  C   UNL     1      -1.440   7.965  -4.015  0.00  0.00    +0.040 A 
ATOM     23  C   UNL     1      -2.286   7.302  -4.888  0.00  0.00    +0.042 A 
ATOM     24 CL   UNL     1      -2.873   8.113  -6.306  0.00  0.00    -0.083 Cl
ATOM     25 CL   UNL     1       0.090   8.158  -1.791  0.00  0.00    -0.083 Cl
ENDBRANCH  14  20
ENDBRANCH   1  16
BRANCH   1  26
ATOM     26  C   UNL     1      -1.220   4.063   1.292  0.00  0.00    +0.436 C 
ATOM     27  F   UNL     1      -0.702   5.362   1.332  0.00  0.00    -0.166 F 
ATOM     28  F   UNL     1      -0.789   3.354   2.419  0.00  0.00    -0.166 F 
ATOM     29  F   UNL     1      -2.618   4.118   1.282  0.00  0.00    -0.166 F 
ENDBRANCH   1  26
TORSDOF 4
