REMARK  Name = ZINC64937724
REMARK  7 active torsions:
REMARK  status: ('A' for Active; 'I' for Inactive)
REMARK    1  A    between atoms: C_1  and  C_2
REMARK    2  A    between atoms: C_7  and  C_8
REMARK    3  A    between atoms: N_10  and  N_11
REMARK    4  A    between atoms: N_11  and  S_12
REMARK    5  A    between atoms: S_12  and  C_15
REMARK    6  A    between atoms: C_18  and  S_21
REMARK    7  A    between atoms: S_21  and  C_22
REMARK                            x       y       z     vdW  Elec       q    Type
REMARK                         _______ _______ _______ _____ _____    ______ ____
ROOT
ATOM      1  S   UNL     1      -0.401  -0.373   6.114  0.00  0.00    +0.074 S 
ATOM      2  O   UNL     1       0.040   0.395   7.224  0.00  0.00    -0.152 OA
ATOM      3  O   UNL     1      -1.738  -0.323   5.636  0.00  0.00    -0.152 OA
ENDROOT
BRANCH   1   4
ATOM      4  C   UNL     1      -0.069  -2.059   6.503  0.00  0.00    +0.107 A 
ATOM      5  C   UNL     1      -0.791  -3.065   5.887  0.00  0.00    +0.029 A 
ATOM      6  C   UNL     1      -0.535  -4.387   6.190  0.00  0.00    +0.017 A 
ATOM      7  C   UNL     1       0.452  -4.707   7.116  0.00  0.00    +0.016 A 
ATOM      8  C   UNL     1       1.176  -3.694   7.733  0.00  0.00    +0.017 A 
ATOM      9  C   UNL     1       0.917  -2.374   7.421  0.00  0.00    +0.029 A 
BRANCH   7  10
ATOM     10  S   UNL     1       0.783  -6.393   7.507  0.00  0.00    -0.016 S 
BRANCH  10  11
ATOM     11  C   UNL     1       2.117  -6.306   8.733  0.00  0.00    +0.448 C 
ATOM     12  F   UNL     1       1.679  -5.583   9.847  0.00  0.00    -0.160 F 
ATOM     13  F   UNL     1       2.473  -7.600   9.127  0.00  0.00    -0.160 F 
ATOM     14  F   UNL     1       3.227  -5.668   8.169  0.00  0.00    -0.160 F 
ENDBRANCH  10  11
ENDBRANCH   7  10
ENDBRANCH   1   4
BRANCH   1  15
ATOM     15  N   UNL     1       0.573   0.035   4.838  0.00  0.00    -0.108 NA
ATOM     16  H   UNL     1       1.219   0.753   4.932  0.00  0.00    +0.172 HD
BRANCH  15  19
ATOM     17  C   UNL     1       0.242   0.021   2.481  0.00  0.00    +0.259 C 
ATOM     18  O   UNL     1       0.135   1.232   2.503  0.00  0.00    -0.269 OA
ATOM     19  N   UNL     1       0.465  -0.656   3.625  0.00  0.00    -0.228 N 
ATOM     20  H   UNL     1       0.551  -1.622   3.607  0.00  0.00    +0.171 HD
BRANCH  17  27
ATOM     21  C   UNL     1      -0.511   1.452   0.082  0.00  0.00    +0.044 C 
ATOM     22  C   UNL     1      -0.234  -0.028   0.036  0.00  0.00    -0.038 A 
ATOM     23  C   UNL     1      -0.334  -0.714  -1.157  0.00  0.00    +0.004 A 
ATOM     24  C   UNL     1      -0.080  -2.073  -1.200  0.00  0.00    +0.000 A 
ATOM     25  C   UNL     1       0.275  -2.754  -0.049  0.00  0.00    +0.001 A 
ATOM     26  C   UNL     1       0.378  -2.080   1.150  0.00  0.00    +0.013 A 
ATOM     27  C   UNL     1       0.128  -0.708   1.200  0.00  0.00    +0.041 A 
ENDBRANCH  17  27
ENDBRANCH  15  19
ENDBRANCH   1  15
TORSDOF 6
