REMARK  Name = ZINC09502944
REMARK  10 active torsions:
REMARK  status: ('A' for Active; 'I' for Inactive)
REMARK    1  A    between atoms: C_1  and  N_49
REMARK    2  A    between atoms: C_2  and  C_3
REMARK    3  A    between atoms: C_2  and  N_49
REMARK    4  A    between atoms: C_6  and  C_8
REMARK    5  A    between atoms: C_15  and  C_16
REMARK    6  A    between atoms: C_15  and  N_49
REMARK    7  A    between atoms: N_18  and  C_19
REMARK    8  A    between atoms: C_24  and  S_25
REMARK    9  A    between atoms: S_25  and  C_26
REMARK   10  A    between atoms: C_26  and  C_27
REMARK                            x       y       z     vdW  Elec       q    Type
REMARK                         _______ _______ _______ _____ _____    ______ ____
ROOT
ATOM      1  C   UNL     1      -6.111  -1.737   0.983  0.00  0.00    -0.095 C 
ATOM      2  N   UNL     1      -5.980  -0.982  -0.281  0.00  0.00    +0.388 N 
ATOM      3  H   UNL     1      -5.760  -1.637  -1.040  0.00  0.00    -0.081 HD
ENDROOT
BRANCH   2   4
ATOM      4  C   UNL     1      -7.251  -0.294  -0.593  0.00  0.00    -0.003 C 
BRANCH   4   5
ATOM      5  C   UNL     1      -8.296  -1.330  -0.919  0.00  0.00    +0.089 A 
ATOM      6  C   UNL     1      -9.136  -1.903  -0.035  0.00  0.00    +0.043 A 
ATOM      7  C   UNL     1      -9.941  -2.807  -0.758  0.00  0.00    +0.050 A 
ATOM      8  C   UNL     1      -9.543  -2.735  -2.056  0.00  0.00    +0.135 A 
ATOM      9  O   UNL     1      -8.549  -1.830  -2.140  0.00  0.00    -0.462 OA
BRANCH   8  10
ATOM     10  C   UNL     1     -10.108  -3.509  -3.181  0.00  0.00    +0.017 A 
ATOM     11  C   UNL     1     -11.143  -4.418  -2.956  0.00  0.00    +0.013 A 
ATOM     12  C   UNL     1     -11.670  -5.134  -4.010  0.00  0.00    +0.021 A 
ATOM     13  C   UNL     1     -11.167  -4.960  -5.289  0.00  0.00    +0.041 A 
ATOM     14  C   UNL     1     -10.137  -4.064  -5.518  0.00  0.00    +0.021 A 
ATOM     15  C   UNL     1      -9.605  -3.338  -4.472  0.00  0.00    +0.013 A 
ATOM     16 CL   UNL     1     -11.830  -5.871  -6.610  0.00  0.00    -0.084 Cl
ENDBRANCH   8  10
ENDBRANCH   4   5
ENDBRANCH   2   4
BRANCH   2  17
ATOM     17  C   UNL     1      -4.886   0.006  -0.168  0.00  0.00    +0.019 C 
BRANCH  17  18
ATOM     18  C   UNL     1      -3.575  -0.730  -0.070  0.00  0.00    +0.201 C 
ATOM     19  O   UNL     1      -3.558  -1.943  -0.076  0.00  0.00    -0.278 OA
ATOM     20  N   UNL     1      -2.421  -0.040   0.024  0.00  0.00    -0.286 N 
ATOM     21  H   UNL     1      -2.438   0.926   0.110  0.00  0.00    +0.155 HD
BRANCH  20  22
ATOM     22  C   UNL     1      -1.195  -0.719  -0.002  0.00  0.00    +0.047 A 
ATOM     23  C   UNL     1      -1.099  -1.959  -0.615  0.00  0.00    +0.024 A 
ATOM     24  C   UNL     1       0.111  -2.627  -0.640  0.00  0.00    +0.002 A 
ATOM     25  C   UNL     1       1.229  -2.062  -0.054  0.00  0.00    +0.001 A 
ATOM     26  C   UNL     1       1.145  -0.825   0.555  0.00  0.00    +0.016 A 
ATOM     27  C   UNL     1      -0.067  -0.150   0.590  0.00  0.00    +0.030 A 
BRANCH  27  28
ATOM     28  S   UNL     1      -0.179   1.425   1.372  0.00  0.00    -0.108 S 
BRANCH  28  29
ATOM     29  C   UNL     1       1.503   1.736   1.976  0.00  0.00    +0.192 C 
BRANCH  29  30
ATOM     30  C   UNL     1       1.546   3.039   2.660  0.00  0.00    +0.074 C 
ATOM     31  N   UNL     1       1.579   4.045   3.187  0.00  0.00    -0.196 NA
ENDBRANCH  29  30
ENDBRANCH  28  29
ENDBRANCH  27  28
ENDBRANCH  20  22
ENDBRANCH  17  18
ENDBRANCH   2  17
TORSDOF 9
