REMARK  Name = ZINC23996299
REMARK  5 active torsions:
REMARK  status: ('A' for Active; 'I' for Inactive)
REMARK    1  A    between atoms: C_1  and  C_2
REMARK    2  A    between atoms: C_2  and  C_4
REMARK    3  A    between atoms: C_2  and  N_11
REMARK    4  A    between atoms: C_12  and  C_14
REMARK    5  A    between atoms: C_14  and  N_15
REMARK                            x       y       z     vdW  Elec       q    Type
REMARK                         _______ _______ _______ _____ _____    ______ ____
ROOT
ATOM      1  N   UNL     1      -0.242   1.246   2.466  0.00  0.00    -0.307 N 
ATOM      2  C   UNL     1      -0.718   1.572   1.248  0.00  0.00    +0.231 C 
ATOM      3  O   UNL     1      -1.714   2.256   1.150  0.00  0.00    -0.274 OA
ATOM      4  H   UNL     1       0.662   0.625   2.555  0.00  0.00    +0.149 HD
ENDROOT
BRANCH   1   6
ATOM      5  C   UNL     1      -0.438   3.126   4.018  0.00  0.00    +0.033 C 
ATOM      6  C   UNL     1      -0.927   1.718   3.671  0.00  0.00    +0.103 C 
BRANCH   6   7
ATOM      7  C   UNL     1      -0.629   0.786   4.817  0.00  0.00    +0.008 A 
ATOM      8  C   UNL     1       0.525   0.024   4.806  0.00  0.00    +0.008 A 
ATOM      9  C   UNL     1       0.801  -0.826   5.859  0.00  0.00    +0.000 A 
ATOM     10  C   UNL     1      -0.080  -0.925   6.920  0.00  0.00    +0.003 A 
ATOM     11  C   UNL     1      -1.236  -0.169   6.930  0.00  0.00    +0.039 A 
ATOM     12  C   UNL     1      -1.512   0.688   5.878  0.00  0.00    +0.128 A 
ATOM     13  F   UNL     1      -2.643   1.428   5.887  0.00  0.00    -0.205 F 
ENDBRANCH   6   7
ENDBRANCH   1   6
BRANCH   2  14
ATOM     14  C   UNL     1      -0.013   1.086   0.008  0.00  0.00    +0.212 C 
BRANCH  14  15
ATOM     15  N   UNL     1      -0.721   1.571  -1.179  0.00  0.00    -0.225 N 
ATOM     16  C   UNL     1      -1.714   0.906  -1.798  0.00  0.00    +0.254 C 
ATOM     17  O   UNL     1      -2.158  -0.174  -1.466  0.00  0.00    -0.270 OA
ATOM     18  C   UNL     1      -2.175   1.713  -2.947  0.00  0.00    +0.049 A 
ATOM     19  C   UNL     1      -3.146   1.542  -3.921  0.00  0.00    +0.014 A 
ATOM     20  C   UNL     1      -3.326   2.517  -4.890  0.00  0.00    +0.001 A 
ATOM     21  C   UNL     1      -2.544   3.657  -4.891  0.00  0.00    +0.001 A 
ATOM     22  C   UNL     1      -1.569   3.841  -3.923  0.00  0.00    +0.014 A 
ATOM     23  C   UNL     1      -1.377   2.875  -2.949  0.00  0.00    +0.049 A 
ATOM     24  C   UNL     1      -0.461   2.737  -1.797  0.00  0.00    +0.254 C 
ATOM     25  O   UNL     1       0.384   3.543  -1.464  0.00  0.00    -0.270 OA
ENDBRANCH  14  15
ENDBRANCH   2  14
TORSDOF 4
