REMARK  Name = ZINC08868778
REMARK  10 active torsions:
REMARK  status: ('A' for Active; 'I' for Inactive)
REMARK    1  A    between atoms: C_1  and  C_2
REMARK    2  A    between atoms: C_5  and  S_8
REMARK    3  A    between atoms: S_8  and  N_11
REMARK    4  A    between atoms: C_15  and  C_17
REMARK    5  A    between atoms: N_19  and  C_20
REMARK    6  A    between atoms: C_20  and  C_21
REMARK    7  A    between atoms: C_21  and  N_63
REMARK    8  A    between atoms: C_22  and  N_63
REMARK    9  A    between atoms: C_23  and  N_63
REMARK   10  A    between atoms: C_29  and  C_33
REMARK                            x       y       z     vdW  Elec       q    Type
REMARK                         _______ _______ _______ _____ _____    ______ ____
ROOT
ATOM      1  C   UNL     1      -5.954   3.608   4.896  0.00  0.00    +0.240 C 
ATOM      2  O   UNL     1      -6.886   3.902   5.614  0.00  0.00    -0.273 OA
ATOM      3  N   UNL     1      -4.696   3.633   5.381  0.00  0.00    -0.251 N 
ATOM      4  C   UNL     1      -3.624   3.390   4.537  0.00  0.00    +0.168 A 
ATOM      5  N   UNL     1      -2.340   3.480   4.791  0.00  0.00    -0.224 NA
ATOM      6  C   UNL     1      -1.395   3.210   3.864  0.00  0.00    +0.080 A 
ATOM      7  C   UNL     1       0.010   3.268   4.007  0.00  0.00    +0.029 A 
ATOM      8  C   UNL     1       0.834   2.959   2.957  0.00  0.00    +0.005 A 
ATOM      9  C   UNL     1       0.325   2.581   1.722  0.00  0.00    -0.049 A 
ATOM     10  C   UNL     1      -1.045   2.519   1.546  0.00  0.00    +0.020 A 
ATOM     11  C   UNL     1      -1.878   2.822   2.594  0.00  0.00    +0.041 A 
ATOM     12  S   UNL     1      -3.639   2.873   2.826  0.00  0.00    -0.052 S 
ATOM     13  C   UNL     1       1.255   2.247   0.585  0.00  0.00    +0.044 C 
ENDROOT
BRANCH   1  18
ATOM     14  N   UNL     1      -7.576   3.568   3.078  0.00  0.00    -0.165 NA
ATOM     15  C   UNL     1      -8.282   2.341   2.668  0.00  0.00    +0.110 C 
ATOM     16  C   UNL     1      -7.529   1.192   3.384  0.00  0.00    +0.019 C 
ATOM     17  C   UNL     1      -6.061   1.686   3.307  0.00  0.00    +0.031 C 
ATOM     18  C   UNL     1      -6.202   3.215   3.463  0.00  0.00    +0.166 C 
BRANCH  14  19
ATOM     19  S   UNL     1      -8.223   5.092   3.102  0.00  0.00    +0.062 S 
ATOM     20  O   UNL     1      -9.631   4.934   3.213  0.00  0.00    -0.153 OA
ATOM     21  O   UNL     1      -7.464   5.841   4.041  0.00  0.00    -0.153 OA
BRANCH  19  26
ATOM     22  C   UNL     1      -7.187   7.557  -2.307  0.00  0.00    +0.044 C 
ATOM     23  C   UNL     1      -7.445   6.941  -0.956  0.00  0.00    -0.050 A 
ATOM     24  C   UNL     1      -8.605   6.222  -0.735  0.00  0.00    +0.005 A 
ATOM     25  C   UNL     1      -8.843   5.657   0.504  0.00  0.00    +0.029 A 
ATOM     26  C   UNL     1      -7.920   5.811   1.522  0.00  0.00    +0.106 A 
ATOM     27  C   UNL     1      -6.763   6.534   1.302  0.00  0.00    +0.029 A 
ATOM     28  C   UNL     1      -6.523   7.095   0.062  0.00  0.00    +0.005 A 
ENDBRANCH  19  26
ENDBRANCH  14  19
ENDBRANCH   1  18
BRANCH   3  29
ATOM     29  C   UNL     1      -4.463   3.918   6.798  0.00  0.00    +0.097 C 
BRANCH  29  30
ATOM     30  C   UNL     1      -4.316   5.428   6.998  0.00  0.00    -0.060 C 
BRANCH  30  33
ATOM     31  C   UNL     1      -3.578   7.113   8.572  0.00  0.00    -0.097 C 
ATOM     32  C   UNL     1      -5.053   5.338   9.302  0.00  0.00    -0.097 C 
ATOM     33  N   UNL     1      -3.935   5.689   8.402  0.00  0.00    +0.377 N 
ATOM     34  H   UNL     1      -3.121   5.111   8.639  0.00  0.00    -0.083 HD
ENDBRANCH  30  33
ENDBRANCH  29  30
ENDBRANCH   3  29
TORSDOF 6
