REMARK  Name = ZINC64775294
REMARK  3 active torsions:
REMARK  status: ('A' for Active; 'I' for Inactive)
REMARK    1  A    between atoms: C_6  and  N_7
REMARK    2  A    between atoms: C_13  and  C_15
REMARK    3  A    between atoms: C_20  and  C_28
REMARK                            x       y       z     vdW  Elec       q    Type
REMARK                         _______ _______ _______ _____ _____    ______ ____
ROOT
ATOM      1  C   UNL     1      -4.511  -4.083  -1.274  0.00  0.00    +0.247 C 
ATOM      2  N   UNL     1      -5.853  -4.566  -1.591  0.00  0.00    -0.319 N 
ATOM      3  C   UNL     1      -6.913  -4.526  -0.689  0.00  0.00    +0.056 A 
ATOM      4  C   UNL     1      -8.216  -4.565  -1.183  0.00  0.00    +0.037 A 
ATOM      5  C   UNL     1      -9.288  -4.543  -0.316  0.00  0.00    +0.057 A 
ATOM      6  C   UNL     1      -9.079  -4.484   1.050  0.00  0.00    +0.014 A 
ATOM      7  C   UNL     1      -7.789  -4.439   1.548  0.00  0.00    +0.031 A 
ATOM      8  C   UNL     1      -6.715  -4.452   0.683  0.00  0.00    +0.126 A 
ATOM      9  S   UNL     1      -5.069  -4.354   1.321  0.00  0.00    +0.062 S 
ATOM     10  O   UNL     1      -4.846  -2.999   1.686  0.00  0.00    -0.153 OA
ATOM     11  O   UNL     1      -4.913  -5.432   2.233  0.00  0.00    -0.153 OA
ATOM     12  N   UNL     1      -4.082  -4.674   0.010  0.00  0.00    -0.161 NA
ATOM     13  H   UNL     1      -6.013  -4.934  -2.474  0.00  0.00    +0.148 HD
ATOM     14  H   UNL     1      -3.281  -5.215   0.086  0.00  0.00    +0.151 HD
ENDROOT
BRANCH   1  21
ATOM     15  N   UNL     1      -1.198  -0.721   0.010  0.00  0.00    -0.327 N 
ATOM     16  C   UNL     1      -2.486  -0.022   0.131  0.00  0.00    +0.124 C 
ATOM     17  C   UNL     1      -3.375  -0.424  -1.053  0.00  0.00    +0.127 C 
ATOM     18  N   UNL     1      -3.372  -1.889  -1.165  0.00  0.00    -0.296 N 
ATOM     19  C   UNL     1      -2.085  -2.588  -1.286  0.00  0.00    +0.127 C 
ATOM     20  C   UNL     1      -1.196  -2.186  -0.108  0.00  0.00    +0.124 C 
ATOM     21  C   UNL     1      -4.529  -2.580  -1.157  0.00  0.00    +0.252 C 
ATOM     22  O   UNL     1      -5.585  -1.993  -1.057  0.00  0.00    -0.272 OA
BRANCH  15  28
ATOM     23  C   UNL     1       1.215  -0.680   0.003  0.00  0.00    +0.026 A 
ATOM     24  C   UNL     1       2.400   0.030  -0.005  0.00  0.00    +0.040 A 
ATOM     25  C   UNL     1       2.379   1.414  -0.015  0.00  0.00    +0.124 A 
ATOM     26  C   UNL     1       1.170   2.090  -0.016  0.00  0.00    +0.040 A 
ATOM     27  C   UNL     1      -0.017   1.385  -0.007  0.00  0.00    +0.026 A 
ATOM     28  C   UNL     1       0.002  -0.004   0.002  0.00  0.00    +0.030 A 
ATOM     29  F   UNL     1       3.539   2.107  -0.023  0.00  0.00    -0.205 F 
ENDBRANCH  15  28
ENDBRANCH   1  21
BRANCH   5  30
ATOM     30  C   UNL     1     -10.693  -4.583  -0.858  0.00  0.00    +0.417 C 
ATOM     31  F   UNL     1     -11.111  -5.913  -0.972  0.00  0.00    -0.166 F 
ATOM     32  F   UNL     1     -11.549  -3.899   0.012  0.00  0.00    -0.166 F 
ATOM     33  F   UNL     1     -10.725  -3.975  -2.118  0.00  0.00    -0.166 F 
ENDBRANCH   5  30
TORSDOF 3
