REMARK  Name = ZINC03938744
REMARK  14 active torsions:
REMARK  status: ('A' for Active; 'I' for Inactive)
REMARK    1  A    between atoms: C_1  and  C_2
REMARK    2  A    between atoms: C_2  and  C_3
REMARK    3  A    between atoms: C_3  and  O_5
REMARK    4  A    between atoms: O_5  and  C_6
REMARK    5  A    between atoms: C_6  and  C_7
REMARK    6  A    between atoms: C_7  and  C_9
REMARK    7  A    between atoms: C_9  and  O_36
REMARK    8  A    between atoms: C_10  and  C_35
REMARK    9  A    between atoms: C_15  and  C_34
REMARK   10  A    between atoms: C_17  and  O_33
REMARK   11  A    between atoms: C_30  and  C_31
REMARK   12  A    between atoms: O_36  and  C_37
REMARK   13  A    between atoms: C_37  and  C_39
REMARK   14  A    between atoms: C_39  and  C_40
REMARK                            x       y       z     vdW  Elec       q    Type
REMARK                         _______ _______ _______ _____ _____    ______ ____
ROOT
ATOM      1  C   UNL     1       0.504  -3.746  -4.326  0.00  0.00    +0.182 C 
ATOM      2  C   UNL     1       1.978  -3.507  -3.912  0.00  0.00    +0.038 C 
ATOM      3  C   UNL     1       2.652  -4.906  -3.869  0.00  0.00    +0.012 C 
ATOM      4  C   UNL     1       1.777  -5.738  -4.812  0.00  0.00    +0.005 C 
ATOM      5  C   UNL     1       0.352  -5.260  -4.422  0.00  0.00    +0.021 C 
ATOM      6  C   UNL     1      -0.600  -5.778  -5.483  0.00  0.00    +0.044 C 
ATOM      7  C   UNL     1      -0.585  -7.312  -5.396  0.00  0.00    +0.137 C 
ATOM      8  C   UNL     1       0.822  -7.874  -5.581  0.00  0.00    +0.086 C 
ATOM      9  C   UNL     1       1.834  -7.242  -4.611  0.00  0.00    +0.018 C 
ATOM     10  C   UNL     1       3.244  -7.753  -4.915  0.00  0.00    +0.010 C 
ATOM     11  C   UNL     1       3.308  -9.265  -4.675  0.00  0.00    +0.032 C 
ATOM     12  C   UNL     1       2.221  -9.921  -5.505  0.00  0.00    -0.055 C 
ATOM     13  C   UNL     1       2.542 -10.931  -6.301  0.00  0.00    +0.051 C 
ATOM     14  C   UNL     1       1.520 -11.580  -7.137  0.00  0.00    +0.179 C 
ATOM     15  O   UNL     1       1.802 -12.532  -7.840  0.00  0.00    -0.288 OA
ATOM     16  C   UNL     1       0.145 -11.051  -7.102  0.00  0.00    +0.047 C 
ATOM     17  C   UNL     1      -0.154 -10.046  -6.294  0.00  0.00    -0.011 C 
ATOM     18  C   UNL     1       0.796  -9.388  -5.357  0.00  0.00    +0.029 C 
ATOM     19  C   UNL     1       0.310  -9.640  -3.928  0.00  0.00    +0.022 C 
ATOM     20 CL   UNL     1       1.380  -7.532  -7.261  0.00  0.00    -0.114 Cl
ATOM     21  C   UNL     1      -0.030  -5.831  -3.055  0.00  0.00    +0.016 C 
ATOM     22  C   UNL     1       2.036  -2.852  -2.530  0.00  0.00    +0.012 C 
ENDROOT
BRANCH   1  23
ATOM     23  C   UNL     1      -0.428  -3.192  -3.279  0.00  0.00    +0.214 C 
ATOM     24  O   UNL     1      -0.317  -3.539  -2.128  0.00  0.00    -0.289 OA
BRANCH  23  25
ATOM     25  C   UNL     1      -1.499  -2.207  -3.670  0.00  0.00    +0.310 C 
BRANCH  25  26
ATOM     26  O   UNL     1      -2.331  -1.935  -2.540  0.00  0.00    -0.457 OA
BRANCH  26  27
ATOM     27  C   UNL     1      -3.341  -1.069  -2.721  0.00  0.00    +0.307 C 
ATOM     28  O   UNL     1      -3.513  -0.560  -3.803  0.00  0.00    -0.251 OA
BRANCH  27  30
ATOM     29  C   UNL     1      -5.316   0.268  -2.045  0.00  0.00    +0.015 C 
ATOM     30  C   UNL     1      -4.260  -0.733  -1.575  0.00  0.00    +0.117 C 
ENDBRANCH  27  30
ENDBRANCH  26  27
ENDBRANCH  25  26
ENDBRANCH  23  25
ENDBRANCH   1  23
BRANCH   7  31
ATOM     31  O   UNL     1      -1.080  -7.712  -4.116  0.00  0.00    -0.390 OA
ATOM     32  H   UNL     1      -1.984  -7.420  -3.935  0.00  0.00    +0.210 HD
ENDBRANCH   7  31
BRANCH   1  33
ATOM     33  O   UNL     1       0.240  -3.140  -5.593  0.00  0.00    -0.449 OA
BRANCH  33  34
ATOM     34  C   UNL     1       0.481  -1.824  -5.702  0.00  0.00    +0.308 C 
ATOM     35  O   UNL     1       0.988  -1.225  -4.783  0.00  0.00    -0.251 OA
BRANCH  34  36
ATOM     36  C   UNL     1       0.118  -1.094  -6.969  0.00  0.00    +0.117 C 
ATOM     37  C   UNL     1       0.494   0.383  -6.833  0.00  0.00    +0.015 C 
ENDBRANCH  34  36
ENDBRANCH  33  34
ENDBRANCH   1  33
TORSDOF 9
