REMARK  Name = ZINC50652041
REMARK  8 active torsions:
REMARK  status: ('A' for Active; 'I' for Inactive)
REMARK    1  A    between atoms: C_1  and  C_2
REMARK    2  A    between atoms: C_2  and  N_3
REMARK    3  A    between atoms: N_3  and  C_4
REMARK    4  A    between atoms: N_3  and  S_7
REMARK    5  A    between atoms: C_4  and  C_5
REMARK    6  A    between atoms: C_4  and  C_6
REMARK    7  A    between atoms: S_7  and  C_10
REMARK    8  A    between atoms: C_11  and  N_18
REMARK                            x       y       z     vdW  Elec       q    Type
REMARK                         _______ _______ _______ _____ _____    ______ ____
ROOT
ATOM      1  C   UNL     1      -3.754   0.817   1.342  0.00  0.00    +0.221 A 
ATOM      2  C   UNL     1      -3.408   1.706   2.295  0.00  0.00    +0.163 A 
ATOM      3  N   UNL     1      -4.198   2.787   2.171  0.00  0.00    -0.205 NA
ATOM      4  C   UNL     1      -5.020   2.600   1.177  0.00  0.00    +0.181 A 
ATOM      5  N   UNL     1      -4.797   1.379   0.599  0.00  0.00    -0.276 N 
ATOM      6  C   UNL     1      -5.591   1.042  -0.475  0.00  0.00    +0.102 A 
ATOM      7  C   UNL     1      -6.526   1.880  -0.921  0.00  0.00    +0.067 A 
ATOM      8  S   UNL     1      -6.351   3.259   0.201  0.00  0.00    -0.058 S 
ENDROOT
BRANCH   1   9
ATOM      9  S   UNL     1      -3.021  -0.763   1.076  0.00  0.00    +0.080 S 
ATOM     10  O   UNL     1      -3.990  -1.552   0.399  0.00  0.00    -0.151 OA
ATOM     11  O   UNL     1      -2.447  -1.158   2.314  0.00  0.00    -0.151 OA
BRANCH   9  12
ATOM     12  N   UNL     1      -1.764  -0.547   0.019  0.00  0.00    -0.173 NA
BRANCH  12  13
ATOM     13  C   UNL     1      -1.994  -0.653  -1.424  0.00  0.00    +0.074 C 
ATOM     14  C   UNL     1      -1.727   0.702  -2.083  0.00  0.00    +0.025 C 
ATOM     15  C   UNL     1      -1.051  -1.703  -2.015  0.00  0.00    +0.025 C 
ENDBRANCH  12  13
BRANCH  12  17
ATOM     16  C   UNL     1       0.372  -1.553   0.659  0.00  0.00    +0.022 C 
ATOM     17  C   UNL     1      -0.422  -0.252   0.527  0.00  0.00    +0.106 C 
ENDBRANCH  12  17
ENDBRANCH   9  12
ENDBRANCH   1   9
BRANCH   2  18
ATOM     18  N   UNL     1      -2.397   1.533   3.252  0.00  0.00    -0.340 N 
ATOM     19  H   UNL     1      -1.875   0.715   3.265  0.00  0.00    +0.144 HD
ATOM     20  H   UNL     1      -2.218   2.231   3.902  0.00  0.00    +0.144 HD
ENDBRANCH   2  18
TORSDOF 5
