REMARK  Name = ZINC63784134
REMARK  10 active torsions:
REMARK  status: ('A' for Active; 'I' for Inactive)
REMARK    1  A    between atoms: C_1  and  C_2
REMARK    2  A    between atoms: C_4  and  C_34
REMARK    3  A    between atoms: C_9  and  N_21
REMARK    4  A    between atoms: N_10  and  C_11
REMARK    5  A    between atoms: C_11  and  C_13
REMARK    6  A    between atoms: C_18  and  N_19
REMARK    7  A    between atoms: N_19  and  C_20
REMARK    8  A    between atoms: N_21  and  C_22
REMARK    9  A    between atoms: C_22  and  C_23
REMARK   10  A    between atoms: C_23  and  C_24
REMARK                            x       y       z     vdW  Elec       q    Type
REMARK                         _______ _______ _______ _____ _____    ______ ____
ROOT
ATOM      1  C   UNL     1      -0.606  -6.502   4.776  0.00  0.00    +0.066 C 
ATOM      2  C   UNL     1      -0.581  -5.750   3.471  0.00  0.00    +0.044 A 
ATOM      3  C   UNL     1      -0.592  -6.434   2.266  0.00  0.00    +0.046 A 
ATOM      4  C   UNL     1      -0.569  -5.703   1.088  0.00  0.00    +0.044 A 
ATOM      5  N   UNL     1      -0.538  -4.382   1.150  0.00  0.00    -0.217 NA
ATOM      6  C   UNL     1      -0.528  -3.759   2.318  0.00  0.00    +0.231 A 
ATOM      7  N   UNL     1      -0.555  -4.427   3.461  0.00  0.00    -0.217 NA
ATOM      8  N   UNL     1      -0.495  -2.371   2.345  0.00  0.00    -0.295 N 
ATOM      9  C   UNL     1      -0.370  -1.713   3.538  0.00  0.00    +0.218 C 
ATOM     10  N   UNL     1      -0.168  -2.397   4.652  0.00  0.00    -0.141 NA
ATOM     11  C   UNL     1      -0.580  -6.405  -0.246  0.00  0.00    +0.066 C 
ATOM     12  H   UNL     1      -0.560  -1.868   1.518  0.00  0.00    +0.172 HD
ENDROOT
BRANCH  10  13
ATOM     13  C   UNL     1      -0.045  -1.752   5.822  0.00  0.00    +0.272 C 
ATOM     14  O   UNL     1      -0.121  -0.536   5.857  0.00  0.00    -0.268 OA
BRANCH  13  15
ATOM     15  C   UNL     1       0.181  -2.515   7.066  0.00  0.00    +0.060 A 
ATOM     16  C   UNL     1       0.399  -3.893   7.015  0.00  0.00    +0.015 A 
ATOM     17  C   UNL     1       0.610  -4.599   8.179  0.00  0.00    +0.001 A 
ATOM     18  C   UNL     1       0.605  -3.950   9.403  0.00  0.00    +0.002 A 
ATOM     19  C   UNL     1       0.390  -2.588   9.470  0.00  0.00    +0.023 A 
ATOM     20  C   UNL     1       0.182  -1.859   8.306  0.00  0.00    +0.039 A 
BRANCH  20  21
ATOM     21  N   UNL     1      -0.029  -0.486   8.370  0.00  0.00    -0.346 N 
ATOM     22  C   UNL     1       0.101   0.216   9.649  0.00  0.00    +0.125 C 
ATOM     23  H   UNL     1      -0.262   0.006   7.567  0.00  0.00    +0.146 HD
ENDBRANCH  20  21
ENDBRANCH  13  15
ENDBRANCH  10  13
BRANCH   9  24
ATOM     24  N   UNL     1      -0.455  -0.352   3.578  0.00  0.00    -0.252 NA
BRANCH  24  25
ATOM     25  C   UNL     1      -0.567   0.412   2.333  0.00  0.00    +0.149 C 
BRANCH  25  26
ATOM     26  C   UNL     1      -0.521   1.908   2.647  0.00  0.00    +0.056 C 
BRANCH  26  27
ATOM     27  C   UNL     1      -0.759   2.694   1.384  0.00  0.00    -0.040 C 
ATOM     28  C   UNL     1      -1.937   3.195   0.948  0.00  0.00    +0.000 A 
ATOM     29  C   UNL     1      -3.297   3.158   1.498  0.00  0.00    +0.030 A 
ATOM     30  C   UNL     1      -4.298   3.764   0.817  0.00  0.00    +0.042 A 
ATOM     31  C   UNL     1      -4.067   4.424  -0.400  0.00  0.00    +0.022 A 
ATOM     32  C   UNL     1      -2.845   4.500  -0.967  0.00  0.00    +0.027 A 
ATOM     33  C   UNL     1      -1.720   3.898  -0.337  0.00  0.00    +0.043 A 
ATOM     34  N   UNL     1      -0.457   3.835  -0.681  0.00  0.00    -0.380 N 
ATOM     35  C   UNL     1       0.272   3.089   0.350  0.00  0.00    +0.144 C 
ATOM     36 CL   UNL     1      -5.908   3.723   1.464  0.00  0.00    -0.084 Cl
ATOM     37  H   UNL     1      -0.069   4.220  -1.483  0.00  0.00    +0.160 HD
ENDBRANCH  26  27
ENDBRANCH  25  26
ENDBRANCH  24  25
ENDBRANCH   9  24
TORSDOF 7
