REMARK  Name = ZINC16525775
REMARK  4 active torsions:
REMARK  status: ('A' for Active; 'I' for Inactive)
REMARK    1  A    between atoms: C_14  and  C_15
REMARK    2  A    between atoms: N_16  and  C_17
REMARK    3  A    between atoms: C_18  and  C_26
REMARK    4  A    between atoms: N_28  and  C_29
REMARK                            x       y       z     vdW  Elec       q    Type
REMARK                         _______ _______ _______ _____ _____    ______ ____
ROOT
ATOM      1  C   UNL     1       7.235   0.331   0.133  0.00  0.00    +0.114 A 
ATOM      2  C   UNL     1       8.562  -0.119   0.132  0.00  0.00    +0.073 A 
ATOM      3  C   UNL     1       9.593   0.830   0.244  0.00  0.00    -0.023 A 
ATOM      4  C   UNL     1       9.221   2.131   0.348  0.00  0.00    -0.004 A 
ATOM      5  S   UNL     1       7.449   2.097   0.285  0.00  0.00    -0.073 S 
ATOM      6  C   UNL     1      10.115   3.324   0.479  0.00  0.00    +0.043 C 
ATOM      7  C   UNL     1      11.522   2.837   0.852  0.00  0.00    +0.005 C 
ATOM      8  C   UNL     1      11.905   1.683  -0.080  0.00  0.00    +0.005 C 
ATOM      9  C   UNL     1      11.070   0.446   0.252  0.00  0.00    +0.037 C 
ENDROOT
BRANCH   2  10
ATOM     10  C   UNL     1       8.869  -1.549   0.016  0.00  0.00    +0.247 C 
ATOM     11  O   UNL     1       8.934  -2.070  -1.081  0.00  0.00    -0.270 OA
ATOM     12  N   UNL     1       9.079  -2.285   1.126  0.00  0.00    -0.308 N 
ATOM     13  H   UNL     1       8.949  -1.889   2.002  0.00  0.00    +0.149 HD
BRANCH  12  14
ATOM     14  C   UNL     1       9.502  -3.682   1.009  0.00  0.00    +0.073 C 
ATOM     15  C   UNL     1       8.285  -4.560   0.706  0.00  0.00    +0.022 C 
ATOM     16  C   UNL     1       8.727  -6.019   0.584  0.00  0.00    +0.002 C 
ATOM     17  C   UNL     1       9.367  -6.470   1.898  0.00  0.00    +0.000 C 
ATOM     18  C   UNL     1      10.584  -5.593   2.201  0.00  0.00    +0.002 C 
ATOM     19  C   UNL     1      10.142  -4.133   2.323  0.00  0.00    +0.022 C 
ENDBRANCH  12  14
ENDBRANCH   2  10
BRANCH   1  21
ATOM     20  C   UNL     1       4.940   0.235  -0.041  0.00  0.00    +0.121 C 
ATOM     21  N   UNL     1       6.096  -0.382   0.037  0.00  0.00    -0.247 NA
BRANCH  20  35
ATOM     22  C   UNL     1       3.803  -4.708  -0.143  0.00  0.00    +0.001 A 
ATOM     23  C   UNL     1       4.990  -3.978  -0.149  0.00  0.00    +0.001 A 
ATOM     24  C   UNL     1       4.991  -2.618  -0.114  0.00  0.00    +0.009 A 
ATOM     25  C   UNL     1       3.771  -1.923  -0.072  0.00  0.00    -0.009 A 
ATOM     26  C   UNL     1       2.523  -2.687  -0.066  0.00  0.00    -0.017 A 
ATOM     27  C   UNL     1       2.591  -4.096  -0.103  0.00  0.00    +0.008 A 
ATOM     28  C   UNL     1       1.293  -2.028  -0.023  0.00  0.00    +0.017 A 
ATOM     29  C   UNL     1       1.248  -0.633   0.013  0.00  0.00    -0.017 A 
ATOM     30  C   UNL     1       0.016   0.053   0.057  0.00  0.00    +0.008 A 
ATOM     31  C   UNL     1       0.007   1.412   0.092  0.00  0.00    +0.001 A 
ATOM     32  C   UNL     1       1.188   2.151   0.086  0.00  0.00    +0.001 A 
ATOM     33  C   UNL     1       2.407   1.548   0.045  0.00  0.00    +0.009 A 
ATOM     34  C   UNL     1       2.487   0.147   0.007  0.00  0.00    -0.009 A 
ATOM     35  C   UNL     1       3.737  -0.511  -0.035  0.00  0.00    +0.008 A 
ENDBRANCH  20  35
ENDBRANCH   1  21
TORSDOF 4
