REMARK  Name = ZINC14889924
REMARK  8 active torsions:
REMARK  status: ('A' for Active; 'I' for Inactive)
REMARK    1  A    between atoms: C_1  and  C_2
REMARK    2  A    between atoms: C_3  and  C_14
REMARK    3  A    between atoms: N_5  and  C_7
REMARK    4  A    between atoms: N_16  and  N_17
REMARK    5  A    between atoms: C_18  and  C_20
REMARK    6  A    between atoms: C_20  and  C_22
REMARK    7  A    between atoms: C_20  and  O_23
REMARK    8  A    between atoms: O_23  and  C_24
REMARK                            x       y       z     vdW  Elec       q    Type
REMARK                         _______ _______ _______ _____ _____    ______ ____
ROOT
ATOM      1  C   UNL     1      -0.043   1.259   0.563  0.00  0.00    +0.265 C 
ATOM      2  O   UNL     1       0.004   0.057   0.388  0.00  0.00    -0.268 OA
ATOM      3  N   UNL     1      -1.228   1.899   0.534  0.00  0.00    -0.230 N 
ATOM      4  H   UNL     1      -1.266   2.858   0.674  0.00  0.00    +0.173 HD
ENDROOT
BRANCH   1   7
ATOM      5  C   UNL     1       1.259   1.847   3.397  0.00  0.00    +0.068 C 
ATOM      6  C   UNL     1       1.789   2.287   2.057  0.00  0.00    +0.074 A 
ATOM      7  C   UNL     1       1.198   2.018   0.801  0.00  0.00    +0.098 A 
ATOM      8  C   UNL     1       1.999   2.605  -0.161  0.00  0.00    +0.145 A 
ATOM      9  N   UNL     1       3.026   3.195   0.478  0.00  0.00    -0.220 N 
ATOM     10  N   UNL     1       2.875   2.980   1.853  0.00  0.00    -0.170 NA
ATOM     11 CL   UNL     1       1.729   2.585  -1.876  0.00  0.00    -0.061 Cl
BRANCH   9  12
ATOM     12  C   UNL     1       4.071   3.903  -0.130  0.00  0.00    +0.067 A 
ATOM     13  C   UNL     1       4.562   3.496  -1.364  0.00  0.00    +0.028 A 
ATOM     14  C   UNL     1       5.588   4.200  -1.964  0.00  0.00    +0.002 A 
ATOM     15  C   UNL     1       6.134   5.302  -1.332  0.00  0.00    +0.000 A 
ATOM     16  C   UNL     1       5.652   5.706  -0.101  0.00  0.00    +0.002 A 
ATOM     17  C   UNL     1       4.622   5.010   0.502  0.00  0.00    +0.028 A 
ENDBRANCH   9  12
ENDBRANCH   1   7
BRANCH   3  18
ATOM     18  N   UNL     1      -2.408   1.179   0.302  0.00  0.00    -0.231 N 
ATOM     19  C   UNL     1      -3.593   1.818   0.273  0.00  0.00    +0.270 C 
ATOM     20  O   UNL     1      -3.640   3.018   0.448  0.00  0.00    -0.270 OA
ATOM     21  H   UNL     1      -2.370   0.220   0.162  0.00  0.00    +0.173 HD
BRANCH  19  22
ATOM     22  C   UNL     1      -4.862   1.043   0.023  0.00  0.00    +0.257 C 
ATOM     23  C   UNL     1      -5.103   0.073   1.181  0.00  0.00    +0.062 C 
BRANCH  22  24
ATOM     24  O   UNL     1      -5.962   1.950  -0.076  0.00  0.00    -0.477 OA
BRANCH  24  25
ATOM     25  C   UNL     1      -7.043   1.533  -0.788  0.00  0.00    +0.157 A 
ATOM     26  C   UNL     1      -7.092   0.238  -1.282  0.00  0.00    +0.048 A 
ATOM     27  C   UNL     1      -8.191  -0.184  -2.004  0.00  0.00    +0.004 A 
ATOM     28  C   UNL     1      -9.244   0.682  -2.235  0.00  0.00    +0.003 A 
ATOM     29  C   UNL     1      -9.200   1.974  -1.743  0.00  0.00    +0.042 A 
ATOM     30  C   UNL     1      -8.103   2.401  -1.016  0.00  0.00    +0.165 A 
ATOM     31  F   UNL     1      -8.061   3.661  -0.531  0.00  0.00    -0.202 F 
ENDBRANCH  24  25
ENDBRANCH  22  24
ENDBRANCH  19  22
ENDBRANCH   3  18
TORSDOF 6
