REMARK  Name = ZINC63234621
REMARK  14 active torsions:
REMARK  status: ('A' for Active; 'I' for Inactive)
REMARK    1  A    between atoms: C_1  and  O_2
REMARK    2  A    between atoms: O_2  and  C_3
REMARK    3  A    between atoms: C_7  and  C_11
REMARK    4  A    between atoms: C_8  and  O_9
REMARK    5  A    between atoms: O_9  and  C_10
REMARK    6  A    between atoms: C_11  and  C_13
REMARK    7  A    between atoms: C_11  and  C_32
REMARK    8  A    between atoms: C_13  and  N_14
REMARK    9  A    between atoms: N_14  and  C_15
REMARK   10  A    between atoms: C_15  and  C_16
REMARK   11  A    between atoms: C_16  and  C_18
REMARK   12  A    between atoms: C_16  and  O_31
REMARK   13  A    between atoms: C_18  and  O_19
REMARK   14  A    between atoms: O_19  and  C_20
REMARK                            x       y       z     vdW  Elec       q    Type
REMARK                         _______ _______ _______ _____ _____    ______ ____
ROOT
ATOM      1  C   UNL     1       1.292  -4.329  -2.196  0.00  0.00    +0.034 C 
ENDROOT
BRANCH   1   2
ATOM      2  C   UNL     1       2.708  -4.843  -2.198  0.00  0.00    -0.036 C 
ATOM      3  C   UNL     1       3.276  -5.664  -1.285  0.00  0.00    -0.001 A 
ATOM      4  C   UNL     1       2.765  -6.299  -0.064  0.00  0.00    +0.010 A 
ATOM      5  C   UNL     1       3.592  -7.087   0.661  0.00  0.00    +0.001 A 
ATOM      6  C   UNL     1       4.921  -7.311   0.277  0.00  0.00    +0.002 A 
ATOM      7  C   UNL     1       5.462  -6.763  -0.832  0.00  0.00    +0.026 A 
ATOM      8  C   UNL     1       4.683  -5.918  -1.669  0.00  0.00    +0.043 A 
ATOM      9  N   UNL     1       4.974  -5.278  -2.776  0.00  0.00    -0.380 N 
ATOM     10  C   UNL     1       3.781  -4.551  -3.223  0.00  0.00    +0.145 C 
ATOM     11  H   UNL     1       5.833  -5.288  -3.227  0.00  0.00    +0.160 HD
ENDBRANCH   1   2
BRANCH   1  16
ATOM     12  C   UNL     1       0.711  -0.770  -1.046  0.00  0.00    +0.162 A 
ATOM     13  C   UNL     1       1.329  -0.053  -2.058  0.00  0.00    +0.049 A 
ATOM     14  C   UNL     1       1.932  -0.721  -3.108  0.00  0.00    +0.004 A 
ATOM     15  C   UNL     1       1.920  -2.102  -3.152  0.00  0.00    +0.008 A 
ATOM     16  C   UNL     1       1.304  -2.823  -2.145  0.00  0.00    +0.003 A 
ATOM     17  C   UNL     1       0.703  -2.161  -1.087  0.00  0.00    +0.165 A 
BRANCH  12  19
ATOM     18  C   UNL     1       0.164   1.313  -0.037  0.00  0.00    +0.277 C 
ATOM     19  O   UNL     1       0.117  -0.115  -0.013  0.00  0.00    -0.491 OA
ENDBRANCH  12  19
BRANCH  17  20
ATOM     20  O   UNL     1       0.102  -2.868  -0.093  0.00  0.00    -0.491 OA
ATOM     21  C   UNL     1      -1.282  -3.181  -0.265  0.00  0.00    +0.277 C 
ENDBRANCH  17  20
ENDBRANCH   1  16
BRANCH   1  22
ATOM     22  C   UNL     1       0.580  -4.791  -3.470  0.00  0.00    -0.070 C 
BRANCH  22  23
ATOM     23  N   UNL     1      -0.832  -4.392  -3.413  0.00  0.00    +0.381 N 
ATOM     24  H   UNL     1      -1.270  -4.818  -2.610  0.00  0.00    -0.086 HD
ATOM     25  H   UNL     1      -0.896  -3.388  -3.338  0.00  0.00    -0.086 HD
BRANCH  23  26
ATOM     26  C   UNL     1      -1.515  -4.835  -4.636  0.00  0.00    -0.049 C 
BRANCH  26  27
ATOM     27  C   UNL     1      -2.987  -4.420  -4.577  0.00  0.00    +0.123 C 
BRANCH  27  28
ATOM     28  O   UNL     1      -3.080  -2.994  -4.588  0.00  0.00    -0.391 OA
ATOM     29  H   UNL     1      -2.699  -2.581  -5.374  0.00  0.00    +0.210 HD
ENDBRANCH  27  28
BRANCH  27  30
ATOM     30  C   UNL     1      -3.726  -4.989  -5.790  0.00  0.00    +0.190 C 
BRANCH  30  31
ATOM     31  O   UNL     1      -5.121  -4.701  -5.676  0.00  0.00    -0.369 OA
BRANCH  31  32
ATOM     32  C   UNL     1      -5.892  -5.100  -6.811  0.00  0.00    +0.149 C 
ATOM     33  C   UNL     1      -5.888  -3.975  -7.844  0.00  0.00    +0.037 C 
ATOM     34  C   UNL     1      -6.890  -4.330  -8.949  0.00  0.00    +0.007 C 
ATOM     35  C   UNL     1      -8.300  -4.229  -8.371  0.00  0.00    +0.035 C 
ATOM     36  C   UNL     1      -8.404  -5.014  -7.090  0.00  0.00    -0.042 A 
ATOM     37  C   UNL     1      -7.299  -5.410  -6.372  0.00  0.00    -0.016 A 
ATOM     38  C   UNL     1      -7.465  -6.127  -5.194  0.00  0.00    +0.006 A 
ATOM     39  C   UNL     1      -8.729  -6.447  -4.740  0.00  0.00    +0.000 A 
ATOM     40  C   UNL     1      -9.838  -6.051  -5.464  0.00  0.00    +0.000 A 
ATOM     41  C   UNL     1      -9.675  -5.340  -6.633  0.00  0.00    +0.004 A 
ENDBRANCH  31  32
ENDBRANCH  30  31
ENDBRANCH  27  30
ENDBRANCH  26  27
ENDBRANCH  23  26
ENDBRANCH  22  23
ENDBRANCH   1  22
TORSDOF 12
