REMARK  Name = ZINC06359456
REMARK  9 active torsions:
REMARK  status: ('A' for Active; 'I' for Inactive)
REMARK    1  A    between atoms: C_1  and  C_2
REMARK    2  A    between atoms: C_2  and  N_3
REMARK    3  A    between atoms: C_4  and  C_17
REMARK    4  A    between atoms: C_7  and  S_8
REMARK    5  A    between atoms: S_8  and  C_9
REMARK    6  A    between atoms: C_9  and  C_10
REMARK    7  A    between atoms: C_17  and  C_19
REMARK    8  A    between atoms: C_17  and  O_20
REMARK    9  A    between atoms: O_20  and  C_21
REMARK                            x       y       z     vdW  Elec       q    Type
REMARK                         _______ _______ _______ _____ _____    ______ ____
ROOT
ATOM      1  N   UNL     1      -1.723  -0.417  -0.010  0.00  0.00    -0.303 N 
ATOM      2  C   UNL     1      -2.349  -0.688   1.175  0.00  0.00    +0.175 A 
ATOM      3  N   UNL     1      -3.589  -0.981   0.901  0.00  0.00    -0.130 NA
ATOM      4  N   UNL     1      -3.788  -0.913  -0.367  0.00  0.00    -0.122 NA
ATOM      5  C   UNL     1      -2.678  -0.566  -0.975  0.00  0.00    +0.192 A 
ENDROOT
BRANCH   1   7
ATOM      6  C   UNL     1      -0.190   1.485  -0.134  0.00  0.00    +0.027 C 
ATOM      7  C   UNL     1      -0.321  -0.038  -0.204  0.00  0.00    +0.122 C 
ENDBRANCH   1   7
BRANCH   2   8
ATOM      8  C   UNL     1      -1.721  -0.656   2.545  0.00  0.00    +0.238 C 
ATOM      9  C   UNL     1      -2.179   0.601   3.287  0.00  0.00    +0.060 C 
BRANCH   8  10
ATOM     10  O   UNL     1      -2.120  -1.815   3.280  0.00  0.00    -0.481 OA
BRANCH  10  11
ATOM     11  C   UNL     1      -1.295  -2.228   4.277  0.00  0.00    +0.122 A 
ATOM     12  C   UNL     1      -1.559  -3.410   4.953  0.00  0.00    +0.045 A 
ATOM     13  C   UNL     1      -0.718  -3.828   5.966  0.00  0.00    +0.004 A 
ATOM     14  C   UNL     1       0.386  -3.068   6.307  0.00  0.00    +0.000 A 
ATOM     15  C   UNL     1       0.651  -1.889   5.635  0.00  0.00    +0.004 A 
ATOM     16  C   UNL     1      -0.183  -1.470   4.617  0.00  0.00    +0.045 A 
ENDBRANCH  10  11
ENDBRANCH   8  10
ENDBRANCH   2   8
BRANCH   5  17
ATOM     17  S   UNL     1      -2.459  -0.339  -2.708  0.00  0.00    -0.081 S 
BRANCH  17  18
ATOM     18  C   UNL     1      -4.097  -0.689  -3.406  0.00  0.00    +0.112 C 
BRANCH  18  19
ATOM     19  C   UNL     1      -4.049  -0.529  -4.904  0.00  0.00    -0.037 A 
ATOM     20  C   UNL     1      -4.317   0.701  -5.476  0.00  0.00    +0.006 A 
ATOM     21  C   UNL     1      -4.274   0.849  -6.850  0.00  0.00    +0.020 A 
ATOM     22  C   UNL     1      -3.962  -0.234  -7.652  0.00  0.00    +0.041 A 
ATOM     23  C   UNL     1      -3.693  -1.465  -7.079  0.00  0.00    +0.020 A 
ATOM     24  C   UNL     1      -3.731  -1.610  -5.705  0.00  0.00    +0.006 A 
ATOM     25 CL   UNL     1      -3.907  -0.050  -9.377  0.00  0.00    -0.084 Cl
ENDBRANCH  18  19
ENDBRANCH  17  18
ENDBRANCH   5  17
TORSDOF 7
