REMARK  Name = ZINC45748706
REMARK  7 active torsions:
REMARK  status: ('A' for Active; 'I' for Inactive)
REMARK    1  A    between atoms: C_3  and  C_6
REMARK    2  A    between atoms: N_8  and  C_9
REMARK    3  A    between atoms: C_12  and  N_19
REMARK    4  A    between atoms: C_13  and  C_15
REMARK    5  A    between atoms: C_20  and  C_22
REMARK    6  A    between atoms: C_22  and  C_23
REMARK    7  A    between atoms: C_26  and  C_28
REMARK                            x       y       z     vdW  Elec       q    Type
REMARK                         _______ _______ _______ _____ _____    ______ ____
ROOT
ATOM      1  C   UNL     1       5.599  -0.635  -0.168  0.00  0.00    +0.034 A 
ATOM      2  C   UNL     1       6.375   0.516  -0.155  0.00  0.00    +0.025 A 
ATOM      3  C   UNL     1       7.749   0.424  -0.251  0.00  0.00    +0.025 A 
ATOM      4  C   UNL     1       8.355  -0.821  -0.362  0.00  0.00    +0.045 A 
ATOM      5  C   UNL     1       7.579  -1.972  -0.375  0.00  0.00    +0.078 A 
ATOM      6  C   UNL     1       6.205  -1.880  -0.272  0.00  0.00    +0.037 A 
ENDROOT
BRANCH   1   9
ATOM      7  C   UNL     1       3.557   0.489  -0.648  0.00  0.00    +0.284 C 
ATOM      8  O   UNL     1       4.188   1.383  -1.182  0.00  0.00    -0.266 OA
ATOM      9  N   UNL     1       4.205  -0.542  -0.070  0.00  0.00    -0.279 N 
ATOM     10  H   UNL     1       3.706  -1.219   0.413  0.00  0.00    +0.155 HD
BRANCH   7  13
ATOM     11  C   UNL     1      -0.021   1.157  -0.931  0.00  0.00    +0.042 A 
ATOM     12  C   UNL     1       1.314   1.516  -1.177  0.00  0.00    +0.054 A 
ATOM     13  C   UNL     1       2.092   0.535  -0.632  0.00  0.00    +0.189 A 
ATOM     14  O   UNL     1       1.276  -0.385  -0.078  0.00  0.00    -0.458 OA
ATOM     15  C   UNL     1       0.001  -0.014  -0.256  0.00  0.00    +0.196 A 
ENDBRANCH   7  13
ENDBRANCH   1   9
BRANCH   5  16
ATOM     16  C   UNL     1       8.237  -3.323  -0.496  0.00  0.00    +0.419 C 
ATOM     17  F   UNL     1       7.257  -4.321  -0.488  0.00  0.00    -0.166 F 
ATOM     18  F   UNL     1       8.956  -3.385  -1.695  0.00  0.00    -0.166 F 
ATOM     19  F   UNL     1       9.108  -3.515   0.581  0.00  0.00    -0.166 F 
ENDBRANCH   5  16
BRANCH   4  20
ATOM     20  N   UNL     1       9.749  -0.915  -0.460  0.00  0.00    -0.285 N 
ATOM     21  C   UNL     1      10.532  -0.042   0.205  0.00  0.00    +0.223 C 
ATOM     22  O   UNL     1      10.030   0.874   0.822  0.00  0.00    -0.275 OA
ATOM     23  H   UNL     1      10.151  -1.607  -1.007  0.00  0.00    +0.155 HD
BRANCH  21  24
ATOM     24  C   UNL     1      12.030  -0.205   0.183  0.00  0.00    +0.152 C 
BRANCH  24  25
ATOM     25  C   UNL     1      12.666   0.892   0.998  0.00  0.00    +0.058 A 
ATOM     26  C   UNL     1      13.519   0.581   2.008  0.00  0.00    +0.071 A 
ATOM     27  S   UNL     1      13.946   2.215   2.595  0.00  0.00    -0.075 S 
ATOM     28  C   UNL     1      12.945   3.133   1.433  0.00  0.00    +0.109 A 
ATOM     29  N   UNL     1      12.401   2.150   0.728  0.00  0.00    -0.243 NA
BRANCH  28  30
ATOM     30  C   UNL     1      12.773   4.595   1.292  0.00  0.00    +0.014 A 
ATOM     31  C   UNL     1      13.447   5.477   2.134  0.00  0.00    +0.018 A 
ATOM     32  C   UNL     1      13.264   6.806   1.974  0.00  0.00    +0.046 A 
ATOM     33  S   UNL     1      12.115   6.870   0.609  0.00  0.00    -0.104 S 
ATOM     34  C   UNL     1      11.951   5.115   0.328  0.00  0.00    +0.055 A 
ENDBRANCH  28  30
ENDBRANCH  24  25
ENDBRANCH  21  24
ENDBRANCH   4  20
TORSDOF 7
