REMARK  Name = ZINC06189484
REMARK  4 active torsions:
REMARK  status: ('A' for Active; 'I' for Inactive)
REMARK    1  A    between atoms: C_6  and  C_7
REMARK    2  A    between atoms: C_13  and  N_24
REMARK    3  A    between atoms: C_14  and  C_16
REMARK    4  A    between atoms: N_18  and  C_19
REMARK                            x       y       z     vdW  Elec       q    Type
REMARK                         _______ _______ _______ _____ _____    ______ ____
ROOT
ATOM      1  C   UNL     1       3.261   2.287  -2.021  0.00  0.00    -0.002 A 
ATOM      2  C   UNL     1       1.910   1.940  -2.017  0.00  0.00    -0.018 A 
ATOM      3  C   UNL     1       1.503   0.754  -2.589  0.00  0.00    +0.046 A 
ATOM      4  N   UNL     1       2.396  -0.062  -3.135  0.00  0.00    -0.244 NA
ATOM      5  C   UNL     1       3.679   0.213  -3.164  0.00  0.00    +0.112 A 
ATOM      6  C   UNL     1       4.207   1.402  -2.613  0.00  0.00    +0.037 A 
ATOM      7  C   UNL     1       5.647   1.552  -2.731  0.00  0.00    +0.054 A 
ATOM      8  C   UNL     1       6.361   0.548  -3.350  0.00  0.00    +0.097 A 
ATOM      9  S   UNL     1       5.105  -0.634  -3.797  0.00  0.00    -0.062 S 
ATOM     10  C   UNL     1       0.059   0.326  -2.626  0.00  0.00    +0.056 C 
ATOM     11  C   UNL     1      -0.761   1.112  -1.605  0.00  0.00    +0.006 C 
ATOM     12  C   UNL     1      -0.486   2.606  -1.812  0.00  0.00    +0.005 C 
ATOM     13  C   UNL     1       0.946   2.898  -1.367  0.00  0.00    +0.037 C 
ENDROOT
BRANCH   1  19
ATOM     14  C   UNL     1       3.682   3.728  -0.031  0.00  0.00    +0.010 A 
ATOM     15  C   UNL     1       4.103   4.917   0.528  0.00  0.00    +0.020 A 
ATOM     16  C   UNL     1       4.541   5.949  -0.284  0.00  0.00    +0.041 A 
ATOM     17  C   UNL     1       4.564   5.793  -1.660  0.00  0.00    +0.020 A 
ATOM     18  C   UNL     1       4.150   4.607  -2.229  0.00  0.00    +0.010 A 
ATOM     19  C   UNL     1       3.708   3.563  -1.416  0.00  0.00    -0.017 A 
ATOM     20 CL   UNL     1       5.064   7.445   0.425  0.00  0.00    -0.084 Cl
ENDBRANCH   1  19
BRANCH   8  21
ATOM     21  C   UNL     1       7.758   0.475  -3.577  0.00  0.00    +0.253 C 
ATOM     22  O   UNL     1       8.483   1.379  -3.203  0.00  0.00    -0.270 OA
ATOM     23  N   UNL     1       8.283  -0.595  -4.206  0.00  0.00    -0.308 N 
ATOM     24  H   UNL     1       7.705  -1.315  -4.504  0.00  0.00    +0.149 HD
BRANCH  23  25
ATOM     25  C   UNL     1       9.727  -0.671  -4.440  0.00  0.00    +0.073 C 
ATOM     26  C   UNL     1      10.082   0.015  -5.775  0.00  0.00    +0.022 C 
ATOM     27  C   UNL     1      11.214  -0.863  -6.364  0.00  0.00    +0.002 C 
ATOM     28  C   UNL     1      10.768  -2.296  -5.982  0.00  0.00    +0.002 C 
ATOM     29  C   UNL     1      10.163  -2.141  -4.572  0.00  0.00    +0.022 C 
ENDBRANCH  23  25
ENDBRANCH   8  21
BRANCH   7  30
ATOM     30  N   UNL     1       6.288   2.677  -2.231  0.00  0.00    -0.356 N 
ATOM     31  H   UNL     1       5.845   3.236  -1.573  0.00  0.00    +0.142 HD
ATOM     32  H   UNL     1       7.179   2.905  -2.540  0.00  0.00    +0.142 HD
ENDBRANCH   7  30
TORSDOF 4
