REMARK  Name = ZINC06244935
REMARK  8 active torsions:
REMARK  status: ('A' for Active; 'I' for Inactive)
REMARK    1  A    between atoms: C_1  and  C_2
REMARK    2  A    between atoms: C_5  and  C_40
REMARK    3  A    between atoms: C_9  and  C_14
REMARK    4  A    between atoms: C_14  and  C_16
REMARK    5  A    between atoms: C_14  and  N_70
REMARK    6  A    between atoms: N_20  and  C_21
REMARK    7  A    between atoms: C_21  and  C_22
REMARK    8  A    between atoms: N_30  and  C_33
REMARK                            x       y       z     vdW  Elec       q    Type
REMARK                         _______ _______ _______ _____ _____    ______ ____
ROOT
ATOM      1  C   UNL     1       1.134   7.465   0.029  0.00  0.00    +0.039 C 
ENDROOT
BRANCH   1  10
ATOM      2  C   UNL     1      -2.594   3.829   0.045  0.00  0.00    +0.044 C 
ATOM      3  C   UNL     1      -1.269   3.112   0.029  0.00  0.00    -0.041 A 
ATOM      4  C   UNL     1      -1.228   1.746   0.017  0.00  0.00    +0.004 A 
ATOM      5  C   UNL     1      -0.013   1.076   0.008  0.00  0.00    +0.005 A 
ATOM      6  C   UNL     1       1.176   1.774   0.000  0.00  0.00    -0.026 A 
ATOM      7  C   UNL     1       1.159   3.165   0.007  0.00  0.00    +0.052 A 
ATOM      8  C   UNL     1      -0.075   3.841   0.022  0.00  0.00    +0.002 A 
ATOM      9  C   UNL     1      -0.083   5.305   0.030  0.00  0.00    +0.018 A 
ATOM     10  C   UNL     1       1.105   5.959   0.022  0.00  0.00    +0.011 A 
ATOM     11  C   UNL     1       2.316   5.233   0.007  0.00  0.00    +0.251 A 
ATOM     12  O   UNL     1       3.373   5.840  -0.000  0.00  0.00    -0.268 OA
ATOM     13  N   UNL     1       2.333   3.889  -0.000  0.00  0.00    -0.322 N 
ATOM     14  H   UNL     1       3.183   3.421  -0.011  0.00  0.00    +0.169 HD
ATOM     15  C   UNL     1       2.488   1.033  -0.016  0.00  0.00    +0.046 C 
ENDBRANCH   1  10
BRANCH   1  21
ATOM     16  C   UNL     1       1.446   7.394   2.430  0.00  0.00    -0.058 C 
ATOM     17  C   UNL     1       2.366   7.840   3.569  0.00  0.00    +0.086 C 
ATOM     18  N   UNL     1       2.416   9.308   3.608  0.00  0.00    -0.331 N 
ATOM     19  C   UNL     1       2.917   9.849   2.337  0.00  0.00    +0.086 C 
ATOM     20  C   UNL     1       1.998   9.403   1.198  0.00  0.00    -0.058 C 
ATOM     21  N   UNL     1       1.974   7.926   1.156  0.00  0.00    +0.391 N 
ATOM     22  H   UNL     1       2.931   7.580   1.020  0.00  0.00    -0.080 HD
BRANCH  18  23
ATOM     23  C   UNL     1       3.191   9.755   4.683  0.00  0.00    +0.065 A 
ATOM     24  C   UNL     1       3.300  11.114   4.945  0.00  0.00    +0.026 A 
ATOM     25  C   UNL     1       4.066  11.552   6.008  0.00  0.00    +0.002 A 
ATOM     26  C   UNL     1       4.724  10.639   6.811  0.00  0.00    +0.003 A 
ATOM     27  C   UNL     1       4.618   9.284   6.555  0.00  0.00    +0.040 A 
ATOM     28  C   UNL     1       3.849   8.838   5.496  0.00  0.00    +0.144 A 
ATOM     29  F   UNL     1       3.740   7.514   5.249  0.00  0.00    -0.204 F 
ENDBRANCH  18  23
ENDBRANCH   1  21
BRANCH   1  30
ATOM     30  C   UNL     1       1.731   7.963  -1.262  0.00  0.00    +0.143 A 
ATOM     31  N   UNL     1       2.999   7.945  -1.595  0.00  0.00    -0.115 NA
ATOM     32  N   UNL     1       3.107   8.456  -2.773  0.00  0.00    -0.023 NA
ATOM     33  N   UNL     1       1.942   8.799  -3.199  0.00  0.00    -0.044 NA
ATOM     34  N   UNL     1       1.067   8.507  -2.298  0.00  0.00    -0.228 N 
BRANCH  34  35
ATOM     35  C   UNL     1      -0.379   8.728  -2.385  0.00  0.00    +0.178 C 
BRANCH  35  36
ATOM     36  C   UNL     1      -0.717  10.115  -1.833  0.00  0.00    +0.140 C 
ATOM     37  C   UNL     1      -2.236  10.391  -1.966  0.00  0.00    +0.035 C 
ATOM     38  C   UNL     1      -2.444  11.440  -0.840  0.00  0.00    +0.031 C 
ATOM     39  C   UNL     1      -1.435  10.975   0.232  0.00  0.00    +0.160 C 
ATOM     40  O   UNL     1      -0.447  10.171  -0.424  0.00  0.00    -0.375 OA
ENDBRANCH  35  36
ENDBRANCH  34  35
ENDBRANCH   1  30
TORSDOF 6
