REMARK  Name = ZINC08827719
REMARK  17 active torsions:
REMARK  status: ('A' for Active; 'I' for Inactive)
REMARK    1  A    between atoms: C_1  and  C_2
REMARK    2  A    between atoms: C_2  and  N_64
REMARK    3  A    between atoms: C_3  and  C_4
REMARK    4  A    between atoms: C_3  and  N_64
REMARK    5  A    between atoms: C_5  and  C_6
REMARK    6  A    between atoms: C_5  and  N_64
REMARK    7  A    between atoms: C_6  and  N_7
REMARK    8  A    between atoms: C_8  and  C_29
REMARK    9  A    between atoms: C_10  and  C_15
REMARK   10  A    between atoms: C_11  and  O_14
REMARK   11  A    between atoms: C_15  and  C_17
REMARK   12  A    between atoms: C_18  and  C_28
REMARK   13  A    between atoms: C_19  and  C_24
REMARK   14  A    between atoms: C_22  and  C_23
REMARK   15  A    between atoms: C_24  and  O_26
REMARK   16  A    between atoms: O_26  and  C_27
REMARK   17  A    between atoms: C_32  and  C_34
REMARK                            x       y       z     vdW  Elec       q    Type
REMARK                         _______ _______ _______ _____ _____    ______ ____
ROOT
ATOM      1  N   UNL     1      -1.209   2.377  -0.393  0.00  0.00    -0.282 N 
ATOM      2  C   UNL     1      -1.334   2.682   1.037  0.00  0.00    +0.180 C 
ATOM      3  C   UNL     1      -2.761   2.360   1.413  0.00  0.00    +0.074 C 
ATOM      4  C   UNL     1      -3.371   1.916   0.290  0.00  0.00    +0.188 C 
ATOM      5  C   UNL     1      -2.404   1.934  -0.827  0.00  0.00    +0.282 C 
ATOM      6  O   UNL     1      -2.650   1.597  -1.968  0.00  0.00    -0.267 OA
ENDROOT
BRANCH   2   7
ATOM      7  C   UNL     1      -0.383   1.827   1.834  0.00  0.00    +0.130 A 
ATOM      8  C   UNL     1       0.432   2.260   2.813  0.00  0.00    +0.047 A 
ATOM      9  C   UNL     1       1.143   1.132   3.283  0.00  0.00    +0.045 A 
ATOM     10  C   UNL     1       0.720   0.077   2.563  0.00  0.00    +0.102 A 
ATOM     11  O   UNL     1      -0.208   0.503   1.691  0.00  0.00    -0.463 OA
ATOM     12  C   UNL     1       1.201  -1.343   2.715  0.00  0.00    +0.086 C 
ENDBRANCH   2   7
BRANCH   4  13
ATOM     13  O   UNL     1      -4.663   1.522   0.202  0.00  0.00    -0.502 OA
ATOM     14  H   UNL     1      -4.862   1.241  -0.736  0.00  0.00    +0.292 HD
ENDBRANCH   4  13
BRANCH   3  15
ATOM     15  C   UNL     1      -3.369   2.502   2.741  0.00  0.00    +0.197 C 
ATOM     16  O   UNL     1      -4.554   2.268   2.896  0.00  0.00    -0.287 OA
BRANCH  15  17
ATOM     17  C   UNL     1      -2.546   2.927   3.887  0.00  0.00    +0.046 A 
ATOM     18  C   UNL     1      -1.941   2.083   4.846  0.00  0.00    -0.008 A 
ATOM     19  C   UNL     1      -1.273   2.888   5.722  0.00  0.00    +0.128 A 
ATOM     20  N   UNL     1      -1.459   4.198   5.334  0.00  0.00    -0.352 N 
ATOM     21  H   UNL     1      -1.095   4.974   5.787  0.00  0.00    +0.166 HD
ATOM     22  C   UNL     1      -2.224   4.228   4.231  0.00  0.00    +0.025 A 
ATOM     23  C   UNL     1      -2.658   5.468   3.493  0.00  0.00    +0.064 C 
ATOM     24  C   UNL     1      -2.017   0.578   4.889  0.00  0.00    +0.047 C 
BRANCH  19  25
ATOM     25  C   UNL     1      -0.496   2.437   6.881  0.00  0.00    +0.356 C 
ATOM     26  O   UNL     1      -0.403   1.249   7.125  0.00  0.00    -0.243 OA
BRANCH  25  27
ATOM     27  O   UNL     1       0.114   3.339   7.676  0.00  0.00    -0.463 OA
ATOM     28  C   UNL     1       0.866   2.821   8.805  0.00  0.00    +0.280 C 
ENDBRANCH  25  27
ENDBRANCH  19  25
ENDBRANCH  15  17
ENDBRANCH   3  15
BRANCH   1  29
ATOM     29  C   UNL     1      -0.001   2.533  -1.206  0.00  0.00    +0.091 C 
BRANCH  29  30
ATOM     30  C   UNL     1       0.811   1.236  -1.167  0.00  0.00    -0.060 C 
BRANCH  30  31
ATOM     31  N   UNL     1       2.015   1.402  -2.008  0.00  0.00    +0.380 N 
ATOM     32  H   UNL     1       1.731   1.742  -2.934  0.00  0.00    -0.082 HD
BRANCH  31  34
ATOM     33  C   UNL     1       3.388   1.910  -0.015  0.00  0.00    -0.017 C 
ATOM     34  C   UNL     1       2.928   2.389  -1.394  0.00  0.00    -0.082 C 
ENDBRANCH  31  34
BRANCH  31  35
ATOM     35  C   UNL     1       2.705   0.104  -2.163  0.00  0.00    -0.082 C 
ATOM     36  C   UNL     1       3.744   0.230  -3.280  0.00  0.00    -0.017 C 
ENDBRANCH  31  35
ENDBRANCH  30  31
ENDBRANCH  29  30
ENDBRANCH   1  29
TORSDOF 11
