REMARK  Name = ZINC35929748
REMARK  6 active torsions:
REMARK  status: ('A' for Active; 'I' for Inactive)
REMARK    1  A    between atoms: C_1  and  C_2
REMARK    2  A    between atoms: C_2  and  C_3
REMARK    3  A    between atoms: C_2  and  N_4
REMARK    4  A    between atoms: C_12  and  C_27
REMARK    5  A    between atoms: C_14  and  N_26
REMARK    6  A    between atoms: N_15  and  C_19
REMARK                            x       y       z     vdW  Elec       q    Type
REMARK                         _______ _______ _______ _____ _____    ______ ____
ROOT
ATOM      1  N   UNL     1      -1.122  -0.572  -0.335  0.00  0.00    +0.383 N 
ATOM      2  C   UNL     1      -1.944  -0.101  -1.458  0.00  0.00    -0.059 C 
ATOM      3  C   UNL     1      -3.417  -0.417  -1.179  0.00  0.00    +0.089 C 
ATOM      4  N   UNL     1      -3.541  -1.855  -0.897  0.00  0.00    -0.303 N 
ATOM      5  C   UNL     1      -2.638  -2.446   0.102  0.00  0.00    +0.089 C 
ATOM      6  C   UNL     1      -1.201  -2.035  -0.237  0.00  0.00    -0.059 C 
ATOM      7  C   UNL     1      -4.479  -2.631  -1.555  0.00  0.00    +0.220 A 
ATOM      8  N   UNL     1      -4.547  -3.924  -1.254  0.00  0.00    -0.213 NA
ATOM      9  C   UNL     1      -5.418  -4.739  -1.837  0.00  0.00    +0.090 A 
ATOM     10  C   UNL     1      -6.294  -4.200  -2.806  0.00  0.00    +0.086 A 
ATOM     11  C   UNL     1      -7.309  -4.696  -3.615  0.00  0.00    +0.131 A 
ATOM     12  N   UNL     1      -7.783  -3.668  -4.346  0.00  0.00    -0.216 N 
ATOM     13  N   UNL     1      -7.088  -2.496  -4.027  0.00  0.00    -0.144 NA
ATOM     14  C   UNL     1      -6.184  -2.762  -3.109  0.00  0.00    +0.189 A 
ATOM     15  N   UNL     1      -5.260  -2.046  -2.440  0.00  0.00    -0.193 NA
ATOM     16  H   UNL     1      -1.460  -0.160   0.522  0.00  0.00    -0.081 HD
ENDROOT
BRANCH  12  17
ATOM     17  C   UNL     1      -8.818  -3.759  -5.286  0.00  0.00    +0.068 A 
ATOM     18  C   UNL     1      -8.961  -4.908  -6.053  0.00  0.00    +0.030 A 
ATOM     19  C   UNL     1      -9.982  -4.996  -6.979  0.00  0.00    +0.040 A 
ATOM     20  C   UNL     1     -10.862  -3.940  -7.143  0.00  0.00    +0.124 A 
ATOM     21  C   UNL     1     -10.721  -2.793  -6.379  0.00  0.00    +0.040 A 
ATOM     22  C   UNL     1      -9.705  -2.703  -5.448  0.00  0.00    +0.030 A 
ATOM     23  F   UNL     1     -11.859  -4.027  -8.050  0.00  0.00    -0.205 F 
ENDBRANCH  12  17
BRANCH   9  24
ATOM     24  C   UNL     1      -5.469  -6.175  -1.482  0.00  0.00    +0.020 A 
ATOM     25  C   UNL     1      -5.257  -7.147  -2.460  0.00  0.00    +0.011 A 
ATOM     26  C   UNL     1      -5.306  -8.483  -2.122  0.00  0.00    +0.001 A 
ATOM     27  C   UNL     1      -5.564  -8.862  -0.816  0.00  0.00    +0.001 A 
ATOM     28  C   UNL     1      -5.775  -7.905   0.159  0.00  0.00    +0.020 A 
ATOM     29  C   UNL     1      -5.724  -6.562  -0.165  0.00  0.00    +0.050 A 
ATOM     30 CL   UNL     1      -5.981  -5.361   1.062  0.00  0.00    -0.083 Cl
ENDBRANCH   9  24
BRANCH   1  32
ATOM     31  C   UNL     1       0.359   1.352  -0.654  0.00  0.00    -0.014 C 
ATOM     32  C   UNL     1       0.275  -0.172  -0.552  0.00  0.00    -0.075 C 
ATOM     33  C   UNL     1       1.130  -0.653   0.622  0.00  0.00    -0.014 C 
ENDBRANCH   1  32
BRANCH  11  34
ATOM     34  N   UNL     1      -7.752  -6.005  -3.661  0.00  0.00    -0.342 N 
ATOM     35  H   UNL     1      -7.277  -6.695  -3.172  0.00  0.00    +0.144 HD
ATOM     36  H   UNL     1      -8.538  -6.232  -4.182  0.00  0.00    +0.144 HD
ENDBRANCH  11  34
TORSDOF 4
