REMARK  Name = ZINC50326136
REMARK  4 active torsions:
REMARK  status: ('A' for Active; 'I' for Inactive)
REMARK    1  A    between atoms: C_1  and  N_2
REMARK    2  A    between atoms: N_2  and  C_3
REMARK    3  A    between atoms: C_3  and  C_5
REMARK    4  A    between atoms: C_3  and  C_13
REMARK                            x       y       z     vdW  Elec       q    Type
REMARK                         _______ _______ _______ _____ _____    ______ ____
ROOT
ATOM      1  C   UNL     1       0.690  -0.478  -1.207  0.00  0.00    -0.012 C 
ENDROOT
BRANCH   1   2
ATOM      2  C   UNL     1       2.137  -0.060  -1.158  0.00  0.00    -0.021 A 
ATOM      3  C   UNL     1       2.749   0.172   0.060  0.00  0.00    +0.020 A 
ATOM      4  C   UNL     1       4.077   0.556   0.105  0.00  0.00    +0.018 A 
ATOM      5  C   UNL     1       4.793   0.708  -1.069  0.00  0.00    +0.018 A 
ATOM      6  C   UNL     1       4.183   0.476  -2.287  0.00  0.00    +0.039 A 
ATOM      7  C   UNL     1       2.855   0.087  -2.332  0.00  0.00    +0.125 A 
ATOM      8  F   UNL     1       2.259  -0.145  -3.522  0.00  0.00    -0.205 F 
ATOM      9 BR   UNL     1       4.913   0.873   1.771  0.00  0.00    -0.050 Br
ENDBRANCH   1   2
BRANCH   1  10
ATOM     10  C   UNL     1       0.603  -1.981  -1.277  0.00  0.00    -0.083 C 
ATOM     11  C   UNL     1       0.112  -2.510  -2.351  0.00  0.00    -0.029 C 
ATOM     12  C   UNL     1      -0.047  -3.987  -2.563  0.00  0.00    +0.027 C 
ATOM     13  C   UNL     1       0.815  -4.760  -1.563  0.00  0.00    +0.004 C 
ATOM     14  C   UNL     1       0.550  -4.199  -0.160  0.00  0.00    +0.005 C 
ATOM     15  C   UNL     1       1.097  -2.770  -0.101  0.00  0.00    +0.029 C 
ENDBRANCH   1  10
BRANCH   1  17
ATOM     16  C   UNL     1      -0.018   1.465   0.010  0.00  0.00    -0.099 C 
ATOM     17  N   UNL     1       0.002  -0.004   0.002  0.00  0.00    +0.384 N 
ATOM     18  H   UNL     1       0.490  -0.338   0.820  0.00  0.00    -0.085 HD
ATOM     19  H   UNL     1      -0.945  -0.353   0.009  0.00  0.00    -0.085 HD
ENDBRANCH   1  17
TORSDOF 3
