REMARK  Name = ZINC53957718
REMARK  7 active torsions:
REMARK  status: ('A' for Active; 'I' for Inactive)
REMARK    1  A    between atoms: C_1  and  C_2
REMARK    2  A    between atoms: C_8  and  N_10
REMARK    3  A    between atoms: N_13  and  C_14
REMARK    4  A    between atoms: N_13  and  C_15
REMARK    5  A    between atoms: C_15  and  C_17
REMARK    6  A    between atoms: C_15  and  C_18
REMARK    7  A    between atoms: C_21  and  N_24
REMARK                            x       y       z     vdW  Elec       q    Type
REMARK                         _______ _______ _______ _____ _____    ______ ____
ROOT
ATOM      1  N   UNL     1       0.050  -0.053   2.453  0.00  0.00    -0.296 N 
ATOM      2  C   UNL     1       0.730   0.077   3.610  0.00  0.00    +0.303 C 
ATOM      3  O   UNL     1       1.908  -0.219   3.659  0.00  0.00    -0.253 OA
ATOM      4  N   UNL     1       0.103   0.533   4.712  0.00  0.00    -0.282 N 
ATOM      5  C   UNL     1      -1.317   0.889   4.652  0.00  0.00    +0.134 C 
ATOM      6  H   UNL     1      -0.890   0.183   2.413  0.00  0.00    +0.151 HD
ENDROOT
BRANCH   1  13
ATOM      7  C   UNL     1       0.015   1.490   0.002  0.00  0.00    +0.009 C 
ATOM      8  C   UNL     1       0.007  -0.040   0.008  0.00  0.00    +0.006 C 
ATOM      9  C   UNL     1      -1.439  -0.542   0.017  0.00  0.00    +0.005 C 
ATOM     10  C   UNL     1      -1.447  -2.072   0.023  0.00  0.00    +0.000 C 
ATOM     11  C   UNL     1      -0.722  -2.581   1.270  0.00  0.00    +0.002 C 
ATOM     12  C   UNL     1       0.723  -2.079   1.260  0.00  0.00    +0.022 C 
ATOM     13  C   UNL     1       0.732  -0.549   1.255  0.00  0.00    +0.077 C 
ENDBRANCH   1  13
BRANCH   4  14
ATOM     14  C   UNL     1       0.841   0.674   5.969  0.00  0.00    +0.104 C 
ATOM     15  C   UNL     1       0.681   2.101   6.498  0.00  0.00    +0.033 C 
BRANCH  14  16
ATOM     16  C   UNL     1       0.298  -0.301   6.982  0.00  0.00    -0.027 A 
ATOM     17  C   UNL     1       1.151  -1.187   7.614  0.00  0.00    +0.007 A 
ATOM     18  C   UNL     1       0.657  -2.081   8.543  0.00  0.00    +0.028 A 
ATOM     19  C   UNL     1      -0.699  -2.090   8.843  0.00  0.00    +0.067 A 
ATOM     20  C   UNL     1      -1.553  -1.199   8.207  0.00  0.00    +0.028 A 
ATOM     21  C   UNL     1      -1.052  -0.303   7.283  0.00  0.00    +0.007 A 
BRANCH  19  22
ATOM     22  N   UNL     1      -1.204  -2.997   9.785  0.00  0.00    -0.220 N 
ATOM     23  C   UNL     1      -2.488  -3.127  10.174  0.00  0.00    +0.225 A 
ATOM     24  N   UNL     1      -2.546  -4.081  11.067  0.00  0.00    -0.222 NA
ATOM     25  C   UNL     1      -1.328  -4.582  11.274  0.00  0.00    +0.245 A 
ATOM     26  N   UNL     1      -0.474  -3.954  10.508  0.00  0.00    -0.154 NA
ENDBRANCH  19  22
ENDBRANCH  14  16
ENDBRANCH   4  14
TORSDOF 4
