REMARK  Name = ZINC45605179
REMARK  8 active torsions:
REMARK  status: ('A' for Active; 'I' for Inactive)
REMARK    1  A    between atoms: C_1  and  C_2
REMARK    2  A    between atoms: C_2  and  C_4
REMARK    3  A    between atoms: C_2  and  O_17
REMARK    4  A    between atoms: N_6  and  C_7
REMARK    5  A    between atoms: C_10  and  S_13
REMARK    6  A    between atoms: S_13  and  N_16
REMARK    7  A    between atoms: O_17  and  C_18
REMARK    8  A    between atoms: C_18  and  C_20
REMARK                            x       y       z     vdW  Elec       q    Type
REMARK                         _______ _______ _______ _____ _____    ______ ____
ROOT
ATOM      1  C   UNL     1      -0.009   1.520   0.021  0.00  0.00    +0.062 C 
ATOM      2  C   UNL     1       0.004  -0.010   0.005  0.00  0.00    +0.259 C 
ENDROOT
BRANCH   2   3
ATOM      3  C   UNL     1      -1.412  -0.524   0.012  0.00  0.00    +0.258 C 
ATOM      4  O   UNL     1      -1.839  -1.138  -0.943  0.00  0.00    -0.271 OA
ATOM      5  N   UNL     1      -2.204  -0.302   1.079  0.00  0.00    -0.282 N 
ATOM      6  H   UNL     1      -1.844   0.130   1.870  0.00  0.00    +0.155 HD
BRANCH   5   7
ATOM      7  C   UNL     1      -3.547  -0.694   1.048  0.00  0.00    +0.034 A 
ATOM      8  C   UNL     1      -4.513   0.077   1.681  0.00  0.00    +0.025 A 
ATOM      9  C   UNL     1      -5.837  -0.312   1.648  0.00  0.00    +0.030 A 
ATOM     10  C   UNL     1      -6.203  -1.469   0.985  0.00  0.00    +0.105 A 
ATOM     11  C   UNL     1      -5.244  -2.240   0.353  0.00  0.00    +0.030 A 
ATOM     12  C   UNL     1      -3.918  -1.852   0.377  0.00  0.00    +0.025 A 
BRANCH  10  13
ATOM     13  S   UNL     1      -7.894  -1.963   0.945  0.00  0.00    +0.056 S 
ATOM     14  O   UNL     1      -7.902  -3.367   0.725  0.00  0.00    -0.153 OA
ATOM     15  O   UNL     1      -8.518  -1.364   2.072  0.00  0.00    -0.153 OA
BRANCH  13  16
ATOM     16  N   UNL     1      -8.574  -1.270  -0.397  0.00  0.00    -0.204 NA
ATOM     17  H   UNL     1      -9.308  -1.713  -0.852  0.00  0.00    +0.144 HD
ATOM     18  H   UNL     1      -8.239  -0.422  -0.728  0.00  0.00    +0.144 HD
ENDBRANCH  13  16
ENDBRANCH  10  13
ENDBRANCH   5   7
ENDBRANCH   2   3
BRANCH   2  19
ATOM     19  O   UNL     1       0.672  -0.468  -1.173  0.00  0.00    -0.449 OA
BRANCH  19  20
ATOM     20  C   UNL     1       2.003  -0.661  -1.086  0.00  0.00    +0.340 C 
ATOM     21  O   UNL     1       2.581  -0.447  -0.038  0.00  0.00    -0.245 OA
BRANCH  20  22
ATOM     22  C   UNL     1       2.757  -1.133  -2.260  0.00  0.00    +0.067 A 
ATOM     23  C   UNL     1       2.119  -1.380  -3.474  0.00  0.00    +0.016 A 
ATOM     24  C   UNL     1       2.815  -1.825  -4.592  0.00  0.00    +0.005 A 
ATOM     25  C   UNL     1       4.161  -2.041  -4.550  0.00  0.00    -0.039 A 
ATOM     26  C   UNL     1       4.840  -1.806  -3.358  0.00  0.00    -0.011 A 
ATOM     27  C   UNL     1       4.199  -1.351  -2.193  0.00  0.00    -0.003 A 
ATOM     28  C   UNL     1       4.979  -1.141  -1.051  0.00  0.00    +0.009 A 
ATOM     29  C   UNL     1       6.323  -1.382  -1.117  0.00  0.00    +0.001 A 
ATOM     30  C   UNL     1       6.942  -1.829  -2.286  0.00  0.00    +0.004 A 
ATOM     31  C   UNL     1       6.208  -2.053  -3.412  0.00  0.00    -0.039 A 
ATOM     32  C   UNL     1       6.529  -2.517  -4.811  0.00  0.00    +0.040 C 
ATOM     33  C   UNL     1       5.180  -2.510  -5.563  0.00  0.00    +0.040 C 
ENDBRANCH  20  22
ENDBRANCH  19  20
ENDBRANCH   2  19
TORSDOF 7
