REMARK  Name = ZINC13041777
REMARK  10 active torsions:
REMARK  status: ('A' for Active; 'I' for Inactive)
REMARK    1  A    between atoms: C_1  and  C_2
REMARK    2  A    between atoms: C_2  and  C_25
REMARK    3  A    between atoms: N_5  and  C_9
REMARK    4  A    between atoms: C_9  and  C_10
REMARK    5  A    between atoms: N_12  and  C_13
REMARK    6  A    between atoms: C_14  and  C_23
REMARK    7  A    between atoms: C_28  and  C_31
REMARK    8  A    between atoms: C_31  and  C_32
REMARK    9  A    between atoms: C_31  and  C_33
REMARK   10  A    between atoms: C_31  and  C_34
REMARK                            x       y       z     vdW  Elec       q    Type
REMARK                         _______ _______ _______ _____ _____    ______ ____
ROOT
ATOM      1  C   UNL     1       6.718   6.250   1.085  0.00  0.00    +0.047 C 
ATOM      2  C   UNL     1       7.228   4.893   0.595  0.00  0.00    +0.135 C 
ATOM      3  C   UNL     1       6.324   3.777   1.079  0.00  0.00    +0.251 C 
ATOM      4  O   UNL     1       6.088   3.472   2.229  0.00  0.00    -0.272 OA
ATOM      5  N   UNL     1       5.837   3.194  -0.034  0.00  0.00    -0.215 N 
ATOM      6  C   UNL     1       6.306   3.778  -1.143  0.00  0.00    +0.310 C 
ATOM      7  O   UNL     1       6.012   3.425  -2.268  0.00  0.00    -0.252 OA
ATOM      8  N   UNL     1       7.136   4.801  -0.872  0.00  0.00    -0.281 N 
ATOM      9  H   UNL     1       7.589   5.366  -1.518  0.00  0.00    +0.152 HD
ENDROOT
BRANCH   2  10
ATOM     10  C   UNL     1       8.645   4.664   1.053  0.00  0.00    -0.015 A 
ATOM     11  C   UNL     1       8.889   3.997   2.239  0.00  0.00    +0.006 A 
ATOM     12  C   UNL     1      10.189   3.784   2.657  0.00  0.00    +0.004 A 
ATOM     13  C   UNL     1      11.245   4.245   1.894  0.00  0.00    -0.042 A 
ATOM     14  C   UNL     1      11.002   4.916   0.710  0.00  0.00    +0.004 A 
ATOM     15  C   UNL     1       9.701   5.126   0.290  0.00  0.00    +0.006 A 
BRANCH  13  16
ATOM     16  C   UNL     1      12.663   4.016   2.352  0.00  0.00    -0.013 C 
ATOM     17  C   UNL     1      13.361   5.364   2.541  0.00  0.00    +0.015 C 
ATOM     18  C   UNL     1      12.653   3.256   3.680  0.00  0.00    +0.015 C 
ATOM     19  C   UNL     1      13.413   3.196   1.301  0.00  0.00    +0.015 C 
ENDBRANCH  13  16
ENDBRANCH   2  10
BRANCH   5  20
ATOM     20  C   UNL     1       4.912   2.058  -0.030  0.00  0.00    +0.214 C 
BRANCH  20  21
ATOM     21  C   UNL     1       3.493   2.565  -0.016  0.00  0.00    +0.236 C 
ATOM     22  O   UNL     1       3.275   3.758  -0.009  0.00  0.00    -0.274 OA
ATOM     23  N   UNL     1       2.466   1.693  -0.011  0.00  0.00    -0.278 N 
ATOM     24  H   UNL     1       2.639   0.738  -0.016  0.00  0.00    +0.155 HD
BRANCH  23  25
ATOM     25  C   UNL     1       1.159   2.160   0.003  0.00  0.00    +0.090 A 
ATOM     26  C   UNL     1      -0.017   1.428   0.010  0.00  0.00    +0.084 A 
ATOM     27  C   UNL     1      -1.274   2.163   0.020  0.00  0.00    -0.018 A 
ATOM     28  C   UNL     1      -1.147   3.508   0.025  0.00  0.00    -0.004 A 
ATOM     29  S   UNL     1       0.601   3.799   0.014  0.00  0.00    -0.077 S 
ATOM     30  C   UNL     1      -2.239   4.532   0.022  0.00  0.00    +0.043 C 
ATOM     31  C   UNL     1      -3.266   4.183   1.096  0.00  0.00    +0.005 C 
ATOM     32  C   UNL     1      -4.321   3.265   0.487  0.00  0.00    +0.001 C 
ATOM     33  C   UNL     1      -3.688   2.371  -0.578  0.00  0.00    +0.005 C 
ATOM     34  C   UNL     1      -2.629   1.467   0.043  0.00  0.00    +0.037 C 
BRANCH  26  35
ATOM     35  C   UNL     1       0.002  -0.004   0.002  0.00  0.00    +0.102 C 
ATOM     36  N   UNL     1       0.018  -1.140  -0.004  0.00  0.00    -0.191 NA
ENDBRANCH  26  35
ENDBRANCH  23  25
ENDBRANCH  20  21
ENDBRANCH   5  20
TORSDOF 6
