REMARK  Name = ZINC39665970
REMARK  10 active torsions:
REMARK  status: ('A' for Active; 'I' for Inactive)
REMARK    1  A    between atoms: C_1  and  C_2
REMARK    2  A    between atoms: C_5  and  O_8
REMARK    3  A    between atoms: O_8  and  C_9
REMARK    4  A    between atoms: C_9  and  C_11
REMARK    5  A    between atoms: C_9  and  C_12
REMARK    6  A    between atoms: C_12  and  N_13
REMARK    7  A    between atoms: C_14  and  C_16
REMARK    8  A    between atoms: C_27  and  C_29
REMARK    9  A    between atoms: C_34  and  O_35
REMARK   10  A    between atoms: O_35  and  C_36
REMARK                            x       y       z     vdW  Elec       q    Type
REMARK                         _______ _______ _______ _____ _____    ______ ____
ROOT
ATOM      1  C   UNL     1       4.470  -6.837   0.096  0.00  0.00    +0.100 C 
ATOM      2  C   UNL     1       5.440  -6.163   1.093  0.00  0.00    +0.121 C 
ATOM      3  N   UNL     1       6.090  -7.290   1.802  0.00  0.00    -0.296 N 
ATOM      4  C   UNL     1       6.315  -8.308   0.748  0.00  0.00    +0.115 C 
ATOM      5  C   UNL     1       5.050  -8.243  -0.130  0.00  0.00    -0.004 C 
ATOM      6  C   UNL     1       4.048  -9.305   0.311  0.00  0.00    -0.010 C 
ATOM      7  C   UNL     1       4.624 -10.694   0.024  0.00  0.00    -0.082 C 
ATOM      8  N   UNL     1       4.904 -10.823  -1.412  0.00  0.00    +0.379 N 
ATOM      9  C   UNL     1       5.937  -9.859  -1.809  0.00  0.00    -0.082 C 
ATOM     10  C   UNL     1       5.416  -8.434  -1.599  0.00  0.00    -0.010 C 
ATOM     11  C   UNL     1       6.406  -7.371   3.110  0.00  0.00    +0.250 C 
ATOM     12  O   UNL     1       6.237  -6.411   3.836  0.00  0.00    -0.270 OA
ATOM     13  H   UNL     1       5.226 -11.759  -1.608  0.00  0.00    -0.086 HD
ATOM     14  H   UNL     1       4.060 -10.644  -1.935  0.00  0.00    -0.086 HD
ENDROOT
BRANCH  11  15
ATOM     15  C   UNL     1       6.955  -8.625   3.659  0.00  0.00    +0.078 A 
ATOM     16  C   UNL     1       7.913  -9.347   2.942  0.00  0.00    +0.017 A 
ATOM     17  C   UNL     1       8.423 -10.517   3.461  0.00  0.00    +0.001 A 
ATOM     18  C   UNL     1       7.990 -10.982   4.693  0.00  0.00    +0.004 A 
ATOM     19  C   UNL     1       7.045 -10.279   5.412  0.00  0.00    +0.046 A 
ATOM     20  C   UNL     1       6.525  -9.096   4.907  0.00  0.00    +0.132 A 
BRANCH  20  21
ATOM     21  O   UNL     1       5.599  -8.402   5.615  0.00  0.00    -0.494 OA
ATOM     22  C   UNL     1       5.208  -8.943   6.878  0.00  0.00    +0.277 C 
ENDBRANCH  20  21
ENDBRANCH  11  15
BRANCH   1  24
ATOM     23  N   UNL     1       2.014  -7.040  -0.118  0.00  0.00    -0.312 N 
ATOM     24  C   UNL     1       3.088  -6.928   0.689  0.00  0.00    +0.218 C 
ATOM     25  O   UNL     1       2.942  -6.901   1.893  0.00  0.00    -0.275 OA
ATOM     26  H   UNL     1       2.131  -7.062  -1.081  0.00  0.00    +0.149 HD
BRANCH  23  27
ATOM     27  C   UNL     1       0.671  -7.129   0.459  0.00  0.00    +0.148 C 
BRANCH  27  28
ATOM     28  C   UNL     1      -0.360  -7.248  -0.666  0.00  0.00    +0.187 C 
ATOM     29  C   UNL     1      -1.770  -7.215  -0.071  0.00  0.00    +0.053 C 
BRANCH  28  30
ATOM     30  O   UNL     1      -0.165  -8.481  -1.362  0.00  0.00    -0.488 OA
BRANCH  30  35
ATOM     31  C   UNL     1      -1.743  -8.641  -6.767  0.00  0.00    +0.044 C 
ATOM     32  C   UNL     1      -1.321  -8.598  -5.321  0.00  0.00    -0.050 A 
ATOM     33  C   UNL     1      -1.580  -7.473  -4.559  0.00  0.00    +0.007 A 
ATOM     34  C   UNL     1      -1.194  -7.431  -3.233  0.00  0.00    +0.046 A 
ATOM     35  C   UNL     1      -0.546  -8.519  -2.666  0.00  0.00    +0.121 A 
ATOM     36  C   UNL     1      -0.288  -9.647  -3.432  0.00  0.00    +0.046 A 
ATOM     37  C   UNL     1      -0.681  -9.686  -4.756  0.00  0.00    +0.007 A 
ENDBRANCH  30  35
ENDBRANCH  28  30
ENDBRANCH  27  28
ENDBRANCH  23  27
ENDBRANCH   1  24
TORSDOF 7
