REMARK  Name = ZINC12653860
REMARK  12 active torsions:
REMARK  status: ('A' for Active; 'I' for Inactive)
REMARK    1  A    between atoms: C_1  and  C_2
REMARK    2  A    between atoms: N_4  and  C_5
REMARK    3  A    between atoms: C_11  and  O_36
REMARK    4  A    between atoms: C_12  and  O_34
REMARK    5  A    between atoms: C_13  and  O_32
REMARK    6  A    between atoms: C_20  and  N_23
REMARK    7  A    between atoms: N_23  and  C_24
REMARK    8  A    between atoms: C_24  and  C_25
REMARK    9  A    between atoms: C_25  and  C_26
REMARK   10  A    between atoms: O_32  and  C_33
REMARK   11  A    between atoms: O_34  and  C_35
REMARK   12  A    between atoms: O_36  and  C_37
REMARK                            x       y       z     vdW  Elec       q    Type
REMARK                         _______ _______ _______ _____ _____    ______ ____
ROOT
ATOM      1  C   UNL     1       1.322  -0.762  -0.190  0.00  0.00    +0.104 C 
ATOM      2  C   UNL     1       1.092  -2.089   0.504  0.00  0.00    +0.032 C 
ATOM      3  C   UNL     1       2.282  -3.025   0.307  0.00  0.00    +0.038 C 
ATOM      4  C   UNL     1       3.566  -2.263   0.516  0.00  0.00    -0.032 A 
ATOM      5  C   UNL     1       4.280  -2.418   1.686  0.00  0.00    +0.054 A 
ATOM      6  C   UNL     1       5.469  -1.723   1.871  0.00  0.00    +0.165 A 
ATOM      7  C   UNL     1       5.946  -0.870   0.881  0.00  0.00    +0.204 A 
ATOM      8  C   UNL     1       5.229  -0.707  -0.297  0.00  0.00    +0.173 A 
ATOM      9  C   UNL     1       4.031  -1.405  -0.474  0.00  0.00    +0.031 A 
ATOM     10  C   UNL     1       3.241  -1.213  -1.728  0.00  0.00    -0.009 A 
ATOM     11  C   UNL     1       1.880  -0.946  -1.587  0.00  0.00    -0.016 A 
ATOM     12  C   UNL     1       1.000  -0.840  -2.599  0.00  0.00    +0.058 A 
ATOM     13  C   UNL     1       1.131  -0.914  -3.956  0.00  0.00    +0.200 A 
ATOM     14  O   UNL     1       0.090  -0.846  -4.596  0.00  0.00    -0.286 OA
ATOM     15  C   UNL     1       2.295  -1.057  -4.707  0.00  0.00    +0.074 A 
ATOM     16  C   UNL     1       3.547  -1.231  -4.198  0.00  0.00    +0.027 A 
ATOM     17  C   UNL     1       3.929  -1.309  -2.911  0.00  0.00    +0.011 A 
ENDROOT
BRANCH   1  21
ATOM     18  C   UNL     1      -1.269   2.043  -0.466  0.00  0.00    +0.109 C 
ATOM     19  C   UNL     1       0.040   1.303  -0.371  0.00  0.00    +0.210 C 
ATOM     20  O   UNL     1       1.086   1.917  -0.385  0.00  0.00    -0.276 OA
ATOM     21  N   UNL     1       0.049  -0.041  -0.276  0.00  0.00    -0.309 N 
ATOM     22  H   UNL     1      -0.788  -0.532  -0.265  0.00  0.00    +0.149 HD
ENDBRANCH   1  21
BRANCH  15  23
ATOM     23  N   UNL     1       2.170  -1.021  -6.086  0.00  0.00    -0.341 N 
ATOM     24  H   UNL     1       1.297  -0.899  -6.490  0.00  0.00    +0.146 HD
BRANCH  23  25
ATOM     25  C   UNL     1       3.356  -1.166  -6.933  0.00  0.00    +0.106 C 
BRANCH  25  26
ATOM     26  C   UNL     1       2.944  -1.090  -8.405  0.00  0.00    +0.049 C 
BRANCH  26  27
ATOM     27  C   UNL     1       4.164  -1.240  -9.277  0.00  0.00    -0.072 C 
ATOM     28  C   UNL     1       4.452  -2.421  -9.721  0.00  0.00    -0.028 C 
ATOM     29  C   UNL     1       5.634  -2.726 -10.593  0.00  0.00    +0.027 C 
ATOM     30  C   UNL     1       6.185  -1.437 -11.206  0.00  0.00    +0.004 C 
ATOM     31  C   UNL     1       6.359  -0.403 -10.087  0.00  0.00    +0.005 C 
ATOM     32  C   UNL     1       4.973  -0.010  -9.571  0.00  0.00    +0.030 C 
ENDBRANCH  26  27
ENDBRANCH  25  26
ENDBRANCH  23  25
ENDBRANCH  15  23
BRANCH   8  33
ATOM     33  O   UNL     1       5.687   0.126  -1.268  0.00  0.00    -0.491 OA
ATOM     34  C   UNL     1       5.360   1.511  -1.144  0.00  0.00    +0.277 C 
ENDBRANCH   8  33
BRANCH   7  35
ATOM     35  O   UNL     1       7.113  -0.195   1.068  0.00  0.00    -0.488 OA
ATOM     36  C   UNL     1       8.312  -0.844   0.641  0.00  0.00    +0.277 C 
ENDBRANCH   7  35
BRANCH   6  37
ATOM     37  O   UNL     1       6.170  -1.878   3.025  0.00  0.00    -0.491 OA
ATOM     38  C   UNL     1       5.625  -2.769   4.001  0.00  0.00    +0.277 C 
ENDBRANCH   6  37
TORSDOF 8
