REMARK  Name = ZINC14633994
REMARK  17 active torsions:
REMARK  status: ('A' for Active; 'I' for Inactive)
REMARK    1  A    between atoms: C_1  and  C_2
REMARK    2  A    between atoms: C_2  and  C_3
REMARK    3  A    between atoms: C_2  and  N_69
REMARK    4  A    between atoms: C_4  and  C_5
REMARK    5  A    between atoms: C_4  and  N_69
REMARK    6  A    between atoms: C_5  and  N_6
REMARK    7  A    between atoms: C_16  and  S_17
REMARK    8  A    between atoms: S_17  and  C_18
REMARK    9  A    between atoms: C_18  and  C_19
REMARK   10  A    between atoms: N_21  and  C_22
REMARK   11  A    between atoms: C_24  and  C_27
REMARK   12  A    between atoms: C_27  and  C_28
REMARK   13  A    between atoms: C_27  and  C_29
REMARK   14  A    between atoms: C_27  and  C_30
REMARK   15  A    between atoms: C_31  and  C_32
REMARK   16  A    between atoms: C_31  and  C_33
REMARK   17  A    between atoms: C_31  and  N_69
REMARK                            x       y       z     vdW  Elec       q    Type
REMARK                         _______ _______ _______ _____ _____    ______ ____
ROOT
ATOM      1  N   UNL     1       0.317  -3.209  -0.978  0.00  0.00    -0.289 N 
ATOM      2  C   UNL     1       1.567  -2.881  -1.380  0.00  0.00    +0.262 A 
ATOM      3  O   UNL     1       2.440  -3.724  -1.479  0.00  0.00    -0.267 OA
ATOM      4  C   UNL     1       1.831  -1.470  -1.691  0.00  0.00    +0.065 A 
ATOM      5  C   UNL     1       3.086  -1.031  -2.112  0.00  0.00    +0.015 A 
ATOM      6  C   UNL     1       3.277   0.295  -2.389  0.00  0.00    +0.001 A 
ATOM      7  C   UNL     1       2.237   1.206  -2.255  0.00  0.00    +0.002 A 
ATOM      8  C   UNL     1       0.998   0.803  -1.844  0.00  0.00    +0.028 A 
ATOM      9  C   UNL     1       0.770  -0.546  -1.554  0.00  0.00    +0.079 A 
ATOM     10  N   UNL     1      -0.436  -0.987  -1.145  0.00  0.00    -0.223 NA
ATOM     11  C   UNL     1      -0.650  -2.250  -0.873  0.00  0.00    +0.173 A 
ENDROOT
BRANCH   1  12
ATOM     12  C   UNL     1      -0.001  -4.602  -0.655  0.00  0.00    +0.109 C 
BRANCH  12  13
ATOM     13  C   UNL     1       0.268  -4.855   0.830  0.00  0.00    -0.056 C 
BRANCH  13  14
ATOM     14  N   UNL     1      -0.037  -6.269   1.136  0.00  0.00    +0.384 N 
ATOM     15  H   UNL     1       0.459  -6.869   0.467  0.00  0.00    -0.081 HD
BRANCH  14  17
ATOM     16  C   UNL     1       1.881  -7.027   2.443  0.00  0.00    -0.014 C 
ATOM     17  C   UNL     1       0.414  -6.598   2.504  0.00  0.00    -0.074 C 
ATOM     18  C   UNL     1       0.276  -5.380   3.420  0.00  0.00    -0.014 C 
ENDBRANCH  14  17
BRANCH  14  19
ATOM     19  C   UNL     1      -1.490  -6.510   1.011  0.00  0.00    -0.074 C 
ATOM     20  C   UNL     1      -1.748  -8.017   1.080  0.00  0.00    -0.014 C 
ATOM     21  C   UNL     1      -2.249  -5.811   2.142  0.00  0.00    -0.014 C 
ENDBRANCH  14  19
ENDBRANCH  13  14
ENDBRANCH  12  13
ENDBRANCH   1  12
BRANCH  11  22
ATOM     22  S   UNL     1      -2.260  -2.735  -0.345  0.00  0.00    -0.078 S 
BRANCH  22  23
ATOM     23  C   UNL     1      -3.100  -1.133  -0.384  0.00  0.00    +0.173 C 
BRANCH  23  24
ATOM     24  C   UNL     1      -4.535  -1.307   0.042  0.00  0.00    +0.230 C 
ATOM     25  O   UNL     1      -4.949  -2.406   0.343  0.00  0.00    -0.274 OA
ATOM     26  N   UNL     1      -5.358  -0.241   0.090  0.00  0.00    -0.254 N 
ATOM     27  H   UNL     1      -5.026   0.639  -0.151  0.00  0.00    +0.158 HD
BRANCH  26  28
ATOM     28  C   UNL     1      -6.678  -0.401   0.482  0.00  0.00    +0.224 A 
ATOM     29  C   UNL     1      -7.628   0.575   0.580  0.00  0.00    +0.092 A 
ATOM     30  C   UNL     1      -8.779  -0.114   1.014  0.00  0.00    +0.091 A 
ATOM     31  N   UNL     1      -8.439  -1.367   1.131  0.00  0.00    -0.081 NA
ATOM     32  O   UNL     1      -7.280  -1.548   0.836  0.00  0.00    -0.339 OA
BRANCH  30  33
ATOM     33  C   UNL     1     -10.136   0.480   1.288  0.00  0.00    +0.008 C 
ATOM     34  C   UNL     1     -10.832   0.795  -0.038  0.00  0.00    +0.017 C 
ATOM     35  C   UNL     1     -10.980  -0.519   2.082  0.00  0.00    +0.017 C 
ATOM     36  C   UNL     1      -9.974   1.769   2.098  0.00  0.00    +0.017 C 
ENDBRANCH  30  33
ENDBRANCH  26  28
ENDBRANCH  23  24
ENDBRANCH  22  23
ENDBRANCH  11  22
TORSDOF 10
