REMARK  Name = ZINC15782399
REMARK  6 active torsions:
REMARK  status: ('A' for Active; 'I' for Inactive)
REMARK    1  A    between atoms: C_1  and  C_2
REMARK    2  A    between atoms: C_3  and  C_9
REMARK    3  A    between atoms: C_4  and  C_8
REMARK    4  A    between atoms: N_5  and  C_7
REMARK    5  A    between atoms: C_9  and  N_10
REMARK    6  A    between atoms: N_13  and  C_14
REMARK                            x       y       z     vdW  Elec       q    Type
REMARK                         _______ _______ _______ _____ _____    ______ ____
ROOT
ATOM      1  N   UNL     1       1.935  -2.277  -1.410  0.00  0.00    -0.295 N 
ATOM      2  C   UNL     1       2.366  -3.528  -1.667  0.00  0.00    +0.300 C 
ATOM      3  O   UNL     1       2.632  -4.280  -0.749  0.00  0.00    -0.253 OA
ATOM      4  N   UNL     1       2.500  -3.946  -2.941  0.00  0.00    -0.294 N 
ATOM      5  H   UNL     1       1.722  -1.678  -2.142  0.00  0.00    +0.151 HD
ATOM      6  H   UNL     1       2.287  -3.346  -3.673  0.00  0.00    +0.151 HD
ENDROOT
BRANCH   4   7
ATOM      7  C   UNL     1       2.968  -5.306  -3.221  0.00  0.00    +0.037 C 
ATOM      8  C   UNL     1       4.362  -5.499  -2.619  0.00  0.00    +0.029 C 
ATOM      9  C   UNL     1       4.850  -6.920  -2.911  0.00  0.00    -0.008 C 
ATOM     10  C   UNL     1       4.914  -7.136  -4.424  0.00  0.00    +0.007 C 
ATOM     11  C   UNL     1       3.520  -6.943  -5.026  0.00  0.00    -0.008 C 
ATOM     12  C   UNL     1       3.031  -5.522  -4.734  0.00  0.00    +0.029 C 
ATOM     13  C   UNL     1       2.553  -7.953  -4.406  0.00  0.00    +0.007 C 
ATOM     14  C   UNL     1       2.489  -7.736  -2.893  0.00  0.00    -0.008 C 
ATOM     15  C   UNL     1       3.883  -7.929  -2.291  0.00  0.00    +0.007 C 
ATOM     16  C   UNL     1       2.000  -6.316  -2.601  0.00  0.00    +0.029 C 
ENDBRANCH   4   7
BRANCH   1  17
ATOM     17  C   UNL     1       1.789  -1.823  -0.025  0.00  0.00    +0.144 C 
BRANCH  17  20
ATOM     18  C   UNL     1       3.603   0.775  -0.028  0.00  0.00    +0.068 C 
ATOM     19  C   UNL     1       2.096   0.748  -0.014  0.00  0.00    +0.065 A 
ATOM     20  C   UNL     1       1.296  -0.399  -0.013  0.00  0.00    +0.013 A 
ATOM     21  C   UNL     1       0.002  -0.004   0.002  0.00  0.00    +0.041 A 
ATOM     22  N   UNL     1      -0.016   1.345   0.009  0.00  0.00    -0.271 N 
ATOM     23  N   UNL     1       1.311   1.794  -0.001  0.00  0.00    -0.176 NA
ATOM     24  C   UNL     1      -1.212   2.191   0.020  0.00  0.00    +0.172 C 
ATOM     25  C   UNL     1      -1.203  -0.909   0.009  0.00  0.00    +0.065 C 
ENDBRANCH  17  20
ENDBRANCH   1  17
TORSDOF 3
