REMARK  Name = ZINC08764300
REMARK  8 active torsions:
REMARK  status: ('A' for Active; 'I' for Inactive)
REMARK    1  A    between atoms: C_1  and  C_2
REMARK    2  A    between atoms: C_8  and  N_10
REMARK    3  A    between atoms: C_11  and  C_13
REMARK    4  A    between atoms: C_13  and  C_14
REMARK    5  A    between atoms: C_14  and  C_15
REMARK    6  A    between atoms: N_19  and  C_23
REMARK    7  A    between atoms: C_23  and  C_24
REMARK    8  A    between atoms: C_24  and  C_25
REMARK                            x       y       z     vdW  Elec       q    Type
REMARK                         _______ _______ _______ _____ _____    ______ ____
ROOT
ATOM      1  C   UNL     1       4.946   1.183  -0.039  0.00  0.00    +0.161 C 
ATOM      2  C   UNL     1       6.103   2.160  -0.116  0.00  0.00    +0.243 C 
ATOM      3  O   UNL     1       6.335   2.951  -1.004  0.00  0.00    -0.273 OA
ATOM      4  N   UNL     1       6.820   1.965   1.009  0.00  0.00    -0.224 N 
ATOM      5  C   UNL     1       6.282   1.011   1.778  0.00  0.00    +0.309 C 
ATOM      6  O   UNL     1       6.750   0.658   2.842  0.00  0.00    -0.252 OA
ATOM      7  N   UNL     1       5.165   0.483   1.239  0.00  0.00    -0.288 N 
ATOM      8  H   UNL     1       4.612  -0.219   1.617  0.00  0.00    +0.151 HD
ENDROOT
BRANCH   1   9
ATOM      9  C   UNL     1       3.611   1.930  -0.022  0.00  0.00    +0.041 C 
BRANCH   9  10
ATOM     10  C   UNL     1       2.462   0.920  -0.017  0.00  0.00    +0.098 C 
BRANCH  10  12
ATOM     11  N   UNL     1      -0.011   0.966   0.007  0.00  0.00    -0.312 N 
ATOM     12  C   UNL     1       1.147   1.655   0.000  0.00  0.00    +0.213 C 
ATOM     13  O   UNL     1       1.130   2.868   0.007  0.00  0.00    -0.276 OA
ATOM     14  H   UNL     1       0.002  -0.004   0.002  0.00  0.00    +0.149 HD
BRANCH  11  21
ATOM     15  C   UNL     1      -1.980   0.419   2.060  0.00  0.00    +0.009 C 
ATOM     16  C   UNL     1      -2.370   0.786   0.627  0.00  0.00    +0.006 C 
ATOM     17  C   UNL     1      -2.506  -0.490  -0.206  0.00  0.00    +0.005 C 
ATOM     18  C   UNL     1      -2.896  -0.123  -1.640  0.00  0.00    +0.000 C 
ATOM     19  C   UNL     1      -1.816   0.772  -2.250  0.00  0.00    +0.002 C 
ATOM     20  C   UNL     1      -1.680   2.047  -1.416  0.00  0.00    +0.022 C 
ATOM     21  C   UNL     1      -1.290   1.681   0.017  0.00  0.00    +0.076 C 
ENDBRANCH  11  21
ENDBRANCH  10  12
ENDBRANCH   9  10
ENDBRANCH   1   9
BRANCH   4  22
ATOM     22  C   UNL     1       8.037   2.707   1.348  0.00  0.00    +0.123 C 
BRANCH  22  23
ATOM     23  C   UNL     1       7.665   3.959   2.145  0.00  0.00    +0.057 C 
BRANCH  23  24
ATOM     24  C   UNL     1       8.916   4.722   2.494  0.00  0.00    -0.021 A 
ATOM     25  C   UNL     1       9.613   4.634   3.638  0.00  0.00    +0.087 A 
ATOM     26  N   UNL     1      10.690   5.476   3.595  0.00  0.00    -0.360 N 
ATOM     27  H   UNL     1      11.341   5.586   4.306  0.00  0.00    +0.165 HD
ATOM     28  C   UNL     1      10.714   6.144   2.391  0.00  0.00    +0.047 A 
ATOM     29  C   UNL     1       9.607   5.697   1.647  0.00  0.00    +0.003 A 
ATOM     30  C   UNL     1       9.372   6.214   0.371  0.00  0.00    +0.010 A 
ATOM     31  C   UNL     1      10.225   7.144  -0.152  0.00  0.00    +0.001 A 
ATOM     32  C   UNL     1      11.322   7.584   0.576  0.00  0.00    +0.002 A 
ATOM     33  C   UNL     1      11.570   7.091   1.839  0.00  0.00    +0.026 A 
ENDBRANCH  23  24
ENDBRANCH  22  23
ENDBRANCH   4  22
TORSDOF 7
