REMARK  Name = ZINC60490744
REMARK  4 active torsions:
REMARK  status: ('A' for Active; 'I' for Inactive)
REMARK    1  A    between atoms: C_1  and  C_2
REMARK    2  A    between atoms: C_2  and  C_3
REMARK    3  A    between atoms: C_2  and  N_13
REMARK    4  A    between atoms: C_14  and  C_16
REMARK                            x       y       z     vdW  Elec       q    Type
REMARK                         _______ _______ _______ _____ _____    ______ ____
ROOT
ATOM      1  N   UNL     1       1.063  -0.769  -1.165  0.00  0.00    -0.312 N 
ATOM      2  C   UNL     1       0.306  -0.804  -2.279  0.00  0.00    +0.216 C 
ATOM      3  O   UNL     1      -0.859  -0.472  -2.232  0.00  0.00    -0.276 OA
ATOM      4  H   UNL     1       1.995  -1.034  -1.203  0.00  0.00    +0.149 HD
ENDROOT
BRANCH   2   5
ATOM      5  C   UNL     1       0.909  -1.254  -3.585  0.00  0.00    +0.078 C 
ATOM      6  C   UNL     1       2.072  -0.331  -3.955  0.00  0.00    +0.032 C 
ATOM      7  C   UNL     1       2.704  -0.812  -5.265  0.00  0.00    +0.110 C 
ATOM      8  N   UNL     1       1.656  -0.902  -6.291  0.00  0.00    -0.285 N 
ATOM      9  C   UNL     1       0.451  -1.691  -6.002  0.00  0.00    +0.110 C 
ATOM     10  C   UNL     1      -0.156  -1.200  -4.684  0.00  0.00    +0.032 C 
ATOM     11  C   UNL     1       1.797  -0.272  -7.474  0.00  0.00    +0.305 C 
ATOM     12  O   UNL     1       2.689   0.539  -7.628  0.00  0.00    -0.252 OA
ATOM     13  N   UNL     1       0.949  -0.542  -8.486  0.00  0.00    -0.285 N 
ATOM     14  C   UNL     1      -0.274  -1.350  -8.387  0.00  0.00    +0.109 C 
ATOM     15  C   UNL     1      -0.903  -1.405  -9.795  0.00  0.00    +0.020 C 
ATOM     16  C   UNL     1       0.300  -1.098 -10.725  0.00  0.00    +0.020 C 
ATOM     17  C   UNL     1       1.092  -0.069  -9.875  0.00  0.00    +0.109 C 
ENDBRANCH   2   5
BRANCH   1  19
ATOM     18  C   UNL     1       0.536   1.194   0.195  0.00  0.00    +0.028 C 
ATOM     19  C   UNL     1       0.477  -0.332   0.105  0.00  0.00    +0.076 C 
BRANCH  19  20
ATOM     20  C   UNL     1       1.264  -0.942   1.267  0.00  0.00    -0.010 C 
ATOM     21  C   UNL     1       2.722  -0.482   1.192  0.00  0.00    +0.012 C 
ATOM     22  C   UNL     1       3.509  -1.092   2.354  0.00  0.00    -0.010 C 
ATOM     23  C   UNL     1       2.897  -0.635   3.680  0.00  0.00    +0.007 C 
ATOM     24  C   UNL     1       1.440  -1.095   3.754  0.00  0.00    -0.010 C 
ATOM     25  C   UNL     1       0.653  -0.485   2.592  0.00  0.00    +0.012 C 
ATOM     26  C   UNL     1       1.381  -2.621   3.665  0.00  0.00    +0.007 C 
ATOM     27  C   UNL     1       1.992  -3.078   2.339  0.00  0.00    -0.010 C 
ATOM     28  C   UNL     1       3.450  -2.618   2.264  0.00  0.00    +0.007 C 
ATOM     29  C   UNL     1       1.206  -2.468   1.177  0.00  0.00    +0.012 C 
ENDBRANCH  19  20
ENDBRANCH   1  19
TORSDOF 3
