REMARK  Name = ZINC35960802
REMARK  13 active torsions:
REMARK  status: ('A' for Active; 'I' for Inactive)
REMARK    1  A    between atoms: C_1  and  C_2
REMARK    2  A    between atoms: C_2  and  N_3
REMARK    3  A    between atoms: N_3  and  C_4
REMARK    4  A    between atoms: N_3  and  C_6
REMARK    5  A    between atoms: C_4  and  C_5
REMARK    6  A    between atoms: C_7  and  C_23
REMARK    7  A    between atoms: N_10  and  C_13
REMARK    8  A    between atoms: C_16  and  O_21
REMARK    9  A    between atoms: C_17  and  O_19
REMARK   10  A    between atoms: O_19  and  C_20
REMARK   11  A    between atoms: O_21  and  C_22
REMARK   12  A    between atoms: C_24  and  C_36
REMARK   13  A    between atoms: N_26  and  C_29
REMARK                            x       y       z     vdW  Elec       q    Type
REMARK                         _______ _______ _______ _____ _____    ______ ____
ROOT
ATOM      1  C   UNL     1      -2.012  -0.758   1.220  0.00  0.00    +0.106 C 
ATOM      2  C   UNL     1      -3.284  -1.235   1.391  0.00  0.00    +0.078 C 
ATOM      3  C   UNL     1      -3.502  -1.326   2.851  0.00  0.00    +0.260 C 
ATOM      4  O   UNL     1      -4.519  -1.710   3.394  0.00  0.00    -0.269 OA
ATOM      5  N   UNL     1      -2.386  -0.913   3.475  0.00  0.00    -0.201 N 
ATOM      6  C   UNL     1      -1.453  -0.564   2.572  0.00  0.00    +0.272 C 
ATOM      7  O   UNL     1      -0.338  -0.155   2.826  0.00  0.00    -0.268 OA
ENDROOT
BRANCH   2   8
ATOM      8  C   UNL     1      -4.248  -1.587   0.329  0.00  0.00    +0.078 A 
ATOM      9  C   UNL     1      -5.189  -0.722  -0.271  0.00  0.00    +0.072 A 
ATOM     10  N   UNL     1      -5.857  -1.399  -1.164  0.00  0.00    -0.168 NA
ATOM     11  N   UNL     1      -5.386  -2.717  -1.185  0.00  0.00    -0.196 N 
ATOM     12  C   UNL     1      -4.394  -2.829  -0.272  0.00  0.00    +0.282 A 
ATOM     13  O   UNL     1      -3.680  -3.947   0.006  0.00  0.00    -0.265 OA
ATOM     14  C   UNL     1      -5.388   0.734   0.064  0.00  0.00    +0.068 C 
BRANCH  11  15
ATOM     15  C   UNL     1      -5.858  -3.744  -2.014  0.00  0.00    +0.069 A 
ATOM     16  C   UNL     1      -4.982  -4.706  -2.497  0.00  0.00    +0.031 A 
ATOM     17  C   UNL     1      -5.449  -5.717  -3.314  0.00  0.00    +0.040 A 
ATOM     18  C   UNL     1      -6.791  -5.772  -3.651  0.00  0.00    +0.124 A 
ATOM     19  C   UNL     1      -7.667  -4.813  -3.171  0.00  0.00    +0.040 A 
ATOM     20  C   UNL     1      -7.205  -3.804  -2.349  0.00  0.00    +0.031 A 
ATOM     21  F   UNL     1      -7.246  -6.761  -4.450  0.00  0.00    -0.205 F 
ENDBRANCH  11  15
ENDBRANCH   2   8
BRANCH   5  22
ATOM     22  C   UNL     1      -2.216  -0.859   4.867  0.00  0.00    +0.048 A 
ATOM     23  C   UNL     1      -1.018  -0.408   5.403  0.00  0.00    +0.028 A 
ATOM     24  C   UNL     1      -0.849  -0.354   6.773  0.00  0.00    +0.051 A 
ATOM     25  C   UNL     1      -1.876  -0.750   7.615  0.00  0.00    +0.162 A 
ATOM     26  C   UNL     1      -3.079  -1.202   7.081  0.00  0.00    +0.163 A 
ATOM     27  C   UNL     1      -3.249  -1.251   5.707  0.00  0.00    +0.073 A 
BRANCH  26  28
ATOM     28  O   UNL     1      -4.087  -1.591   7.906  0.00  0.00    -0.491 OA
ATOM     29  C   UNL     1      -5.293  -2.044   7.288  0.00  0.00    +0.277 C 
ENDBRANCH  26  28
BRANCH  25  30
ATOM     30  O   UNL     1      -1.708  -0.697   8.964  0.00  0.00    -0.491 OA
ATOM     31  C   UNL     1      -0.448  -0.223   9.444  0.00  0.00    +0.277 C 
ENDBRANCH  25  30
ENDBRANCH   5  22
BRANCH   1  32
ATOM     32  N   UNL     1      -1.372  -0.511   0.012  0.00  0.00    -0.326 N 
BRANCH  32  34
ATOM     33  C   UNL     1      -0.019   1.526   0.010  0.00  0.00    +0.024 C 
ATOM     34  C   UNL     1       0.002  -0.004   0.002  0.00  0.00    +0.102 C 
ENDBRANCH  32  34
BRANCH  32  35
ATOM     35  C   UNL     1      -2.072  -0.758  -1.251  0.00  0.00    +0.102 C 
ATOM     36  C   UNL     1      -1.816  -2.197  -1.703  0.00  0.00    +0.024 C 
ENDBRANCH  32  35
ENDBRANCH   1  32
TORSDOF 8
