REMARK  Name = ZINC38194301
REMARK  21 active torsions:
REMARK  status: ('A' for Active; 'I' for Inactive)
REMARK    1  A    between atoms: C_1  and  C_2
REMARK    2  A    between atoms: C_2  and  O_39
REMARK    3  A    between atoms: C_5  and  C_11
REMARK    4  A    between atoms: C_5  and  C_12
REMARK    5  A    between atoms: C_7  and  C_9
REMARK    6  A    between atoms: C_7  and  C_10
REMARK    7  A    between atoms: N_16  and  C_17
REMARK    8  A    between atoms: C_17  and  C_18
REMARK    9  A    between atoms: C_18  and  N_19
REMARK   10  A    between atoms: C_20  and  C_22
REMARK   11  A    between atoms: C_22  and  C_23
REMARK   12  A    between atoms: C_23  and  C_24
REMARK   13  A    between atoms: C_26  and  C_35
REMARK   14  A    between atoms: C_27  and  O_34
REMARK   15  A    between atoms: C_28  and  C_30
REMARK   16  A    between atoms: C_30  and  C_31
REMARK   17  A    between atoms: C_30  and  C_32
REMARK   18  A    between atoms: C_30  and  C_33
REMARK   19  A    between atoms: C_35  and  C_36
REMARK   20  A    between atoms: C_35  and  C_37
REMARK   21  A    between atoms: C_35  and  C_38
REMARK                            x       y       z     vdW  Elec       q    Type
REMARK                         _______ _______ _______ _____ _____    ______ ____
ROOT
ATOM      1  C   UNL     1       2.756   0.384   2.007  0.00  0.00    +0.123 C 
ENDROOT
BRANCH   1   2
ATOM      2  N   UNL     1       4.204   0.241   2.175  0.00  0.00    -0.314 N 
ATOM      3  C   UNL     1       4.921   1.243   2.723  0.00  0.00    +0.213 C 
ATOM      4  O   UNL     1       4.367   2.262   3.076  0.00  0.00    -0.276 OA
ATOM      5  H   UNL     1       4.647  -0.574   1.893  0.00  0.00    +0.149 HD
BRANCH   3   6
ATOM      6  C   UNL     1       6.411   1.096   2.896  0.00  0.00    +0.100 C 
BRANCH   6   7
ATOM      7  C   UNL     1       6.977   2.365   3.536  0.00  0.00    +0.044 C 
BRANCH   7   8
ATOM      8  C   UNL     1       8.467   2.218   3.709  0.00  0.00    -0.046 A 
ATOM      9  C   UNL     1       8.976   1.675   4.874  0.00  0.00    +0.011 A 
ATOM     10  C   UNL     1      10.341   1.540   5.035  0.00  0.00    -0.000 A 
ATOM     11  C   UNL     1      11.202   1.949   4.027  0.00  0.00    +0.124 A 
ATOM     12  C   UNL     1      10.688   2.494   2.859  0.00  0.00    -0.000 A 
ATOM     13  C   UNL     1       9.322   2.622   2.700  0.00  0.00    +0.011 A 
BRANCH  12  14
ATOM     14  C   UNL     1      11.620   2.940   1.762  0.00  0.00    -0.009 C 
ATOM     15  C   UNL     1      10.804   3.498   0.595  0.00  0.00    +0.015 C 
ATOM     16  C   UNL     1      12.555   4.027   2.297  0.00  0.00    +0.015 C 
ATOM     17  C   UNL     1      12.449   1.747   1.280  0.00  0.00    +0.015 C 
ENDBRANCH  12  14
BRANCH  10  18
ATOM     18  C   UNL     1      10.896   0.948   6.306  0.00  0.00    -0.009 C 
ATOM     19  C   UNL     1       9.743   0.584   7.244  0.00  0.00    +0.015 C 
ATOM     20  C   UNL     1      11.700  -0.310   5.974  0.00  0.00    +0.015 C 
ATOM     21  C   UNL     1      11.806   1.970   6.990  0.00  0.00    +0.015 C 
ENDBRANCH  10  18
BRANCH  11  22
ATOM     22  O   UNL     1      12.545   1.818   4.184  0.00  0.00    -0.506 OA
ATOM     23  H   UNL     1      12.897   0.973   3.870  0.00  0.00    +0.292 HD
ENDBRANCH  11  22
ENDBRANCH   7   8
ENDBRANCH   6   7
ENDBRANCH   3   6
ENDBRANCH   1   2
BRANCH   1  24
ATOM     24  C   UNL     1       2.189  -0.885   1.367  0.00  0.00    +0.132 C 
BRANCH  24  40
ATOM     25  C   UNL     1       0.031   1.338   0.073  0.00  0.00    +0.068 C 
ATOM     26  C   UNL     1       0.048  -0.188   0.014  0.00  0.00    +0.175 C 
ATOM     27  C   UNL     1      -1.361  -0.797   0.192  0.00  0.00    +0.158 C 
ATOM     28  C   UNL     1      -1.384  -2.188  -0.426  0.00  0.00    +0.040 C 
ATOM     29  C   UNL     1      -2.766  -2.825  -0.300  0.00  0.00    -0.070 C 
ATOM     30  N   UNL     1      -3.812  -1.955  -0.818  0.00  0.00    +0.386 N 
ATOM     31  C   UNL     1      -3.811  -0.569  -0.387  0.00  0.00    -0.070 C 
ATOM     32  C   UNL     1      -2.431   0.086  -0.410  0.00  0.00    +0.040 C 
ATOM     33  C   UNL     1      -4.443  -0.406   0.999  0.00  0.00    -0.010 C 
ATOM     34  C   UNL     1      -4.702   0.222  -1.377  0.00  0.00    -0.010 C 
ATOM     35  C   UNL     1      -3.037  -3.267   1.136  0.00  0.00    -0.010 C 
ATOM     36  C   UNL     1      -2.759  -4.104  -1.174  0.00  0.00    -0.010 C 
ATOM     37  O   UNL     1      -1.452  -0.857   1.624  0.00  0.00    -0.439 OA
ATOM     38  C   UNL     1      -0.208  -1.089   2.089  0.00  0.00    +0.406 C 
ATOM     39  O   UNL     1       0.027  -1.558   3.183  0.00  0.00    -0.226 OA
ATOM     40  N   UNL     1       0.743  -0.743   1.199  0.00  0.00    -0.234 N 
ATOM     41  H   UNL     1      -3.767  -1.976  -1.841  0.00  0.00    -0.084 HD
ATOM     42  H   UNL     1      -4.718  -2.367  -0.583  0.00  0.00    -0.084 HD
BRANCH  26  43
ATOM     43  O   UNL     1       0.658  -0.647  -1.193  0.00  0.00    -0.368 OA
ATOM     44  H   UNL     1       1.571  -0.352  -1.309  0.00  0.00    +0.212 HD
ENDBRANCH  26  43
ENDBRANCH  24  40
ENDBRANCH   1  24
TORSDOF 10
