REMARK  Name = ZINC51152649
REMARK  6 active torsions:
REMARK  status: ('A' for Active; 'I' for Inactive)
REMARK    1  A    between atoms: C_1  and  C_2
REMARK    2  A    between atoms: C_2  and  C_3
REMARK    3  A    between atoms: C_3  and  C_4
REMARK    4  A    between atoms: C_6  and  N_16
REMARK    5  A    between atoms: C_8  and  C_10
REMARK    6  A    between atoms: N_16  and  N_17
REMARK                            x       y       z     vdW  Elec       q    Type
REMARK                         _______ _______ _______ _____ _____    ______ ____
ROOT
ATOM      1  C   UNL     1      -1.413  -2.041   0.005  0.00  0.00    +0.047 A 
ATOM      2  C   UNL     1      -2.083  -2.754   0.981  0.00  0.00    +0.068 A 
ATOM      3  C   UNL     1      -2.038  -4.149   0.936  0.00  0.00    +0.136 A 
ATOM      4  N   UNL     1      -1.356  -4.741  -0.039  0.00  0.00    -0.212 NA
ATOM      5  C   UNL     1      -0.727  -4.021  -0.956  0.00  0.00    +0.162 A 
ATOM      6  N   UNL     1      -0.758  -2.696  -0.941  0.00  0.00    -0.232 NA
ENDROOT
BRANCH   5   7
ATOM      7  C   UNL     1       0.025  -4.715  -2.031  0.00  0.00    +0.022 A 
ATOM      8  C   UNL     1       0.706  -3.991  -3.013  0.00  0.00    +0.031 A 
ATOM      9  C   UNL     1       1.393  -4.676  -3.994  0.00  0.00    +0.111 A 
ATOM     10  N   UNL     1       1.412  -5.995  -4.012  0.00  0.00    -0.263 NA
ATOM     11  C   UNL     1       0.783  -6.715  -3.104  0.00  0.00    +0.111 A 
ATOM     12  C   UNL     1       0.076  -6.110  -2.084  0.00  0.00    +0.031 A 
ENDBRANCH   5   7
BRANCH   3  13
ATOM     13  N   UNL     1      -2.694  -4.905   1.894  0.00  0.00    -0.267 N 
ATOM     14  H   UNL     1      -3.189  -4.466   2.603  0.00  0.00    +0.167 HD
BRANCH  13  15
ATOM     15  N   UNL     1      -2.644  -6.269   1.840  0.00  0.00    -0.255 NA
ATOM     16  H   UNL     1      -3.166  -6.681   2.599  0.00  0.00    +0.140 HD
ATOM     17  H   UNL     1      -2.974  -6.608   0.949  0.00  0.00    +0.140 HD
ENDBRANCH  13  15
ENDBRANCH   3  13
BRANCH   1  18
ATOM     18  C   UNL     1      -1.433  -0.534   0.013  0.00  0.00    +0.055 C 
BRANCH  18  20
ATOM     19  C   UNL     1      -0.019   1.526   0.010  0.00  0.00    +0.004 C 
ATOM     20  C   UNL     1       0.002  -0.004   0.002  0.00  0.00    +0.003 C 
ENDBRANCH  18  20
ENDBRANCH   1  18
TORSDOF 5
