REMARK  Name = ZINC67470867
REMARK  6 active torsions:
REMARK  status: ('A' for Active; 'I' for Inactive)
REMARK    1  A    between atoms: C_1  and  C_2
REMARK    2  A    between atoms: C_2  and  C_3
REMARK    3  A    between atoms: C_2  and  C_4
REMARK    4  A    between atoms: C_2  and  N_11
REMARK    5  A    between atoms: N_14  and  N_15
REMARK    6  A    between atoms: C_16  and  C_18
REMARK                            x       y       z     vdW  Elec       q    Type
REMARK                         _______ _______ _______ _____ _____    ______ ____
ROOT
ATOM      1  N   UNL     1       0.556  -0.272  -1.327  0.00  0.00    -0.289 N 
ATOM      2  C   UNL     1       1.849   0.005  -1.587  0.00  0.00    +0.317 C 
ATOM      3  O   UNL     1       2.556   0.479  -0.718  0.00  0.00    -0.251 OA
ATOM      4  N   UNL     1       2.359  -0.241  -2.810  0.00  0.00    -0.218 N 
ATOM      5  H   UNL     1      -0.008  -0.650  -2.021  0.00  0.00    +0.151 HD
ATOM      6  H   UNL     1       3.289  -0.041  -2.997  0.00  0.00    +0.174 HD
ENDROOT
BRANCH   4   7
ATOM      7  N   UNL     1       1.544  -0.787  -3.812  0.00  0.00    -0.229 N 
ATOM      8  C   UNL     1       2.054  -1.034  -5.035  0.00  0.00    +0.262 C 
ATOM      9  O   UNL     1       3.221  -0.783  -5.269  0.00  0.00    -0.269 OA
ATOM     10  H   UNL     1       0.614  -0.987  -3.624  0.00  0.00    +0.173 HD
BRANCH   8  11
ATOM     11  C   UNL     1       1.200  -1.605  -6.084  0.00  0.00    +0.063 A 
ATOM     12  C   UNL     1      -0.119  -1.932  -5.976  0.00  0.00    +0.096 A 
ATOM     13  N   UNL     1      -0.566  -2.433  -7.152  0.00  0.00    -0.360 N 
ATOM     14  H   UNL     1      -1.473  -2.735  -7.317  0.00  0.00    +0.165 HD
ATOM     15  C   UNL     1       0.451  -2.454  -8.084  0.00  0.00    +0.047 A 
ATOM     16  C   UNL     1       1.599  -1.933  -7.465  0.00  0.00    +0.012 A 
ATOM     17  C   UNL     1       2.791  -1.829  -8.179  0.00  0.00    +0.011 A 
ATOM     18  C   UNL     1       2.836  -2.235  -9.495  0.00  0.00    +0.001 A 
ATOM     19  C   UNL     1       1.702  -2.747 -10.108  0.00  0.00    +0.002 A 
ATOM     20  C   UNL     1       0.518  -2.864  -9.411  0.00  0.00    +0.026 A 
ENDBRANCH   8  11
ENDBRANCH   4   7
BRANCH   1  22
ATOM     21  C   UNL     1       0.155   1.483   0.328  0.00  0.00    +0.036 C 
ATOM     22  C   UNL     1       0.002  -0.004   0.002  0.00  0.00    +0.056 C 
ATOM     23  C   UNL     1       0.753  -0.835   1.045  0.00  0.00    +0.036 C 
BRANCH  22  24
ATOM     24  C   UNL     1      -1.458  -0.375   0.022  0.00  0.00    -0.025 A 
ATOM     25  C   UNL     1      -2.073  -0.700   1.217  0.00  0.00    +0.007 A 
ATOM     26  C   UNL     1      -3.412  -1.040   1.235  0.00  0.00    +0.020 A 
ATOM     27  C   UNL     1      -4.138  -1.055   0.058  0.00  0.00    +0.041 A 
ATOM     28  C   UNL     1      -3.523  -0.729  -1.138  0.00  0.00    +0.020 A 
ATOM     29  C   UNL     1      -2.185  -0.384  -1.155  0.00  0.00    +0.007 A 
ATOM     30 CL   UNL     1      -5.821  -1.482   0.080  0.00  0.00    -0.084 Cl
ENDBRANCH  22  24
ENDBRANCH   1  22
TORSDOF 4
