REMARK  Name = ZINC37352204
REMARK  5 active torsions:
REMARK  status: ('A' for Active; 'I' for Inactive)
REMARK    1  A    between atoms: C_4  and  S_10
REMARK    2  A    between atoms: C_5  and  N_7
REMARK    3  A    between atoms: S_10  and  C_11
REMARK    4  A    between atoms: C_11  and  C_12
REMARK    5  A    between atoms: C_12  and  C_14
REMARK                            x       y       z     vdW  Elec       q    Type
REMARK                         _______ _______ _______ _____ _____    ______ ____
ROOT
ATOM      1  S   UNL     1       3.939  -0.827  -0.042  0.00  0.00    -0.115 S 
ENDROOT
BRANCH   1   5
ATOM      2  C   UNL     1      -0.017   1.379   0.010  0.00  0.00    +0.002 A 
ATOM      3  C   UNL     1       1.170   2.090   0.002  0.00  0.00    +0.001 A 
ATOM      4  C   UNL     1       2.377   1.421  -0.013  0.00  0.00    +0.017 A 
ATOM      5  C   UNL     1       2.400   0.031  -0.021  0.00  0.00    +0.038 A 
ATOM      6  C   UNL     1       1.206  -0.680  -0.013  0.00  0.00    +0.140 A 
ATOM      7  C   UNL     1       0.002  -0.004   0.002  0.00  0.00    +0.034 A 
BRANCH   6   8
ATOM      8  N   UNL     1       1.225  -2.160  -0.022  0.00  0.00    +0.058 N 
ATOM      9  O   UNL     1       0.186  -2.778  -0.015  0.00  0.00    -0.126 OA
ATOM     10  O   UNL     1       2.280  -2.751  -0.036  0.00  0.00    -0.126 OA
ENDBRANCH   6   8
ENDBRANCH   1   5
BRANCH   1  11
ATOM     11  C   UNL     1       5.179   0.497  -0.047  0.00  0.00    +0.154 C 
BRANCH  11  12
ATOM     12  C   UNL     1       6.559  -0.108  -0.065  0.00  0.00    +0.180 C 
ATOM     13  O   UNL     1       6.693  -1.315  -0.072  0.00  0.00    -0.291 OA
BRANCH  12  14
ATOM     14  C   UNL     1       7.696   0.728  -0.072  0.00  0.00    +0.057 A 
ATOM     15  C   UNL     1       9.043   0.377  -0.093  0.00  0.00    +0.020 A 
ATOM     16  C   UNL     1       9.930   1.423  -0.095  0.00  0.00    +0.028 A 
ATOM     17  C   UNL     1       9.451   2.695  -0.077  0.00  0.00    +0.079 A 
ATOM     18  S   UNL     1       7.781   2.508  -0.064  0.00  0.00    -0.074 S 
ATOM     19 CL   UNL     1      10.358   4.176  -0.074  0.00  0.00    -0.076 Cl
ENDBRANCH  12  14
ENDBRANCH  11  12
ENDBRANCH   1  11
TORSDOF 5
