REMARK  Name = ZINC63428904
REMARK  11 active torsions:
REMARK  status: ('A' for Active; 'I' for Inactive)
REMARK    1  A    between atoms: C_1  and  C_2
REMARK    2  A    between atoms: C_2  and  N_3
REMARK    3  A    between atoms: C_4  and  C_20
REMARK    4  A    between atoms: C_7  and  S_8
REMARK    5  A    between atoms: S_8  and  C_9
REMARK    6  A    between atoms: C_9  and  C_10
REMARK    7  A    between atoms: C_12  and  C_15
REMARK    8  A    between atoms: C_15  and  C_16
REMARK    9  A    between atoms: C_16  and  C_17
REMARK   10  A    between atoms: C_17  and  C_18
REMARK   11  A    between atoms: C_17  and  C_19
REMARK                            x       y       z     vdW  Elec       q    Type
REMARK                         _______ _______ _______ _____ _____    ______ ____
ROOT
ATOM      1  N   UNL     1      -1.372  -0.511   0.012  0.00  0.00    -0.302 N 
ATOM      2  C   UNL     1      -2.145  -0.800   1.115  0.00  0.00    +0.171 A 
ATOM      3  N   UNL     1      -3.306  -1.227   0.670  0.00  0.00    -0.128 NA
ATOM      4  N   UNL     1      -3.311  -1.224  -0.615  0.00  0.00    -0.122 NA
ATOM      5  C   UNL     1      -2.158  -0.791  -1.071  0.00  0.00    +0.192 A 
ENDROOT
BRANCH   2   6
ATOM      6  C   UNL     1      -1.746  -0.658   2.525  0.00  0.00    +0.056 A 
ATOM      7  C   UNL     1      -2.531  -0.664   3.651  0.00  0.00    +0.019 A 
ATOM      8  C   UNL     1      -1.926  -0.512   4.878  0.00  0.00    +0.008 A 
ATOM      9  C   UNL     1      -0.578  -0.363   4.938  0.00  0.00    +0.046 A 
ATOM     10  S   UNL     1      -0.114  -0.442   3.216  0.00  0.00    -0.094 S 
ENDBRANCH   2   6
BRANCH   1  12
ATOM     11  C   UNL     1      -0.019   1.526   0.010  0.00  0.00    +0.027 C 
ATOM     12  C   UNL     1       0.002  -0.004   0.002  0.00  0.00    +0.122 C 
ENDBRANCH   1  12
BRANCH   5  13
ATOM     13  S   UNL     1      -1.707  -0.609  -2.764  0.00  0.00    -0.076 S 
BRANCH  13  14
ATOM     14  C   UNL     1      -3.183  -1.145  -3.672  0.00  0.00    +0.176 C 
BRANCH  14  15
ATOM     15  C   UNL     1      -2.928  -1.037  -5.154  0.00  0.00    +0.238 A 
ATOM     16  N   UNL     1      -2.438  -1.975  -5.915  0.00  0.00    -0.195 NA
ATOM     17  C   UNL     1      -2.345  -1.541  -7.177  0.00  0.00    +0.172 A 
ATOM     18  N   UNL     1      -2.777  -0.314  -7.234  0.00  0.00    -0.061 NA
ATOM     19  O   UNL     1      -3.171   0.037  -5.915  0.00  0.00    -0.337 OA
BRANCH  17  20
ATOM     20  C   UNL     1      -1.824  -2.341  -8.343  0.00  0.00    +0.080 C 
BRANCH  20  21
ATOM     21  C   UNL     1      -2.981  -3.094  -9.002  0.00  0.00    +0.011 C 
BRANCH  21  22
ATOM     22  C   UNL     1      -2.453  -3.907 -10.186  0.00  0.00    -0.017 C 
ATOM     23  C   UNL     1      -3.584  -4.756 -10.768  0.00  0.00    +0.007 C 
ATOM     24  C   UNL     1      -1.924  -2.956 -11.261  0.00  0.00    +0.007 C 
ENDBRANCH  21  22
ENDBRANCH  20  21
ENDBRANCH  17  20
ENDBRANCH  14  15
ENDBRANCH  13  14
ENDBRANCH   5  13
TORSDOF 8
