REMARK  Name = ZINC14880237
REMARK  6 active torsions:
REMARK  status: ('A' for Active; 'I' for Inactive)
REMARK    1  A    between atoms: C_1  and  C_2
REMARK    2  A    between atoms: C_6  and  S_34
REMARK    3  A    between atoms: C_15  and  C_18
REMARK    4  A    between atoms: N_20  and  C_21
REMARK    5  A    between atoms: C_21  and  C_22
REMARK    6  A    between atoms: S_34  and  C_37
REMARK                            x       y       z     vdW  Elec       q    Type
REMARK                         _______ _______ _______ _____ _____    ______ ____
ROOT
ATOM      1  C   UNL     1      -0.013   1.086   0.008  0.00  0.00    +0.066 C 
ATOM      2  C   UNL     1      -0.718   1.572   1.248  0.00  0.00    +0.051 A 
ATOM      3  C   UNL     1      -0.002   1.815   2.435  0.00  0.00    +0.022 A 
ATOM      4  C   UNL     1       1.384   1.620   2.521  0.00  0.00    +0.013 A 
ATOM      5  C   UNL     1       2.026   1.872   3.696  0.00  0.00    +0.028 A 
ATOM      6  C   UNL     1       1.325   2.320   4.814  0.00  0.00    +0.090 A 
ATOM      7  C   UNL     1      -0.022   2.520   4.765  0.00  0.00    +0.055 A 
ATOM      8  C   UNL     1      -0.717   2.271   3.572  0.00  0.00    +0.078 A 
ATOM      9  N   UNL     1      -2.040   2.452   3.471  0.00  0.00    -0.214 NA
ATOM     10  C   UNL     1      -2.658   2.208   2.332  0.00  0.00    +0.219 A 
ATOM     11  N   UNL     1      -2.017   1.784   1.244  0.00  0.00    -0.219 NA
ATOM     12  N   UNL     1      -4.025   2.405   2.263  0.00  0.00    -0.300 N 
ATOM     13  C   UNL     1      -4.379   3.777   2.651  0.00  0.00    +0.108 C 
ATOM     14  C   UNL     1      -5.902   3.916   2.704  0.00  0.00    +0.032 C 
ATOM     15  C   UNL     1      -6.487   3.588   1.328  0.00  0.00    +0.078 C 
ATOM     16  C   UNL     1      -6.064   2.173   0.925  0.00  0.00    +0.032 C 
ATOM     17  C   UNL     1      -4.536   2.084   0.924  0.00  0.00    +0.108 C 
ENDROOT
BRANCH  15  18
ATOM     18  C   UNL     1      -7.991   3.666   1.389  0.00  0.00    +0.216 C 
ATOM     19  O   UNL     1      -8.660   2.686   1.135  0.00  0.00    -0.276 OA
ATOM     20  N   UNL     1      -8.593   4.824   1.724  0.00  0.00    -0.315 N 
ATOM     21  H   UNL     1      -8.059   5.608   1.927  0.00  0.00    +0.149 HD
BRANCH  20  22
ATOM     22  C   UNL     1     -10.055   4.899   1.784  0.00  0.00    +0.108 C 
BRANCH  22  23
ATOM     23  C   UNL     1     -10.477   6.314   2.186  0.00  0.00    +0.014 C 
ATOM     24  C   UNL     1     -10.203   7.313   1.032  0.00  0.00    +0.013 C 
ATOM     25  C   UNL     1     -11.626   7.867   0.677  0.00  0.00    +0.018 C 
ATOM     26  C   UNL     1     -12.342   6.637   0.092  0.00  0.00    -0.027 C 
ATOM     27  C   UNL     1     -12.575   5.785   1.075  0.00  0.00    -0.026 C 
ATOM     28  C   UNL     1     -12.030   6.392   2.381  0.00  0.00    +0.023 C 
ATOM     29  C   UNL     1     -12.269   7.891   2.084  0.00  0.00    -0.016 C 
ATOM     30  C   UNL     1     -12.127   9.001   3.080  0.00  0.00    +0.008 C 
ATOM     31  C   UNL     1     -13.494   8.664   2.463  0.00  0.00    +0.008 C 
ENDBRANCH  22  23
ENDBRANCH  20  22
ENDBRANCH  15  18
BRANCH   6  32
ATOM     32  S   UNL     1       2.194   2.634   6.314  0.00  0.00    -0.006 S 
ATOM     33  O   UNL     1       1.224   2.459   7.338  0.00  0.00    -0.170 OA
ATOM     34  O   UNL     1       3.340   1.796   6.251  0.00  0.00    -0.170 OA
ATOM     35  C   UNL     1       2.687   4.376   6.211  0.00  0.00    +0.200 C 
ENDBRANCH   6  32
TORSDOF 4
