REMARK  Name = ZINC36207251
REMARK  14 active torsions:
REMARK  status: ('A' for Active; 'I' for Inactive)
REMARK    1  A    between atoms: C_1  and  C_2
REMARK    2  A    between atoms: C_2  and  O_3
REMARK    3  A    between atoms: O_3  and  C_4
REMARK    4  A    between atoms: C_4  and  C_6
REMARK    5  A    between atoms: C_7  and  C_32
REMARK    6  A    between atoms: C_13  and  C_17
REMARK    7  A    between atoms: C_17  and  N_18
REMARK    8  A    between atoms: N_18  and  C_19
REMARK    9  A    between atoms: N_18  and  C_26
REMARK   10  A    between atoms: C_19  and  C_20
REMARK   11  A    between atoms: C_20  and  C_22
REMARK   12  A    between atoms: C_20  and  O_25
REMARK   13  A    between atoms: C_22  and  O_23
REMARK   14  A    between atoms: O_23  and  C_24
REMARK                            x       y       z     vdW  Elec       q    Type
REMARK                         _______ _______ _______ _____ _____    ______ ____
ROOT
ATOM      1  C   UNL     1       5.422  -2.936  -1.549  0.00  0.00    +0.102 A 
ATOM      2  C   UNL     1       5.012  -4.153  -2.013  0.00  0.00    -0.015 A 
ATOM      3  C   UNL     1       4.867  -4.361  -3.386  0.00  0.00    +0.076 A 
ATOM      4  C   UNL     1       4.441  -5.581  -4.108  0.00  0.00    +0.260 A 
ATOM      5  O   UNL     1       4.156  -6.599  -3.502  0.00  0.00    -0.267 OA
ATOM      6  N   UNL     1       4.377  -5.537  -5.453  0.00  0.00    -0.312 N 
ATOM      7  H   UNL     1       4.100  -6.328  -5.941  0.00  0.00    +0.170 HD
ATOM      8  C   UNL     1       4.691  -4.410  -6.138  0.00  0.00    +0.094 A 
ATOM      9  N   UNL     1       5.069  -3.317  -5.533  0.00  0.00    -0.229 NA
ATOM     10  C   UNL     1       5.167  -3.253  -4.211  0.00  0.00    +0.116 A 
ATOM     11  S   UNL     1       5.623  -1.990  -3.049  0.00  0.00    -0.062 S 
ATOM     12  C   UNL     1       4.718  -5.270  -1.045  0.00  0.00    +0.046 C 
ENDROOT
BRANCH   1  13
ATOM     13  C   UNL     1       5.636  -2.511  -0.164  0.00  0.00    +0.346 C 
ATOM     14  O   UNL     1       5.449  -3.293   0.748  0.00  0.00    -0.244 OA
BRANCH  13  15
ATOM     15  O   UNL     1       6.041  -1.251   0.099  0.00  0.00    -0.461 OA
BRANCH  15  17
ATOM     16  C   UNL     1       6.687   0.552   1.572  0.00  0.00    +0.048 C 
ATOM     17  C   UNL     1       6.231  -0.905   1.472  0.00  0.00    +0.229 C 
ENDBRANCH  15  17
ENDBRANCH  13  15
ENDBRANCH   1  13
BRANCH   8  18
ATOM     18  C   UNL     1       4.601  -4.420  -7.642  0.00  0.00    -0.003 C 
BRANCH  18  19
ATOM     19  N   UNL     1       4.814  -3.059  -8.154  0.00  0.00    +0.388 N 
ATOM     20  H   UNL     1       5.500  -2.589  -7.583  0.00  0.00    -0.081 HD
BRANCH  19  21
ATOM     21  C   UNL     1       3.548  -2.315  -8.109  0.00  0.00    -0.068 C 
ATOM     22  C   UNL     1       2.514  -3.016  -8.993  0.00  0.00    -0.015 C 
ATOM     23  C   UNL     1       1.195  -2.241  -8.947  0.00  0.00    -0.002 C 
ATOM     24  C   UNL     1       0.684  -2.190  -7.506  0.00  0.00    -0.000 C 
ATOM     25  C   UNL     1       1.718  -1.490  -6.622  0.00  0.00    -0.002 C 
ATOM     26  C   UNL     1       3.036  -2.265  -6.668  0.00  0.00    -0.015 C 
ENDBRANCH  19  21
BRANCH  19  27
ATOM     27  C   UNL     1       5.293  -3.127  -9.541  0.00  0.00    -0.044 C 
BRANCH  27  28
ATOM     28  C   UNL     1       5.614  -1.717 -10.039  0.00  0.00    +0.124 C 
BRANCH  28  29
ATOM     29  O   UNL     1       6.613  -1.131  -9.202  0.00  0.00    -0.391 OA
ATOM     30  H   UNL     1       7.446  -1.623  -9.181  0.00  0.00    +0.210 HD
ENDBRANCH  28  29
BRANCH  28  31
ATOM     31  C   UNL     1       6.131  -1.789 -11.477  0.00  0.00    +0.188 C 
BRANCH  31  32
ATOM     32  O   UNL     1       6.321  -0.466 -11.983  0.00  0.00    -0.381 OA
ATOM     33  C   UNL     1       6.805  -0.421 -13.326  0.00  0.00    +0.194 C 
ENDBRANCH  31  32
ENDBRANCH  28  31
ENDBRANCH  27  28
ENDBRANCH  19  27
ENDBRANCH  18  19
ENDBRANCH   8  18
TORSDOF 11
