REMARK  Name = ZINC21009881
REMARK  4 active torsions:
REMARK  status: ('A' for Active; 'I' for Inactive)
REMARK    1  A    between atoms: C_1  and  C_2
REMARK    2  A    between atoms: C_5  and  C_22
REMARK    3  A    between atoms: C_6  and  C_8
REMARK    4  A    between atoms: C_8  and  C_9
REMARK                            x       y       z     vdW  Elec       q    Type
REMARK                         _______ _______ _______ _____ _____    ______ ____
ROOT
ATOM      1  C   UNL     1      -0.014   1.209   0.009  0.00  0.00    +0.225 C 
ATOM      2  O   UNL     1       0.002  -0.004   0.002  0.00  0.00    -0.275 OA
ATOM      3  N   UNL     1      -1.191   1.867   0.018  0.00  0.00    -0.261 N 
ATOM      4  C   UNL     1      -1.238   3.337   0.026  0.00  0.00    +0.209 C 
ATOM      5  C   UNL     1      -2.309   3.788   0.986  0.00  0.00    +0.235 C 
ATOM      6  O   UNL     1      -2.196   4.857   1.549  0.00  0.00    -0.274 OA
ATOM      7  N   UNL     1      -3.388   3.021   1.226  0.00  0.00    -0.283 N 
ATOM      8  C   UNL     1      -3.518   1.762   0.629  0.00  0.00    +0.055 A 
ATOM      9  C   UNL     1      -2.410   1.171   0.014  0.00  0.00    +0.058 A 
ATOM     10  C   UNL     1      -2.521  -0.073  -0.580  0.00  0.00    +0.025 A 
ATOM     11  C   UNL     1      -3.737  -0.732  -0.571  0.00  0.00    +0.002 A 
ATOM     12  C   UNL     1      -4.839  -0.150   0.029  0.00  0.00    +0.002 A 
ATOM     13  C   UNL     1      -4.733   1.096   0.636  0.00  0.00    +0.025 A 
ATOM     14  H   UNL     1      -4.181   3.381   1.899  0.00  0.00    +0.155 HD
ENDROOT
BRANCH   1  15
ATOM     15  C   UNL     1       1.280   1.980   0.001  0.00  0.00    +0.131 C 
BRANCH  15  21
ATOM     16  C   UNL     1       4.777  -0.634   2.446  0.00  0.00    +0.044 C 
ATOM     17  C   UNL     1       4.112  -0.234   1.154  0.00  0.00    -0.050 A 
ATOM     18  C   UNL     1       4.565  -0.751  -0.046  0.00  0.00    +0.003 A 
ATOM     19  C   UNL     1       3.955  -0.383  -1.230  0.00  0.00    +0.004 A 
ATOM     20  C   UNL     1       2.892   0.501  -1.215  0.00  0.00    -0.047 A 
ATOM     21  C   UNL     1       2.439   1.016  -0.016  0.00  0.00    -0.035 A 
ATOM     22  C   UNL     1       3.052   0.652   1.169  0.00  0.00    +0.007 A 
ATOM     23  C   UNL     1       2.227   0.902  -2.507  0.00  0.00    +0.044 C 
ENDBRANCH  15  21
ENDBRANCH   1  15
TORSDOF 2
