REMARK  Name = ZINC16862013
REMARK  8 active torsions:
REMARK  status: ('A' for Active; 'I' for Inactive)
REMARK    1  A    between atoms: C_3  and  N_28
REMARK    2  A    between atoms: C_4  and  C_10
REMARK    3  A    between atoms: C_6  and  N_7
REMARK    4  A    between atoms: C_10  and  O_12
REMARK    5  A    between atoms: O_12  and  C_13
REMARK    6  A    between atoms: C_13  and  C_14
REMARK    7  A    between atoms: N_16  and  C_17
REMARK    8  A    between atoms: C_18  and  C_25
REMARK                            x       y       z     vdW  Elec       q    Type
REMARK                         _______ _______ _______ _____ _____    ______ ____
ROOT
ATOM      1  C   UNL     1       1.144   2.070  -0.102  0.00  0.00    +0.255 C 
ATOM      2  O   UNL     1       2.203   1.479  -0.128  0.00  0.00    -0.272 OA
ATOM      3  N   UNL     1      -0.013   1.380  -0.111  0.00  0.00    -0.277 N 
ATOM      4  H   UNL     1      -0.860   1.853  -0.094  0.00  0.00    +0.155 HD
ENDROOT
BRANCH   3   5
ATOM      5  C   UNL     1       0.006  -0.006  -0.150  0.00  0.00    +0.084 A 
ATOM      6  C   UNL     1      -1.066  -0.882  -0.159  0.00  0.00    +0.068 A 
ATOM      7  C   UNL     1      -0.771  -2.313  -0.208  0.00  0.00    -0.023 A 
ATOM      8  C   UNL     1       0.537  -2.626  -0.229  0.00  0.00    -0.004 A 
ATOM      9  S   UNL     1       1.377  -1.062  -0.192  0.00  0.00    -0.077 S 
ATOM     10  C   UNL     1       0.761  -4.113  -0.276  0.00  0.00    +0.043 C 
ATOM     11  C   UNL     1      -0.599  -4.697  -0.718  0.00  0.00    +0.010 C 
ATOM     12  C   UNL     1      -1.580  -3.611  -0.235  0.00  0.00    +0.037 C 
BRANCH   6  13
ATOM     13  C   UNL     1      -2.447  -0.392  -0.126  0.00  0.00    +0.244 C 
ATOM     14  O   UNL     1      -3.036  -0.159  -1.166  0.00  0.00    -0.270 OA
ATOM     15  N   UNL     1      -3.066  -0.199   1.056  0.00  0.00    -0.325 N 
ATOM     16  H   UNL     1      -2.596  -0.384   1.885  0.00  0.00    +0.145 HD
ATOM     17  H   UNL     1      -3.979   0.125   1.078  0.00  0.00    +0.145 HD
ENDBRANCH   6  13
ENDBRANCH   3   5
BRANCH   1  18
ATOM     18  C   UNL     1       1.123   3.577  -0.059  0.00  0.00    +0.328 C 
BRANCH  18  19
ATOM     19  O   UNL     1       2.485   4.080  -0.057  0.00  0.00    -0.452 OA
BRANCH  19  20
ATOM     20  C   UNL     1       2.642   5.418  -0.021  0.00  0.00    +0.341 C 
ATOM     21  O   UNL     1       1.668   6.144   0.008  0.00  0.00    -0.245 OA
BRANCH  20  25
ATOM     22  C   UNL     1       6.545   7.097  -0.008  0.00  0.00    +0.034 A 
ATOM     23  C   UNL     1       5.447   7.929  -0.093  0.00  0.00    +0.026 A 
ATOM     24  C   UNL     1       4.166   7.392  -0.098  0.00  0.00    +0.039 A 
ATOM     25  C   UNL     1       3.995   6.000  -0.017  0.00  0.00    +0.082 A 
ATOM     26  C   UNL     1       5.117   5.172   0.073  0.00  0.00    +0.049 A 
ATOM     27  C   UNL     1       6.380   5.723   0.072  0.00  0.00    +0.127 A 
BRANCH  27  28
ATOM     28  N   UNL     1       7.567   4.843   0.163  0.00  0.00    +0.056 N 
ATOM     29  O   UNL     1       8.684   5.327   0.167  0.00  0.00    -0.126 OA
ATOM     30  O   UNL     1       7.426   3.635   0.233  0.00  0.00    -0.126 OA
ENDBRANCH  27  28
BRANCH  24  31
ATOM     31  N   UNL     1       3.060   8.227  -0.182  0.00  0.00    -0.357 N 
ATOM     32  H   UNL     1       2.166   7.858  -0.103  0.00  0.00    +0.142 HD
ATOM     33  H   UNL     1       3.180   9.180  -0.320  0.00  0.00    +0.142 HD
ENDBRANCH  24  31
ENDBRANCH  20  25
ENDBRANCH  19  20
ENDBRANCH  18  19
ENDBRANCH   1  18
TORSDOF 8
