REMARK  Name = ZINC39677200
REMARK  11 active torsions:
REMARK  status: ('A' for Active; 'I' for Inactive)
REMARK    1  A    between atoms: C_1  and  C_2
REMARK    2  A    between atoms: C_6  and  C_7
REMARK    3  A    between atoms: C_7  and  N_8
REMARK    4  A    between atoms: C_9  and  C_11
REMARK    5  A    between atoms: C_22  and  C_24
REMARK    6  A    between atoms: C_26  and  O_34
REMARK    7  A    between atoms: C_27  and  O_32
REMARK    8  A    between atoms: C_28  and  O_30
REMARK    9  A    between atoms: O_30  and  C_31
REMARK   10  A    between atoms: O_32  and  C_33
REMARK   11  A    between atoms: O_34  and  C_35
REMARK                            x       y       z     vdW  Elec       q    Type
REMARK                         _______ _______ _______ _____ _____    ______ ____
ROOT
ATOM      1  C   UNL     1      -2.649   1.133   4.595  0.00  0.00    +0.100 C 
ATOM      2  C   UNL     1      -3.641   2.051   3.846  0.00  0.00    +0.121 C 
ATOM      3  N   UNL     1      -4.494   2.629   4.911  0.00  0.00    -0.296 N 
ATOM      4  C   UNL     1      -3.557   2.900   6.027  0.00  0.00    +0.115 C 
ATOM      5  C   UNL     1      -2.596   1.695   6.026  0.00  0.00    -0.004 C 
ATOM      6  C   UNL     1      -1.179   2.150   6.363  0.00  0.00    -0.010 C 
ATOM      7  C   UNL     1      -1.139   2.649   7.810  0.00  0.00    -0.082 C 
ATOM      8  N   UNL     1      -1.556   1.570   8.714  0.00  0.00    +0.379 N 
ATOM      9  C   UNL     1      -2.951   1.203   8.444  0.00  0.00    -0.082 C 
ATOM     10  C   UNL     1      -3.068   0.642   7.024  0.00  0.00    -0.010 C 
ATOM     11  C   UNL     1      -5.822   2.857   4.873  0.00  0.00    +0.247 C 
ATOM     12  O   UNL     1      -6.480   2.462   3.930  0.00  0.00    -0.270 OA
ATOM     13  H   UNL     1      -0.964   0.766   8.571  0.00  0.00    -0.086 HD
ATOM     14  H   UNL     1      -1.470   1.882   9.670  0.00  0.00    -0.086 HD
ENDROOT
BRANCH  11  15
ATOM     15  C   UNL     1      -6.477   3.586   5.976  0.00  0.00    +0.044 A 
ATOM     16  C   UNL     1      -5.723   4.409   6.817  0.00  0.00    +0.062 A 
ATOM     17  C   UNL     1      -6.339   5.091   7.849  0.00  0.00    +0.166 A 
ATOM     18  C   UNL     1      -7.710   4.958   8.052  0.00  0.00    +0.204 A 
ATOM     19  C   UNL     1      -8.464   4.139   7.216  0.00  0.00    +0.166 A 
ATOM     20  C   UNL     1      -7.854   3.459   6.178  0.00  0.00    +0.062 A 
BRANCH  19  21
ATOM     21  O   UNL     1      -9.803   4.011   7.417  0.00  0.00    -0.491 OA
ATOM     22  C   UNL     1     -10.515   3.154   6.522  0.00  0.00    +0.277 C 
ENDBRANCH  19  21
BRANCH  18  23
ATOM     23  O   UNL     1      -8.314   5.630   9.068  0.00  0.00    -0.488 OA
ATOM     24  C   UNL     1      -8.812   6.937   8.776  0.00  0.00    +0.277 C 
ENDBRANCH  18  23
BRANCH  17  25
ATOM     25  O   UNL     1      -5.606   5.892   8.667  0.00  0.00    -0.491 OA
ATOM     26  C   UNL     1      -4.204   5.981   8.402  0.00  0.00    +0.277 C 
ENDBRANCH  17  25
ENDBRANCH  11  15
BRANCH   1  28
ATOM     27  N   UNL     1      -0.468   0.130   3.999  0.00  0.00    -0.310 N 
ATOM     28  C   UNL     1      -1.286   1.200   3.955  0.00  0.00    +0.218 C 
ATOM     29  O   UNL     1      -0.926   2.216   3.399  0.00  0.00    -0.275 OA
ATOM     30  H   UNL     1      -0.756  -0.683   4.444  0.00  0.00    +0.149 HD
BRANCH  27  31
ATOM     31  C   UNL     1       0.857   0.194   3.377  0.00  0.00    +0.147 C 
BRANCH  31  37
ATOM     32  C   UNL     1       0.762  -2.228   1.490  0.00  0.00    +0.044 C 
ATOM     33  C   UNL     1       1.558  -2.218   2.769  0.00  0.00    -0.039 A 
ATOM     34  C   UNL     1       2.297  -3.324   3.144  0.00  0.00    +0.011 A 
ATOM     35  C   UNL     1       3.002  -3.283   4.301  0.00  0.00    +0.046 A 
ATOM     36  S   UNL     1       2.631  -1.643   4.901  0.00  0.00    -0.100 S 
ATOM     37  C   UNL     1       1.565  -1.122   3.567  0.00  0.00    +0.010 A 
ENDBRANCH  31  37
ENDBRANCH  27  31
ENDBRANCH   1  28
TORSDOF 7
