REMARK  Name = ZINC23994055
REMARK  4 active torsions:
REMARK  status: ('A' for Active; 'I' for Inactive)
REMARK    1  A    between atoms: C_1  and  C_2
REMARK    2  A    between atoms: C_8  and  C_10
REMARK    3  A    between atoms: N_20  and  C_28
REMARK    4  A    between atoms: C_21  and  C_23
REMARK                            x       y       z     vdW  Elec       q    Type
REMARK                         _______ _______ _______ _____ _____    ______ ____
ROOT
ATOM      1  C   UNL     1      -1.495  -0.692  -0.393  0.00  0.00    +0.131 C 
ATOM      2  C   UNL     1      -0.011  -0.519  -0.201  0.00  0.00    -0.021 A 
ATOM      3  C   UNL     1       0.560   0.735  -0.222  0.00  0.00    +0.005 A 
ATOM      4  C   UNL     1       1.921   0.879  -0.012  0.00  0.00    +0.000 A 
ATOM      5  C   UNL     1       2.715  -0.230   0.220  0.00  0.00    +0.001 A 
ATOM      6  C   UNL     1       2.156  -1.493   0.236  0.00  0.00    +0.013 A 
ATOM      7  C   UNL     1       0.788  -1.643   0.017  0.00  0.00    +0.041 A 
ATOM      8  C   UNL     1       0.165  -2.983  -0.008  0.00  0.00    +0.247 C 
ATOM      9  O   UNL     1       0.778  -3.953   0.393  0.00  0.00    -0.270 OA
ATOM     10  N   UNL     1      -1.089  -3.119  -0.480  0.00  0.00    -0.292 N 
ATOM     11  C   UNL     1      -1.780  -2.003  -1.121  0.00  0.00    +0.129 C 
ATOM     12  C   UNL     1      -1.772  -4.408  -0.348  0.00  0.00    +0.133 C 
ENDROOT
BRANCH   1  20
ATOM     13  C   UNL     1      -4.600  -0.972   5.849  0.00  0.00    +0.089 C 
ATOM     14  C   UNL     1      -4.152  -0.210   4.628  0.00  0.00    +0.136 A 
ATOM     15  C   UNL     1      -3.495  -0.712   3.558  0.00  0.00    +0.091 A 
ATOM     16  C   UNL     1      -3.319   0.411   2.707  0.00  0.00    +0.168 A 
ATOM     17  N   UNL     1      -3.858   1.427   3.327  0.00  0.00    -0.063 NA
ATOM     18  O   UNL     1      -4.329   1.098   4.390  0.00  0.00    -0.358 OA
ATOM     19  N   UNL     1      -2.690   0.427   1.461  0.00  0.00    -0.267 N 
ATOM     20  C   UNL     1      -2.174  -0.709   0.952  0.00  0.00    +0.228 C 
ATOM     21  O   UNL     1      -2.255  -1.746   1.577  0.00  0.00    -0.275 OA
ATOM     22  H   UNL     1      -2.616   1.367   0.895  0.00  0.00    +0.156 HD
ENDBRANCH   1  20
BRANCH  11  23
ATOM     23  C   UNL     1      -3.264  -2.265  -1.105  0.00  0.00    +0.011 A 
ATOM     24  C   UNL     1      -4.271  -1.450  -0.705  0.00  0.00    +0.013 A 
ATOM     25  C   UNL     1      -5.573  -1.905  -0.784  0.00  0.00    +0.008 A 
ATOM     26  C   UNL     1      -5.805  -3.157  -1.249  0.00  0.00    +0.045 A 
ATOM     27  S   UNL     1      -4.152  -3.732  -1.602  0.00  0.00    -0.100 S 
ENDBRANCH  11  23
TORSDOF 2
