REMARK  Name = ZINC43261674
REMARK  11 active torsions:
REMARK  status: ('A' for Active; 'I' for Inactive)
REMARK    1  A    between atoms: C_1  and  C_2
REMARK    2  A    between atoms: C_2  and  C_3
REMARK    3  A    between atoms: C_3  and  C_4
REMARK    4  A    between atoms: C_4  and  C_5
REMARK    5  A    between atoms: C_5  and  C_6
REMARK    6  A    between atoms: C_9  and  C_12
REMARK    7  A    between atoms: C_17  and  C_20
REMARK    8  A    between atoms: N_22  and  C_23
REMARK    9  A    between atoms: C_23  and  C_24
REMARK   10  A    between atoms: C_33  and  C_34
REMARK   11  A    between atoms: C_33  and  C_35
REMARK                            x       y       z     vdW  Elec       q    Type
REMARK                         _______ _______ _______ _____ _____    ______ ____
ROOT
ATOM      1  C   UNL     1       1.731  -8.458  -2.415  0.00  0.00    -0.030 C 
ATOM      2  C   UNL     1       0.850  -9.012  -1.289  0.00  0.00    +0.058 C 
ATOM      3  S   UNL     1       0.955 -10.829  -1.325  0.00  0.00    -0.163 S 
ATOM      4  C   UNL     1       0.636 -11.211  -3.076  0.00  0.00    +0.062 C 
ATOM      5  C   UNL     1       1.548 -10.328  -3.934  0.00  0.00    +0.027 C 
ATOM      6  N   UNL     1       1.226  -8.917  -3.711  0.00  0.00    +0.392 N 
ATOM      7  H   UNL     1       0.225  -8.797  -3.737  0.00  0.00    -0.084 HD
ATOM      8  H   UNL     1       1.644  -8.363  -4.443  0.00  0.00    -0.084 HD
ENDROOT
BRANCH   1  12
ATOM      9  C   UNL     1       1.665  -4.188  -2.299  0.00  0.00    -0.047 A 
ATOM     10  C   UNL     1       2.731  -4.878  -1.754  0.00  0.00    +0.004 A 
ATOM     11  C   UNL     1       2.752  -6.260  -1.791  0.00  0.00    +0.002 A 
ATOM     12  C   UNL     1       1.707  -6.952  -2.373  0.00  0.00    -0.061 A 
ATOM     13  C   UNL     1       0.640  -6.262  -2.918  0.00  0.00    +0.002 A 
ATOM     14  C   UNL     1       0.617  -4.880  -2.877  0.00  0.00    +0.004 A 
BRANCH   9  15
ATOM     15  C   UNL     1       1.642  -2.682  -2.259  0.00  0.00    +0.035 C 
BRANCH  15  16
ATOM     16  C   UNL     1       0.960  -2.217  -0.970  0.00  0.00    +0.005 C 
BRANCH  16  17
ATOM     17  C   UNL     1       0.937  -0.688  -0.929  0.00  0.00    +0.000 C 
BRANCH  17  19
ATOM     18  C   UNL     1       0.232   1.307   0.401  0.00  0.00    +0.004 C 
ATOM     19  C   UNL     1       0.255  -0.222   0.359  0.00  0.00    -0.003 C 
ENDBRANCH  17  19
ENDBRANCH  16  17
ENDBRANCH  15  16
ENDBRANCH   9  15
ENDBRANCH   1  12
BRANCH   5  20
ATOM     20  C   UNL     1       1.344 -10.662  -5.390  0.00  0.00    +0.200 C 
ATOM     21  O   UNL     1       0.962  -9.807  -6.160  0.00  0.00    -0.278 OA
ATOM     22  N   UNL     1       1.585 -11.911  -5.835  0.00  0.00    -0.316 N 
ATOM     23  H   UNL     1       1.891 -12.595  -5.218  0.00  0.00    +0.149 HD
BRANCH  22  24
ATOM     24  C   UNL     1       1.387 -12.236  -7.249  0.00  0.00    +0.108 C 
BRANCH  24  25
ATOM     25  C   UNL     1       1.730 -13.710  -7.488  0.00  0.00    +0.010 C 
ATOM     26  C   UNL     1       3.195 -13.979  -7.176  0.00  0.00    +0.005 C 
ATOM     27  C   UNL     1       3.799 -15.072  -8.048  0.00  0.00    +0.004 C 
ATOM     28  C   UNL     1       3.017 -15.294  -9.342  0.00  0.00    -0.005 C 
ATOM     29  C   UNL     1       1.546 -15.661  -9.056  0.00  0.00    +0.008 C 
ATOM     30  C   UNL     1       1.355 -14.130  -8.909  0.00  0.00    -0.000 C 
ATOM     31  C   UNL     1       2.460 -14.002  -9.958  0.00  0.00    -0.029 C 
ATOM     32  C   UNL     1       1.953 -14.194 -11.401  0.00  0.00    +0.011 C 
ATOM     33  C   UNL     1       3.373 -12.784  -9.860  0.00  0.00    +0.011 C 
ENDBRANCH  24  25
ENDBRANCH  22  24
ENDBRANCH   5  20
TORSDOF 8
