REMARK  Name = ZINC59038601
REMARK  8 active torsions:
REMARK  status: ('A' for Active; 'I' for Inactive)
REMARK    1  A    between atoms: C_1  and  S_2
REMARK    2  A    between atoms: S_2  and  N_5
REMARK    3  A    between atoms: N_5  and  C_6
REMARK    4  A    between atoms: C_6  and  C_7
REMARK    5  A    between atoms: C_7  and  C_8
REMARK    6  A    between atoms: C_8  and  N_9
REMARK    7  A    between atoms: N_12  and  C_13
REMARK    8  A    between atoms: C_16  and  C_20
REMARK                            x       y       z     vdW  Elec       q    Type
REMARK                         _______ _______ _______ _____ _____    ______ ____
ROOT
ATOM      1  C   UNL     1       7.947  -1.588  -5.857  0.00  0.00    +0.053 A 
ATOM      2  C   UNL     1       8.796  -0.726  -5.175  0.00  0.00    +0.025 A 
ATOM      3  C   UNL     1      10.089  -0.534  -5.624  0.00  0.00    +0.006 A 
ATOM      4  C   UNL     1      10.538  -1.199  -6.750  0.00  0.00    -0.040 A 
ATOM      5  C   UNL     1       9.696  -2.058  -7.432  0.00  0.00    +0.026 A 
ATOM      6  C   UNL     1       8.403  -2.259  -6.985  0.00  0.00    +0.062 A 
ATOM      7 CL   UNL     1       7.348  -3.343  -7.836  0.00  0.00    -0.082 Cl
ENDROOT
BRANCH   4   8
ATOM      8  C   UNL     1      11.949  -0.987  -7.236  0.00  0.00    -0.003 C 
ATOM      9  C   UNL     1      12.933  -1.404  -6.141  0.00  0.00    +0.015 C 
ATOM     10  C   UNL     1      14.365  -1.189  -6.635  0.00  0.00    -0.010 C 
ATOM     11  C   UNL     1      14.606  -2.034  -7.887  0.00  0.00    +0.007 C 
ATOM     12  C   UNL     1      13.622  -1.616  -8.981  0.00  0.00    -0.010 C 
ATOM     13  C   UNL     1      12.189  -1.832  -8.488  0.00  0.00    +0.015 C 
ATOM     14  C   UNL     1      13.829  -0.138  -9.316  0.00  0.00    +0.007 C 
ATOM     15  C   UNL     1      13.588   0.707  -8.064  0.00  0.00    -0.010 C 
ATOM     16  C   UNL     1      14.572   0.290  -6.970  0.00  0.00    +0.007 C 
ATOM     17  C   UNL     1      12.156   0.492  -7.571  0.00  0.00    +0.015 C 
ENDBRANCH   4   8
BRANCH   1  21
ATOM     18  N   UNL     1       4.667  -0.928  -4.491  0.00  0.00    -0.299 N 
ATOM     19  C   UNL     1       5.957  -0.765  -4.844  0.00  0.00    +0.304 C 
ATOM     20  O   UNL     1       6.509   0.303  -4.656  0.00  0.00    -0.253 OA
ATOM     21  N   UNL     1       6.637  -1.784  -5.405  0.00  0.00    -0.268 N 
ATOM     22  H   UNL     1       4.227  -1.779  -4.641  0.00  0.00    +0.150 HD
ATOM     23  H   UNL     1       6.218  -2.655  -5.496  0.00  0.00    +0.156 HD
BRANCH  18  24
ATOM     24  C   UNL     1       3.928   0.180  -3.882  0.00  0.00    +0.107 C 
BRANCH  24  25
ATOM     25  C   UNL     1       2.496  -0.266  -3.580  0.00  0.00    +0.035 C 
BRANCH  25  26
ATOM     26  C   UNL     1       1.725   0.892  -2.943  0.00  0.00    +0.107 C 
BRANCH  26  27
ATOM     27  N   UNL     1       0.353   0.465  -2.655  0.00  0.00    -0.195 NA
ATOM     28  H   UNL     1       0.002  -0.344  -3.059  0.00  0.00    +0.148 HD
BRANCH  27  30
ATOM     29  C   UNL     1      -0.834   2.943  -2.500  0.00  0.00    +0.214 C 
ATOM     30  S   UNL     1      -0.598   1.364  -1.640  0.00  0.00    +0.027 S 
ATOM     31  O   UNL     1       0.194   1.554  -0.475  0.00  0.00    -0.158 OA
ATOM     32  O   UNL     1      -1.827   0.655  -1.573  0.00  0.00    -0.158 OA
ENDBRANCH  27  30
ENDBRANCH  26  27
ENDBRANCH  25  26
ENDBRANCH  24  25
ENDBRANCH  18  24
ENDBRANCH   1  21
TORSDOF 7
