REMARK  Name = ZINC20320604
REMARK  12 active torsions:
REMARK  status: ('A' for Active; 'I' for Inactive)
REMARK    1  A    between atoms: C_1  and  C_2
REMARK    2  A    between atoms: C_2  and  C_3
REMARK    3  A    between atoms: C_3  and  C_5
REMARK    4  A    between atoms: C_3  and  N_6
REMARK    5  A    between atoms: N_6  and  C_7
REMARK    6  A    between atoms: N_6  and  C_8
REMARK    7  A    between atoms: C_8  and  C_9
REMARK    8  A    between atoms: C_13  and  C_15
REMARK    9  A    between atoms: C_15  and  O_33
REMARK   10  A    between atoms: N_18  and  S_21
REMARK   11  A    between atoms: S_21  and  C_24
REMARK   12  A    between atoms: C_27  and  N_30
REMARK                            x       y       z     vdW  Elec       q    Type
REMARK                         _______ _______ _______ _____ _____    ______ ____
ROOT
ATOM      1  C   UNL     1       0.908   4.560  -0.564  0.00  0.00    +0.093 C 
ATOM      2  C   UNL     1       2.265   3.866  -0.706  0.00  0.00    +0.056 C 
ATOM      3  C   UNL     1       2.518   2.990   0.524  0.00  0.00    +0.112 C 
ATOM      4  N   UNL     1       1.385   2.070   0.690  0.00  0.00    -0.176 NA
ATOM      5  C   UNL     1       0.025   2.625   0.742  0.00  0.00    +0.112 C 
ATOM      6  C   UNL     1      -0.199   3.507  -0.485  0.00  0.00    +0.056 C 
ENDROOT
BRANCH   1  11
ATOM      7  C   UNL     1      -0.309   7.411  -2.718  0.00  0.00    -0.064 A 
ATOM      8  C   UNL     1       0.237   7.082  -3.945  0.00  0.00    +0.002 A 
ATOM      9  C   UNL     1       1.001   5.938  -4.077  0.00  0.00    +0.001 A 
ATOM     10  C   UNL     1       1.222   5.124  -2.982  0.00  0.00    +0.006 A 
ATOM     11  C   UNL     1       0.671   5.449  -1.756  0.00  0.00    -0.016 A 
ATOM     12  C   UNL     1      -0.092   6.595  -1.624  0.00  0.00    +0.008 A 
BRANCH   7  13
ATOM     13  C   UNL     1      -1.142   8.658  -2.574  0.00  0.00    -0.043 C 
BRANCH  13  14
ATOM     14  N   UNL     1      -0.274   9.787  -2.214  0.00  0.00    +0.382 N 
ATOM     15  C   UNL     1       0.652  10.110  -3.308  0.00  0.00    -0.095 C 
ATOM     16  H   UNL     1       0.325   9.488  -1.341  0.00  0.00    -0.081 HD
BRANCH  14  17
ATOM     17  C   UNL     1      -1.070  10.963  -1.834  0.00  0.00    -0.072 C 
ATOM     18  C   UNL     1      -2.110  11.247  -2.920  0.00  0.00    -0.013 C 
BRANCH  17  20
ATOM     19  C   UNL     1      -0.738  10.479   0.595  0.00  0.00    +0.002 C 
ATOM     20  C   UNL     1      -1.779  10.690  -0.506  0.00  0.00    -0.019 C 
ENDBRANCH  17  20
ENDBRANCH  14  17
ENDBRANCH  13  14
ENDBRANCH   7  13
ENDBRANCH   1  11
BRANCH   4  21
ATOM     21  S   UNL     1       1.633   0.437   0.810  0.00  0.00    +0.061 S 
ATOM     22  O   UNL     1       0.425  -0.189   0.402  0.00  0.00    -0.153 OA
ATOM     23  O   UNL     1       2.880   0.169   0.181  0.00  0.00    -0.153 OA
BRANCH  21  24
ATOM     24  C   UNL     1       1.841   0.065   2.519  0.00  0.00    +0.106 A 
ATOM     25  C   UNL     1       3.104   0.086   3.083  0.00  0.00    +0.031 A 
ATOM     26  C   UNL     1       3.266  -0.201   4.425  0.00  0.00    +0.034 A 
ATOM     27  C   UNL     1       2.168  -0.519   5.202  0.00  0.00    +0.126 A 
ATOM     28  C   UNL     1       0.906  -0.544   4.638  0.00  0.00    +0.034 A 
ATOM     29  C   UNL     1       0.743  -0.253   3.296  0.00  0.00    +0.031 A 
BRANCH  27  30
ATOM     30  N   UNL     1       2.343  -0.831   6.638  0.00  0.00    +0.056 N 
ATOM     31  O   UNL     1       1.375  -1.110   7.323  0.00  0.00    -0.126 OA
ATOM     32  O   UNL     1       3.454  -0.808   7.136  0.00  0.00    -0.126 OA
ENDBRANCH  27  30
ENDBRANCH  21  24
ENDBRANCH   4  21
BRANCH   1  33
ATOM     33  O   UNL     1       0.900   5.349   0.628  0.00  0.00    -0.384 OA
ATOM     34  H   UNL     1       1.058   4.870   1.606  0.00  0.00    +0.211 HD
ENDBRANCH   1  33
TORSDOF 9
