REMARK  Name = ZINC53517393
REMARK  10 active torsions:
REMARK  status: ('A' for Active; 'I' for Inactive)
REMARK    1  A    between atoms: C_1  and  C_2
REMARK    2  A    between atoms: C_2  and  C_3
REMARK    3  A    between atoms: C_2  and  C_4
REMARK    4  A    between atoms: C_4  and  C_5
REMARK    5  A    between atoms: C_8  and  C_11
REMARK    6  A    between atoms: C_11  and  C_13
REMARK    7  A    between atoms: C_11  and  N_18
REMARK    8  A    between atoms: N_18  and  C_19
REMARK    9  A    between atoms: C_19  and  C_20
REMARK   10  A    between atoms: N_22  and  C_23
REMARK                            x       y       z     vdW  Elec       q    Type
REMARK                         _______ _______ _______ _____ _____    ______ ____
ROOT
ATOM      1  N   UNL     1      -3.621   0.548   5.832  0.00  0.00    -0.297 NA
ATOM      2  H   UNL     1      -3.901   0.594   4.863  0.00  0.00    +0.123 HD
ENDROOT
BRANCH   1   3
ATOM      3  C   UNL     1      -2.216   0.945   5.993  0.00  0.00    +0.122 C 
BRANCH   3   7
ATOM      4  C   UNL     1      -0.022  -0.119   2.486  0.00  0.00    -0.047 A 
ATOM      5  C   UNL     1       0.227   1.084   3.118  0.00  0.00    +0.004 A 
ATOM      6  C   UNL     1      -0.483   1.429   4.253  0.00  0.00    +0.006 A 
ATOM      7  C   UNL     1      -1.443   0.570   4.755  0.00  0.00    -0.026 A 
ATOM      8  C   UNL     1      -1.693  -0.633   4.122  0.00  0.00    +0.006 A 
ATOM      9  C   UNL     1      -0.986  -0.976   2.984  0.00  0.00    +0.004 A 
BRANCH   4  10
ATOM     10  C   UNL     1       0.751  -0.495   1.248  0.00  0.00    +0.038 C 
BRANCH  10  12
ATOM     11  C   UNL     1       0.000   1.552   0.029  0.00  0.00    +0.007 C 
ATOM     12  C   UNL     1       0.016   0.023   0.010  0.00  0.00    -0.013 C 
ATOM     13  C   UNL     1       0.734  -0.464  -1.250  0.00  0.00    +0.007 C 
ENDBRANCH  10  12
ENDBRANCH   4  10
ENDBRANCH   3   7
BRANCH   3  14
ATOM     14  C   UNL     1      -1.628   0.237   7.186  0.00  0.00    +0.011 A 
ATOM     15  C   UNL     1      -0.783   0.716   8.132  0.00  0.00    +0.013 A 
ATOM     16  C   UNL     1      -0.369  -0.125   9.149  0.00  0.00    +0.008 A 
ATOM     17  C   UNL     1      -0.821  -1.402   9.170  0.00  0.00    +0.045 A 
ATOM     18  S   UNL     1      -1.870  -1.448   7.726  0.00  0.00    -0.100 S 
ENDBRANCH   3  14
ENDBRANCH   1   3
BRANCH   1  19
ATOM     19  C   UNL     1      -4.501   1.371   6.673  0.00  0.00    +0.178 C 
BRANCH  19  20
ATOM     20  C   UNL     1      -5.931   0.935   6.481  0.00  0.00    +0.231 C 
ATOM     21  O   UNL     1      -6.191   0.029   5.718  0.00  0.00    -0.274 OA
ATOM     22  N   UNL     1      -6.919   1.553   7.157  0.00  0.00    -0.284 N 
ATOM     23  H   UNL     1      -6.706   2.231   7.817  0.00  0.00    +0.155 HD
BRANCH  22  24
ATOM     24  C   UNL     1      -8.256   1.215   6.908  0.00  0.00    +0.035 A 
ATOM     25  C   UNL     1      -9.241   2.195   6.960  0.00  0.00    +0.025 A 
ATOM     26  C   UNL     1     -10.559   1.868   6.715  0.00  0.00    +0.029 A 
ATOM     27  C   UNL     1     -10.904   0.559   6.416  0.00  0.00    +0.067 A 
ATOM     28  C   UNL     1      -9.917  -0.428   6.363  0.00  0.00    +0.069 A 
ATOM     29  C   UNL     1      -8.593  -0.096   6.604  0.00  0.00    +0.051 A 
ATOM     30  N   UNL     1     -10.558  -1.623   6.045  0.00  0.00    -0.306 N 
ATOM     31  H   UNL     1     -10.130  -2.486   5.939  0.00  0.00    +0.170 HD
ATOM     32  C   UNL     1     -11.875  -1.375   5.910  0.00  0.00    +0.325 A 
ATOM     33  O   UNL     1     -12.719  -2.207   5.634  0.00  0.00    -0.247 OA
ATOM     34  N   UNL     1     -12.116  -0.069   6.128  0.00  0.00    -0.306 N 
ATOM     35  H   UNL     1     -12.983   0.363   6.091  0.00  0.00    +0.170 HD
ENDBRANCH  22  24
ENDBRANCH  19  20
ENDBRANCH   1  19
TORSDOF 8
