REMARK  Name = ZINC36501129
REMARK  19 active torsions:
REMARK  status: ('A' for Active; 'I' for Inactive)
REMARK    1  A    between atoms: C_1  and  C_2
REMARK    2  A    between atoms: C_7  and  C_8
REMARK    3  A    between atoms: C_8  and  C_10
REMARK    4  A    between atoms: C_8  and  N_21
REMARK    5  A    between atoms: N_12  and  C_13
REMARK    6  A    between atoms: C_13  and  C_14
REMARK    7  A    between atoms: C_13  and  C_15
REMARK    8  A    between atoms: C_13  and  C_16
REMARK    9  A    between atoms: C_16  and  C_17
REMARK   10  A    between atoms: C_17  and  C_18
REMARK   11  A    between atoms: C_17  and  C_19
REMARK   12  A    between atoms: C_17  and  C_20
REMARK   13  A    between atoms: N_21  and  C_22
REMARK   14  A    between atoms: C_22  and  C_23
REMARK   15  A    between atoms: C_28  and  C_30
REMARK   16  A    between atoms: C_30  and  C_31
REMARK   17  A    between atoms: C_31  and  C_32
REMARK   18  A    between atoms: C_35  and  O_38
REMARK   19  A    between atoms: O_38  and  C_39
REMARK                            x       y       z     vdW  Elec       q    Type
REMARK                         _______ _______ _______ _____ _____    ______ ____
ROOT
ATOM      1  C   UNL     1       0.995   0.639   2.078  0.00  0.00    +0.193 C 
ENDROOT
BRANCH   1   8
ATOM      2  C   UNL     1       0.045  -1.506   0.392  0.00  0.00    +0.044 C 
ATOM      3  C   UNL     1       1.493  -1.457   0.805  0.00  0.00    -0.045 A 
ATOM      4  C   UNL     1       2.369  -2.436   0.373  0.00  0.00    +0.004 A 
ATOM      5  C   UNL     1       3.697  -2.391   0.751  0.00  0.00    +0.000 A 
ATOM      6  C   UNL     1       4.151  -1.367   1.562  0.00  0.00    +0.000 A 
ATOM      7  C   UNL     1       3.276  -0.388   1.994  0.00  0.00    +0.006 A 
ATOM      8  C   UNL     1       1.948  -0.431   1.612  0.00  0.00    -0.015 A 
ENDBRANCH   1   8
BRANCH   1   9
ATOM      9  C   UNL     1       1.766   1.895   2.393  0.00  0.00    +0.239 C 
ATOM     10  O   UNL     1       1.958   2.215   3.547  0.00  0.00    -0.273 OA
ATOM     11  N   UNL     1       2.241   2.664   1.393  0.00  0.00    -0.308 N 
ATOM     12  H   UNL     1       2.027   2.447   0.472  0.00  0.00    +0.149 HD
BRANCH  11  13
ATOM     13  C   UNL     1       3.080   3.825   1.697  0.00  0.00    +0.030 C 
ATOM     14  C   UNL     1       2.253   4.868   2.452  0.00  0.00    +0.031 C 
ATOM     15  C   UNL     1       4.262   3.388   2.564  0.00  0.00    +0.031 C 
BRANCH  13  16
ATOM     16  C   UNL     1       3.601   4.433   0.393  0.00  0.00    +0.031 C 
BRANCH  16  17
ATOM     17  C   UNL     1       3.765   3.330  -0.654  0.00  0.00    -0.036 C 
ATOM     18  C   UNL     1       2.409   3.030  -1.295  0.00  0.00    +0.010 C 
ATOM     19  C   UNL     1       4.748   3.792  -1.732  0.00  0.00    +0.010 C 
ATOM     20  C   UNL     1       4.303   2.065   0.018  0.00  0.00    +0.010 C 
ENDBRANCH  16  17
ENDBRANCH  13  16
ENDBRANCH  11  13
ENDBRANCH   1   9
BRANCH   1  21
ATOM     21  N   UNL     1       0.295   0.181   3.280  0.00  0.00    -0.279 N 
ATOM     22  C   UNL     1      -0.697   0.924   3.808  0.00  0.00    +0.217 C 
ATOM     23  O   UNL     1      -1.011   1.973   3.287  0.00  0.00    -0.276 OA
BRANCH  21  24
ATOM     24  C   UNL     1       0.675  -1.087   3.910  0.00  0.00    +0.183 C 
BRANCH  24  25
ATOM     25  C   UNL     1       1.755  -0.837   4.931  0.00  0.00    +0.122 A 
ATOM     26  C   UNL     1       1.558  -0.533   6.226  0.00  0.00    +0.046 A 
ATOM     27  C   UNL     1       2.837  -0.385   6.811  0.00  0.00    +0.041 A 
ATOM     28  C   UNL     1       3.739  -0.607   5.838  0.00  0.00    +0.195 A 
ATOM     29  O   UNL     1       3.078  -0.886   4.703  0.00  0.00    -0.466 OA
ENDBRANCH  24  25
ENDBRANCH  21  24
BRANCH  22  30
ATOM     30  C   UNL     1      -1.417   0.452   5.045  0.00  0.00    +0.100 C 
BRANCH  30  31
ATOM     31  C   UNL     1      -2.489   1.472   5.432  0.00  0.00    +0.044 C 
BRANCH  31  32
ATOM     32  C   UNL     1      -3.208   1.000   6.669  0.00  0.00    -0.047 A 
ATOM     33  C   UNL     1      -4.331   0.202   6.552  0.00  0.00    +0.007 A 
ATOM     34  C   UNL     1      -4.992  -0.232   7.685  0.00  0.00    +0.046 A 
ATOM     35  C   UNL     1      -4.529   0.134   8.940  0.00  0.00    +0.120 A 
ATOM     36  C   UNL     1      -3.403   0.935   9.055  0.00  0.00    +0.046 A 
ATOM     37  C   UNL     1      -2.742   1.362   7.919  0.00  0.00    +0.007 A 
BRANCH  35  38
ATOM     38  O   UNL     1      -5.179  -0.291  10.056  0.00  0.00    -0.495 OA
ATOM     39  C   UNL     1      -4.646   0.125  11.315  0.00  0.00    +0.277 C 
ENDBRANCH  35  38
ENDBRANCH  31  32
ENDBRANCH  30  31
ENDBRANCH  22  30
ENDBRANCH   1  21
TORSDOF 12
