REMARK  Name = ZINC64873857
REMARK  8 active torsions:
REMARK  status: ('A' for Active; 'I' for Inactive)
REMARK    1  A    between atoms: C_1  and  N_2
REMARK    2  A    between atoms: C_16  and  C_19
REMARK    3  A    between atoms: N_21  and  C_22
REMARK    4  A    between atoms: C_22  and  C_23
REMARK    5  A    between atoms: C_23  and  C_24
REMARK    6  A    between atoms: C_24  and  N_25
REMARK    7  A    between atoms: N_25  and  C_26
REMARK    8  A    between atoms: N_25  and  C_27
REMARK                            x       y       z     vdW  Elec       q    Type
REMARK                         _______ _______ _______ _____ _____    ______ ____
ROOT
ATOM      1  C   UNL     1      -2.535  -2.810   0.549  0.00  0.00    +0.152 C 
ATOM      2  N   UNL     1      -1.260  -2.145   0.272  0.00  0.00    -0.307 N 
ATOM      3  C   UNL     1      -1.219  -0.787   0.011  0.00  0.00    +0.070 A 
ATOM      4  C   UNL     1      -2.392  -0.039   0.010  0.00  0.00    +0.028 A 
ATOM      5  C   UNL     1      -2.343   1.314  -0.250  0.00  0.00    +0.002 A 
ATOM      6  C   UNL     1      -1.131   1.937  -0.512  0.00  0.00    +0.002 A 
ATOM      7  C   UNL     1       0.032   1.221  -0.516  0.00  0.00    +0.030 A 
ATOM      8  C   UNL     1       0.009  -0.156  -0.254  0.00  0.00    +0.090 A 
ATOM      9  N   UNL     1       1.159  -0.862  -0.257  0.00  0.00    -0.225 NA
ATOM     10  C   UNL     1       1.161  -2.148  -0.016  0.00  0.00    +0.187 A 
ATOM     11  C   UNL     1      -0.106  -2.848   0.273  0.00  0.00    +0.292 A 
ATOM     12  O   UNL     1      -0.112  -4.043   0.503  0.00  0.00    -0.264 OA
ATOM     13  N   UNL     1       2.352  -2.852  -0.025  0.00  0.00    -0.311 N 
ATOM     14  C   UNL     1       3.636  -2.147  -0.131  0.00  0.00    +0.107 C 
ATOM     15  C   UNL     1       4.429  -2.739  -1.300  0.00  0.00    +0.031 C 
ATOM     16  C   UNL     1       4.556  -4.253  -1.110  0.00  0.00    +0.078 C 
ATOM     17  C   UNL     1       3.163  -4.886  -1.100  0.00  0.00    +0.031 C 
ATOM     18  C   UNL     1       2.356  -4.317   0.077  0.00  0.00    +0.107 C 
ENDROOT
BRANCH  16  19
ATOM     19  C   UNL     1       5.365  -4.835  -2.240  0.00  0.00    +0.216 C 
ATOM     20  O   UNL     1       5.797  -4.111  -3.112  0.00  0.00    -0.276 OA
ATOM     21  N   UNL     1       5.608  -6.160  -2.283  0.00  0.00    -0.315 N 
ATOM     22  H   UNL     1       5.263  -6.739  -1.585  0.00  0.00    +0.149 HD
BRANCH  21  23
ATOM     23  C   UNL     1       6.394  -6.725  -3.382  0.00  0.00    +0.102 C 
BRANCH  23  24
ATOM     24  C   UNL     1       6.522  -8.238  -3.192  0.00  0.00    +0.000 C 
BRANCH  24  25
ATOM     25  C   UNL     1       7.343  -8.829  -4.340  0.00  0.00    -0.077 C 
BRANCH  25  26
ATOM     26  N   UNL     1       7.465 -10.281  -4.158  0.00  0.00    +0.380 N 
ATOM     27  C   UNL     1       6.138 -10.902  -4.269  0.00  0.00    -0.096 C 
ATOM     28  H   UNL     1       7.851 -10.475  -3.246  0.00  0.00    -0.082 HD
BRANCH  26  29
ATOM     29  C   UNL     1       8.351 -10.832  -5.192  0.00  0.00    -0.069 C 
ATOM     30  C   UNL     1       8.479 -12.345  -5.002  0.00  0.00    -0.015 C 
ATOM     31  C   UNL     1       9.402 -12.918  -6.079  0.00  0.00    -0.002 C 
ATOM     32  C   UNL     1      10.784 -12.271  -5.963  0.00  0.00    -0.000 C 
ATOM     33  C   UNL     1      10.656 -10.759  -6.153  0.00  0.00    -0.002 C 
ATOM     34  C   UNL     1       9.733 -10.185  -5.076  0.00  0.00    -0.015 C 
ENDBRANCH  26  29
ENDBRANCH  25  26
ENDBRANCH  24  25
ENDBRANCH  23  24
ENDBRANCH  21  23
ENDBRANCH  16  19
TORSDOF 6
