REMARK  Name = ZINC08491749
REMARK  9 active torsions:
REMARK  status: ('A' for Active; 'I' for Inactive)
REMARK    1  A    between atoms: C_1  and  C_2
REMARK    2  A    between atoms: C_5  and  C_32
REMARK    3  A    between atoms: C_6  and  C_8
REMARK    4  A    between atoms: C_8  and  C_10
REMARK    5  A    between atoms: C_8  and  N_57
REMARK    6  A    between atoms: C_11  and  N_57
REMARK    7  A    between atoms: C_20  and  N_22
REMARK    8  A    between atoms: N_22  and  S_23
REMARK    9  A    between atoms: S_23  and  C_26
REMARK                            x       y       z     vdW  Elec       q    Type
REMARK                         _______ _______ _______ _____ _____    ______ ____
ROOT
ATOM      1  C   UNL     1       1.693  -2.319  -3.981  0.00  0.00    -0.021 C 
ATOM      2  C   UNL     1       2.368  -2.982  -5.167  0.00  0.00    -0.057 A 
ATOM      3  C   UNL     1       2.227  -2.749  -6.524  0.00  0.00    +0.002 A 
ATOM      4  C   UNL     1       2.959  -3.484  -7.436  0.00  0.00    +0.000 A 
ATOM      5  C   UNL     1       3.836  -4.456  -6.993  0.00  0.00    +0.000 A 
ATOM      6  C   UNL     1       3.979  -4.691  -5.639  0.00  0.00    +0.004 A 
ATOM      7  C   UNL     1       3.245  -3.954  -4.723  0.00  0.00    -0.044 A 
ATOM      8  C   UNL     1       3.219  -4.016  -3.211  0.00  0.00    +0.054 C 
ATOM      9  C   UNL     1       2.567  -2.690  -2.764  0.00  0.00    +0.071 C 
ENDROOT
BRANCH   1  10
ATOM     10  N   UNL     1       1.668  -0.855  -4.163  0.00  0.00    +0.389 N 
ATOM     11  H   UNL     1       2.458  -0.437  -3.658  0.00  0.00    -0.084 HD
ATOM     12  H   UNL     1       1.746  -0.636  -5.163  0.00  0.00    -0.084 HD
BRANCH  10  13
ATOM     13  C   UNL     1       0.406  -0.296  -3.640  0.00  0.00    -0.043 C 
ATOM     14  C   UNL     1      -0.702  -0.474  -4.680  0.00  0.00    -0.009 C 
BRANCH  13  20
ATOM     15  C   UNL     1       2.765   4.024  -4.544  0.00  0.00    +0.044 C 
ATOM     16  C   UNL     1       1.725   3.238  -3.787  0.00  0.00    -0.050 A 
ATOM     17  C   UNL     1       0.946   3.863  -2.831  0.00  0.00    +0.003 A 
ATOM     18  C   UNL     1      -0.007   3.142  -2.137  0.00  0.00    +0.004 A 
ATOM     19  C   UNL     1      -0.182   1.796  -2.399  0.00  0.00    -0.049 A 
ATOM     20  C   UNL     1       0.597   1.171  -3.355  0.00  0.00    -0.058 A 
ATOM     21  C   UNL     1       1.554   1.891  -4.045  0.00  0.00    +0.005 A 
ATOM     22  C   UNL     1      -1.222   1.010  -1.642  0.00  0.00    +0.044 C 
ENDBRANCH  13  20
ENDBRANCH  10  13
ENDBRANCH   1  10
BRANCH   9  23
ATOM     23  N   UNL     1       1.739  -2.893  -1.572  0.00  0.00    -0.188 NA
ATOM     24  H   UNL     1       0.816  -3.175  -1.665  0.00  0.00    +0.148 HD
BRANCH  23  25
ATOM     25  S   UNL     1       2.381  -2.643  -0.066  0.00  0.00    +0.059 S 
ATOM     26  O   UNL     1       3.611  -3.354  -0.026  0.00  0.00    -0.153 OA
ATOM     27  O   UNL     1       1.334  -2.878   0.865  0.00  0.00    -0.153 OA
BRANCH  25  28
ATOM     28  C   UNL     1       2.784  -0.932   0.050  0.00  0.00    +0.105 A 
ATOM     29  C   UNL     1       1.830  -0.024   0.470  0.00  0.00    +0.028 A 
ATOM     30  C   UNL     1       2.147   1.319   0.562  0.00  0.00    +0.002 A 
ATOM     31  C   UNL     1       3.417   1.753   0.234  0.00  0.00    +0.000 A 
ATOM     32  C   UNL     1       4.371   0.846  -0.187  0.00  0.00    +0.002 A 
ATOM     33  C   UNL     1       4.055  -0.497  -0.278  0.00  0.00    +0.028 A 
ENDBRANCH  25  28
ENDBRANCH  23  25
ENDBRANCH   9  23
TORSDOF 6
