REMARK  Name = ZINC06874630
REMARK  11 active torsions:
REMARK  status: ('A' for Active; 'I' for Inactive)
REMARK    1  A    between atoms: C_1  and  C_2
REMARK    2  A    between atoms: C_2  and  C_3
REMARK    3  A    between atoms: C_3  and  N_4
REMARK    4  A    between atoms: N_4  and  C_5
REMARK    5  A    between atoms: C_5  and  C_6
REMARK    6  A    between atoms: C_9  and  C_12
REMARK    7  A    between atoms: C_20  and  C_22
REMARK    8  A    between atoms: C_22  and  C_23
REMARK    9  A    between atoms: C_23  and  C_24
REMARK   10  A    between atoms: C_23  and  C_25
REMARK   11  A    between atoms: C_23  and  C_26
REMARK                            x       y       z     vdW  Elec       q    Type
REMARK                         _______ _______ _______ _____ _____    ______ ____
ROOT
ATOM      1  C   UNL     1      -3.130   1.151  -1.132  0.00  0.00    +0.227 C 
ATOM      2  C   UNL     1      -4.294   0.343  -1.754  0.00  0.00    +0.108 C 
ATOM      3  C   UNL     1      -5.414   1.364  -1.805  0.00  0.00    +0.091 C 
ATOM      4  N   UNL     1      -4.901   2.536  -1.638  0.00  0.00    -0.089 NA
ATOM      5  O   UNL     1      -3.497   2.503  -1.472  0.00  0.00    -0.388 OA
ENDROOT
BRANCH   3   6
ATOM      6  C   UNL     1      -6.846   1.068  -2.010  0.00  0.00    +0.001 A 
ATOM      7  C   UNL     1      -7.779   2.106  -2.037  0.00  0.00    +0.011 A 
ATOM      8  C   UNL     1      -9.115   1.823  -2.229  0.00  0.00    +0.022 A 
ATOM      9  C   UNL     1      -9.533   0.513  -2.395  0.00  0.00    +0.059 A 
ATOM     10  C   UNL     1      -8.611  -0.522  -2.370  0.00  0.00    +0.060 A 
ATOM     11  C   UNL     1      -7.271  -0.251  -2.184  0.00  0.00    +0.031 A 
ATOM     12 CL   UNL     1      -9.144  -2.161  -2.578  0.00  0.00    -0.082 Cl
ATOM     13 CL   UNL     1     -11.217   0.166  -2.635  0.00  0.00    -0.082 Cl
ENDBRANCH   3   6
BRANCH   1  14
ATOM     14  C   UNL     1      -1.794   0.768  -1.771  0.00  0.00    +0.155 C 
BRANCH  14  15
ATOM     15  N   UNL     1      -0.721   1.571  -1.179  0.00  0.00    -0.298 N 
ATOM     16  C   UNL     1      -0.386   2.756  -1.726  0.00  0.00    +0.216 C 
ATOM     17  O   UNL     1      -0.973   3.158  -2.708  0.00  0.00    -0.276 OA
BRANCH  15  18
ATOM     18  C   UNL     1      -0.013   1.086   0.008  0.00  0.00    +0.107 C 
BRANCH  18  20
ATOM     19  C   UNL     1       0.011   1.072   2.506  0.00  0.00    +0.005 C 
ATOM     20  C   UNL     1      -0.729   1.579   1.267  0.00  0.00    +0.016 C 
ENDBRANCH  18  20
ENDBRANCH  15  18
BRANCH  16  21
ATOM     21  C   UNL     1       0.717   3.583  -1.117  0.00  0.00    +0.102 C 
BRANCH  21  22
ATOM     22  C   UNL     1       0.895   4.870  -1.923  0.00  0.00    -0.029 C 
ATOM     23  C   UNL     1      -0.410   5.669  -1.904  0.00  0.00    +0.011 C 
ATOM     24  C   UNL     1       2.015   5.709  -1.305  0.00  0.00    +0.011 C 
ATOM     25  C   UNL     1       1.257   4.521  -3.368  0.00  0.00    +0.011 C 
ENDBRANCH  21  22
ENDBRANCH  16  21
ENDBRANCH  14  15
ENDBRANCH   1  14
TORSDOF 7
