REMARK  Name = ZINC03833026
REMARK  5 active torsions:
REMARK  status: ('A' for Active; 'I' for Inactive)
REMARK    1  A    between atoms: C_6  and  S_7
REMARK    2  A    between atoms: S_7  and  N_10
REMARK    3  A    between atoms: N_10  and  C_11
REMARK    4  A    between atoms: C_14  and  C_20
REMARK    5  A    between atoms: C_16  and  N_17
REMARK                            x       y       z     vdW  Elec       q    Type
REMARK                         _______ _______ _______ _____ _____    ______ ____
ROOT
ATOM      1  C   UNL     1      -1.230   1.649   0.011  0.00  0.00    +0.104 A 
ATOM      2  C   UNL     1      -1.389   2.794  -0.759  0.00  0.00    +0.029 A 
ATOM      3  C   UNL     1      -2.594   3.466  -0.753  0.00  0.00    +0.014 A 
ATOM      4  C   UNL     1      -3.643   3.001   0.019  0.00  0.00    +0.057 A 
ATOM      5  C   UNL     1      -3.489   1.862   0.787  0.00  0.00    +0.047 A 
ATOM      6  C   UNL     1      -2.287   1.181   0.781  0.00  0.00    +0.151 A 
ENDROOT
BRANCH   4   7
ATOM      7  C   UNL     1      -4.958   3.737   0.022  0.00  0.00    +0.417 C 
ATOM      8  F   UNL     1      -4.873   4.848  -0.824  0.00  0.00    -0.166 F 
ATOM      9  F   UNL     1      -5.972   2.885  -0.428  0.00  0.00    -0.166 F 
ATOM     10  F   UNL     1      -5.251   4.163   1.323  0.00  0.00    -0.166 F 
ENDBRANCH   4   7
BRANCH   6  11
ATOM     11  N   UNL     1      -2.124  -0.042   1.598  0.00  0.00    +0.058 N 
ATOM     12  O   UNL     1      -3.052  -0.451   2.273  0.00  0.00    -0.126 OA
ATOM     13  O   UNL     1      -1.062  -0.639   1.597  0.00  0.00    -0.126 OA
ENDBRANCH   6  11
BRANCH   1  14
ATOM     14  N   UNL     1      -0.011   0.966   0.007  0.00  0.00    -0.096 NA
BRANCH  14  15
ATOM     15  S   UNL     1       1.410   1.809  -0.101  0.00  0.00    +0.092 S 
ATOM     16  O   UNL     1       2.458   0.861   0.052  0.00  0.00    -0.148 OA
ATOM     17  O   UNL     1       1.300   2.644  -1.245  0.00  0.00    -0.148 OA
BRANCH  15  23
ATOM     18  C   UNL     1       0.970   4.157   1.220  0.00  0.00    +0.030 A 
ATOM     19  C   UNL     1       1.026   4.994   2.318  0.00  0.00    +0.022 A 
ATOM     20  C   UNL     1       1.614   4.556   3.491  0.00  0.00    +0.041 A 
ATOM     21  C   UNL     1       2.139   3.278   3.567  0.00  0.00    +0.022 A 
ATOM     22  C   UNL     1       2.077   2.440   2.469  0.00  0.00    +0.030 A 
ATOM     23  C   UNL     1       1.490   2.878   1.297  0.00  0.00    +0.110 A 
ATOM     24 CL   UNL     1       1.692   5.609   4.869  0.00  0.00    -0.084 Cl
ENDBRANCH  15  23
ENDBRANCH  14  15
ENDBRANCH   1  14
TORSDOF 5
