REMARK  Name = ZINC63165372
REMARK  7 active torsions:
REMARK  status: ('A' for Active; 'I' for Inactive)
REMARK    1  A    between atoms: C_1  and  C_2
REMARK    2  A    between atoms: C_3  and  C_12
REMARK    3  A    between atoms: C_8  and  C_11
REMARK    4  A    between atoms: C_13  and  C_14
REMARK    5  A    between atoms: N_16  and  C_17
REMARK    6  A    between atoms: C_17  and  C_18
REMARK    7  A    between atoms: C_18  and  C_19
REMARK                            x       y       z     vdW  Elec       q    Type
REMARK                         _______ _______ _______ _____ _____    ______ ____
ROOT
ATOM      1  C   UNL     1      -0.967   0.957  -4.214  0.00  0.00    +0.237 C 
ATOM      2  O   UNL     1      -0.158   0.514  -5.010  0.00  0.00    -0.271 OA
ATOM      3  N   UNL     1      -1.886   1.857  -4.618  0.00  0.00    -0.312 N 
ATOM      4  H   UNL     1      -2.530   2.209  -3.985  0.00  0.00    +0.149 HD
ENDROOT
BRANCH   1   6
ATOM      5  C   UNL     1      -0.016  -0.380  -2.462  0.00  0.00    +0.033 C 
ATOM      6  C   UNL     1      -0.943   0.528  -2.870  0.00  0.00    +0.069 C 
BRANCH   5   9
ATOM      7  C   UNL     1      -0.018   1.503   0.010  0.00  0.00    +0.068 C 
ATOM      8  C   UNL     1       0.002  -0.004   0.002  0.00  0.00    +0.064 A 
ATOM      9  C   UNL     1       0.008  -0.808  -1.117  0.00  0.00    +0.065 A 
ATOM     10  N   UNL     1       0.043  -2.139  -0.662  0.00  0.00    -0.318 N 
ATOM     11  C   UNL     1       0.027  -2.049   0.696  0.00  0.00    +0.170 A 
ATOM     12  N   UNL     1       0.023  -0.792   1.073  0.00  0.00    -0.226 NA
ATOM     13  S   UNL     1       0.008  -3.723   1.305  0.00  0.00    -0.083 S 
ATOM     14  C   UNL     1      -0.374  -4.573  -0.284  0.00  0.00    +0.071 C 
ATOM     15  C   UNL     1       0.102  -3.474  -1.265  0.00  0.00    +0.138 C 
ATOM     16  C   UNL     1      -1.873  -4.844  -0.429  0.00  0.00    +0.021 C 
ENDBRANCH   5   9
ENDBRANCH   1   6
BRANCH   3  17
ATOM     17  C   UNL     1      -1.911   2.301  -6.014  0.00  0.00    +0.109 C 
BRANCH  17  18
ATOM     18  C   UNL     1      -3.041   3.315  -6.205  0.00  0.00    +0.052 C 
BRANCH  18  19
ATOM     19  C   UNL     1      -3.067   3.773  -7.641  0.00  0.00    -0.040 C 
ATOM     20  C   UNL     1      -3.835   3.279  -8.639  0.00  0.00    -0.001 A 
ATOM     21  C   UNL     1      -4.838   2.208  -8.684  0.00  0.00    +0.010 A 
ATOM     22  C   UNL     1      -5.455   1.936  -9.856  0.00  0.00    +0.001 A 
ATOM     23  C   UNL     1      -5.161   2.650 -11.026  0.00  0.00    +0.002 A 
ATOM     24  C   UNL     1      -4.252   3.647 -11.064  0.00  0.00    +0.026 A 
ATOM     25  C   UNL     1      -3.544   4.018  -9.888  0.00  0.00    +0.043 A 
ATOM     26  N   UNL     1      -2.630   4.933  -9.671  0.00  0.00    -0.380 N 
ATOM     27  C   UNL     1      -2.243   4.882  -8.257  0.00  0.00    +0.144 C 
ATOM     28  H   UNL     1      -2.273   5.545 -10.334  0.00  0.00    +0.160 HD
ENDBRANCH  18  19
ENDBRANCH  17  18
ENDBRANCH   3  17
TORSDOF 5
