REMARK  Name = ZINC66703818
REMARK  10 active torsions:
REMARK  status: ('A' for Active; 'I' for Inactive)
REMARK    1  A    between atoms: C_1  and  C_2
REMARK    2  A    between atoms: C_7  and  N_10
REMARK    3  A    between atoms: C_11  and  C_13
REMARK    4  A    between atoms: C_13  and  N_14
REMARK    5  A    between atoms: N_22  and  C_23
REMARK    6  A    between atoms: C_23  and  C_24
REMARK    7  A    between atoms: C_24  and  C_26
REMARK    8  A    between atoms: C_24  and  N_27
REMARK    9  A    between atoms: N_27  and  C_28
REMARK   10  A    between atoms: N_27  and  C_29
REMARK                            x       y       z     vdW  Elec       q    Type
REMARK                         _______ _______ _______ _____ _____    ______ ____
ROOT
ATOM      1  N   UNL     1       1.363  -5.553   4.009  0.00  0.00    -0.291 NA
ATOM      2  C   UNL     1       1.731  -6.567   3.012  0.00  0.00    +0.104 C 
ATOM      3  C   UNL     1       1.115  -7.913   3.406  0.00  0.00    +0.124 C 
ATOM      4  N   UNL     1       1.517  -8.224   4.787  0.00  0.00    -0.283 N 
ATOM      5  C   UNL     1       1.305  -7.199   5.820  0.00  0.00    +0.124 C 
ATOM      6  C   UNL     1       1.913  -5.881   5.331  0.00  0.00    +0.104 C 
ATOM      7  C   UNL     1       2.064  -9.416   5.096  0.00  0.00    +0.302 C 
ATOM      8  O   UNL     1       2.475  -9.622   6.221  0.00  0.00    -0.253 OA
ATOM      9  N   UNL     1       2.154 -10.380   4.159  0.00  0.00    -0.301 N 
ATOM     10  H   UNL     1       1.892 -10.193   3.244  0.00  0.00    +0.150 HD
ENDROOT
BRANCH   1  11
ATOM     11  C   UNL     1       1.789  -4.214   3.579  0.00  0.00    +0.180 C 
BRANCH  11  13
ATOM     12  N   UNL     1       1.243  -2.615   1.773  0.00  0.00    -0.311 N 
ATOM     13  C   UNL     1       1.018  -3.812   2.348  0.00  0.00    +0.227 C 
ATOM     14  O   UNL     1       0.196  -4.568   1.875  0.00  0.00    -0.274 OA
ATOM     15  H   UNL     1       1.901  -2.011   2.151  0.00  0.00    +0.149 HD
BRANCH  12  21
ATOM     16  C   UNL     1      -0.397   1.235  -0.860  0.00  0.00    +0.007 C 
ATOM     17  C   UNL     1      -0.343  -0.291  -0.767  0.00  0.00    -0.012 C 
ATOM     18  C   UNL     1       0.351  -0.854  -2.009  0.00  0.00    +0.003 C 
ATOM     19  C   UNL     1       0.406  -2.380  -1.916  0.00  0.00    +0.002 C 
ATOM     20  C   UNL     1       1.188  -2.787  -0.666  0.00  0.00    +0.022 C 
ATOM     21  C   UNL     1       0.494  -2.225   0.576  0.00  0.00    +0.073 C 
ATOM     22  C   UNL     1       0.440  -0.698   0.483  0.00  0.00    +0.025 C 
ENDBRANCH  12  21
ENDBRANCH  11  13
ENDBRANCH   1  11
BRANCH   9  23
ATOM     23  C   UNL     1       2.648 -11.711   4.521  0.00  0.00    +0.090 C 
BRANCH  23  24
ATOM     24  C   UNL     1       2.765 -12.572   3.262  0.00  0.00    -0.054 C 
ATOM     25  C   UNL     1       3.213 -13.983   3.649  0.00  0.00    -0.012 C 
BRANCH  24  26
ATOM     26  N   UNL     1       1.459 -12.639   2.592  0.00  0.00    +0.382 N 
ATOM     27  C   UNL     1       1.567 -13.483   1.394  0.00  0.00    -0.095 C 
ATOM     28  H   UNL     1       1.171 -11.710   2.324  0.00  0.00    -0.081 HD
BRANCH  26  29
ATOM     29  C   UNL     1       0.467 -13.215   3.509  0.00  0.00    -0.069 C 
ATOM     30  C   UNL     1      -0.636 -12.290   4.027  0.00  0.00    -0.017 C 
ATOM     31  C   UNL     1      -0.965 -13.369   2.994  0.00  0.00    -0.017 C 
ENDBRANCH  26  29
ENDBRANCH  24  26
ENDBRANCH  23  24
ENDBRANCH   9  23
TORSDOF 7
