REMARK  Name = ZINC20531512
REMARK  10 active torsions:
REMARK  status: ('A' for Active; 'I' for Inactive)
REMARK    1  A    between atoms: C_1  and  S_2
REMARK    2  A    between atoms: S_2  and  C_5
REMARK    3  A    between atoms: C_5  and  C_6
REMARK    4  A    between atoms: C_6  and  C_7
REMARK    5  A    between atoms: C_7  and  C_9
REMARK    6  A    between atoms: C_7  and  N_27
REMARK    7  A    between atoms: N_11  and  C_12
REMARK    8  A    between atoms: C_12  and  C_13
REMARK    9  A    between atoms: N_16  and  C_19
REMARK   10  A    between atoms: C_19  and  C_20
REMARK                            x       y       z     vdW  Elec       q    Type
REMARK                         _______ _______ _______ _____ _____    ______ ____
ROOT
ATOM      1  C   UNL     1       5.369   1.672   1.192  0.00  0.00    +0.234 C 
ATOM      2  O   UNL     1       4.577   1.227   1.995  0.00  0.00    -0.274 OA
ATOM      3  N   UNL     1       6.692   1.514   1.392  0.00  0.00    -0.314 N 
ATOM      4  H   UNL     1       7.411   1.918   0.663  0.00  0.00    +0.149 HD
ENDROOT
BRANCH   1   5
ATOM      5  C   UNL     1       4.873   2.401  -0.030  0.00  0.00    +0.164 C 
BRANCH   5   6
ATOM      6  N   UNL     1       3.409   2.438  -0.017  0.00  0.00    -0.282 N 
ATOM      7  C   UNL     1       2.585   3.652  -0.003  0.00  0.00    +0.144 C 
ATOM      8  C   UNL     1       1.150   3.188   0.008  0.00  0.00    -0.018 A 
ATOM      9  C   UNL     1      -0.055   3.852   0.023  0.00  0.00    +0.006 A 
ATOM     10  C   UNL     1      -1.240   3.135   0.030  0.00  0.00    +0.000 A 
ATOM     11  C   UNL     1      -1.215   1.751   0.017  0.00  0.00    +0.001 A 
ATOM     12  C   UNL     1      -0.013   1.076   0.008  0.00  0.00    +0.013 A 
ATOM     13  C   UNL     1       1.186   1.792   0.000  0.00  0.00    +0.042 A 
ATOM     14  C   UNL     1       2.598   1.366  -0.015  0.00  0.00    +0.248 C 
ATOM     15  O   UNL     1       2.975   0.210  -0.025  0.00  0.00    -0.270 OA
ENDBRANCH   5   6
BRANCH   5  16
ATOM     16  C   UNL     1       5.353   1.673  -1.288  0.00  0.00    +0.054 C 
BRANCH  16  17
ATOM     17  C   UNL     1       4.957   2.480  -2.526  0.00  0.00    +0.168 C 
BRANCH  17  19
ATOM     18  C   UNL     1       4.970   2.713  -5.351  0.00  0.00    +0.194 C 
ATOM     19  S   UNL     1       5.526   1.617  -4.017  0.00  0.00    -0.034 S 
ATOM     20  O   UNL     1       6.947   1.600  -4.012  0.00  0.00    -0.175 OA
ATOM     21  O   UNL     1       4.821   0.388  -4.122  0.00  0.00    -0.175 OA
ENDBRANCH  17  19
ENDBRANCH  16  17
ENDBRANCH   5  16
ENDBRANCH   1   5
BRANCH   3  22
ATOM     22  C   UNL     1       7.174   0.806   2.580  0.00  0.00    +0.107 C 
BRANCH  22  23
ATOM     23  C   UNL     1       8.703   0.767   2.566  0.00  0.00    +0.003 C 
ATOM     24  C   UNL     1       9.183  -0.074   1.380  0.00  0.00    -0.014 C 
ATOM     25  C   UNL     1      10.710  -0.160   1.406  0.00  0.00    -0.078 C 
ATOM     26  N   UNL     1      11.146  -0.769   2.669  0.00  0.00    +0.382 N 
ATOM     27  C   UNL     1      10.738   0.046   3.820  0.00  0.00    -0.078 C 
ATOM     28  C   UNL     1       9.211   0.138   3.866  0.00  0.00    -0.014 C 
ATOM     29  H   UNL     1      10.651  -1.747   2.758  0.00  0.00    -0.081 HD
BRANCH  26  30
ATOM     30  C   UNL     1      12.598  -0.994   2.671  0.00  0.00    -0.043 C 
BRANCH  30  31
ATOM     31  C   UNL     1      12.948  -2.026   1.630  0.00  0.00    -0.064 A 
ATOM     32  C   UNL     1      12.978  -3.366   1.968  0.00  0.00    +0.004 A 
ATOM     33  C   UNL     1      13.295  -4.313   1.012  0.00  0.00    +0.038 A 
ATOM     34  C   UNL     1      13.592  -3.918  -0.281  0.00  0.00    +0.123 A 
ATOM     35  C   UNL     1      13.566  -2.575  -0.617  0.00  0.00    +0.038 A 
ATOM     36  C   UNL     1      13.245  -1.630   0.339  0.00  0.00    +0.004 A 
ATOM     37  F   UNL     1      13.906  -4.843  -1.215  0.00  0.00    -0.205 F 
ENDBRANCH  30  31
ENDBRANCH  26  30
ENDBRANCH  22  23
ENDBRANCH   3  22
TORSDOF 9
