REMARK  Name = ZINC09459295
REMARK  9 active torsions:
REMARK  status: ('A' for Active; 'I' for Inactive)
REMARK    1  A    between atoms: C_1  and  C_2
REMARK    2  A    between atoms: C_2  and  C_4
REMARK    3  A    between atoms: C_2  and  N_12
REMARK    4  A    between atoms: C_4  and  C_5
REMARK    5  A    between atoms: C_5  and  C_6
REMARK    6  A    between atoms: C_13  and  C_15
REMARK    7  A    between atoms: N_26  and  N_29
REMARK    8  A    between atoms: C_27  and  N_28
REMARK    9  A    between atoms: C_30  and  C_31
REMARK                            x       y       z     vdW  Elec       q    Type
REMARK                         _______ _______ _______ _____ _____    ______ ____
ROOT
ATOM      1  C   UNL     1      -2.459   1.353  -2.813  0.00  0.00    +0.105 A 
ATOM      2  C   UNL     1      -2.155   1.024  -4.216  0.00  0.00    +0.124 A 
ATOM      3  C   UNL     1      -3.148   1.754  -5.010  0.00  0.00    +0.183 A 
ATOM      4  N   UNL     1      -3.130   1.652  -6.322  0.00  0.00    -0.224 NA
ATOM      5  C   UNL     1      -2.212   0.880  -6.918  0.00  0.00    +0.092 A 
ATOM      6  C   UNL     1      -2.185   0.764  -8.320  0.00  0.00    +0.030 A 
ATOM      7  C   UNL     1      -1.249  -0.022  -8.917  0.00  0.00    +0.002 A 
ATOM      8  C   UNL     1      -0.310  -0.721  -8.159  0.00  0.00    +0.002 A 
ATOM      9  C   UNL     1      -0.305  -0.634  -6.801  0.00  0.00    +0.030 A 
ATOM     10  C   UNL     1      -1.257   0.170  -6.147  0.00  0.00    +0.090 A 
ATOM     11  N   UNL     1      -1.261   0.262  -4.812  0.00  0.00    -0.241 NA
ATOM     12  N   UNL     1      -3.945   2.449  -4.120  0.00  0.00    -0.198 N 
ATOM     13  C   UNL     1      -3.548   2.218  -2.837  0.00  0.00    +0.134 A 
ENDROOT
BRANCH   1  15
ATOM     14  N   UNL     1      -0.721   1.571  -1.179  0.00  0.00    -0.309 N 
ATOM     15  C   UNL     1      -1.773   0.883  -1.664  0.00  0.00    +0.250 C 
ATOM     16  O   UNL     1      -2.135  -0.143  -1.116  0.00  0.00    -0.270 OA
ATOM     17  H   UNL     1      -0.433   2.388  -1.615  0.00  0.00    +0.149 HD
BRANCH  14  19
ATOM     18  C   UNL     1      -0.729   1.579   1.267  0.00  0.00    +0.028 C 
ATOM     19  C   UNL     1      -0.013   1.086   0.008  0.00  0.00    +0.070 C 
BRANCH  19  20
ATOM     20  C   UNL     1       1.423   1.615  -0.003  0.00  0.00    +0.026 C 
BRANCH  20  21
ATOM     21  C   UNL     1       2.176   1.022  -1.195  0.00  0.00    +0.037 C 
BRANCH  21  22
ATOM     22  C   UNL     1       3.590   1.544  -1.206  0.00  0.00    -0.047 A 
ATOM     23  C   UNL     1       3.894   2.704  -1.894  0.00  0.00    +0.003 A 
ATOM     24  C   UNL     1       5.189   3.185  -1.899  0.00  0.00    +0.000 A 
ATOM     25  C   UNL     1       6.184   2.500  -1.226  0.00  0.00    +0.000 A 
ATOM     26  C   UNL     1       5.881   1.337  -0.542  0.00  0.00    +0.000 A 
ATOM     27  C   UNL     1       4.584   0.859  -0.532  0.00  0.00    +0.003 A 
ENDBRANCH  21  22
ENDBRANCH  20  21
ENDBRANCH  19  20
ENDBRANCH  14  19
ENDBRANCH   1  15
BRANCH  13  28
ATOM     28  N   UNL     1      -4.138   2.763  -1.725  0.00  0.00    -0.342 N 
ATOM     29  H   UNL     1      -3.798   2.550  -0.842  0.00  0.00    +0.144 HD
ATOM     30  H   UNL     1      -4.896   3.361  -1.822  0.00  0.00    +0.144 HD
ENDBRANCH  13  28
BRANCH  12  31
ATOM     31  N   UNL     1      -5.014   3.277  -4.487  0.00  0.00    -0.171 NA
ATOM     32  C   UNL     1      -4.809   4.538  -4.715  0.00  0.00    +0.141 C 
BRANCH  32  33
ATOM     33  C   UNL     1      -5.934   5.410  -5.101  0.00  0.00    -0.005 A 
ATOM     34  C   UNL     1      -7.221   4.880  -5.227  0.00  0.00    +0.012 A 
ATOM     35  C   UNL     1      -8.270   5.701  -5.583  0.00  0.00    +0.039 A 
ATOM     36  C   UNL     1      -8.048   7.047  -5.825  0.00  0.00    +0.123 A 
ATOM     37  C   UNL     1      -6.773   7.578  -5.707  0.00  0.00    +0.039 A 
ATOM     38  C   UNL     1      -5.717   6.768  -5.347  0.00  0.00    +0.012 A 
ATOM     39  F   UNL     1      -9.079   7.846  -6.179  0.00  0.00    -0.205 F 
ENDBRANCH  32  33
ENDBRANCH  12  31
TORSDOF 8
