REMARK  Name = ZINC59913665
REMARK  11 active torsions:
REMARK  status: ('A' for Active; 'I' for Inactive)
REMARK    1  A    between atoms: C_1  and  C_2
REMARK    2  A    between atoms: C_2  and  C_3
REMARK    3  A    between atoms: C_2  and  C_4
REMARK    4  A    between atoms: C_7  and  S_10
REMARK    5  A    between atoms: N_8  and  N_9
REMARK    6  A    between atoms: S_10  and  C_11
REMARK    7  A    between atoms: C_11  and  C_12
REMARK    8  A    between atoms: C_12  and  C_13
REMARK    9  A    between atoms: N_15  and  C_16
REMARK   10  A    between atoms: C_19  and  S_22
REMARK   11  A    between atoms: S_22  and  N_25
REMARK                            x       y       z     vdW  Elec       q    Type
REMARK                         _______ _______ _______ _____ _____    ______ ____
ROOT
ATOM      1  C   UNL     1     -10.566  -3.501   0.544  0.00  0.00    +0.033 A 
ATOM      2  C   UNL     1     -10.472  -2.665   1.649  0.00  0.00    +0.025 A 
ATOM      3  C   UNL     1     -11.573  -2.469   2.460  0.00  0.00    +0.030 A 
ATOM      4  C   UNL     1     -12.767  -3.105   2.173  0.00  0.00    +0.106 A 
ATOM      5  C   UNL     1     -12.863  -3.938   1.073  0.00  0.00    +0.030 A 
ATOM      6  C   UNL     1     -11.768  -4.133   0.255  0.00  0.00    +0.025 A 
ENDROOT
BRANCH   1   9
ATOM      7  C   UNL     1      -9.616  -3.855  -1.608  0.00  0.00    +0.218 C 
ATOM      8  O   UNL     1     -10.732  -3.905  -2.080  0.00  0.00    -0.275 OA
ATOM      9  N   UNL     1      -9.452  -3.701  -0.280  0.00  0.00    -0.285 N 
ATOM     10  H   UNL     1      -8.562  -3.728   0.106  0.00  0.00    +0.155 HD
BRANCH   7  11
ATOM     11  C   UNL     1      -8.412  -3.966  -2.508  0.00  0.00    +0.107 C 
BRANCH  11  12
ATOM     12  C   UNL     1      -8.872  -4.133  -3.958  0.00  0.00    +0.086 C 
BRANCH  12  13
ATOM     13  S   UNL     1      -7.423  -4.267  -5.040  0.00  0.00    -0.084 S 
BRANCH  13  17
ATOM     14  C   UNL     1      -8.363  -4.702  -8.801  0.00  0.00    +0.154 A 
ATOM     15  N   UNL     1      -9.530  -4.629  -8.226  0.00  0.00    -0.132 NA
ATOM     16  N   UNL     1      -9.387  -4.481  -6.957  0.00  0.00    -0.121 NA
ATOM     17  C   UNL     1      -8.111  -4.452  -6.652  0.00  0.00    +0.208 A 
ATOM     18  N   UNL     1      -7.417  -4.598  -7.819  0.00  0.00    -0.228 N 
BRANCH  14  20
ATOM     19  C   UNL     1      -8.739  -6.184 -10.754  0.00  0.00    +0.015 C 
ATOM     20  C   UNL     1      -8.104  -4.877 -10.276  0.00  0.00    +0.052 C 
ATOM     21  C   UNL     1      -8.713  -3.703 -11.043  0.00  0.00    +0.015 C 
ENDBRANCH  14  20
BRANCH  18  22
ATOM     22  N   UNL     1      -6.060  -4.629  -7.973  0.00  0.00    -0.295 N 
ATOM     23  H   UNL     1      -5.692  -3.702  -8.123  0.00  0.00    +0.163 HD
ATOM     24  H   UNL     1      -5.617  -5.072  -7.183  0.00  0.00    +0.163 HD
ENDBRANCH  18  22
ENDBRANCH  13  17
ENDBRANCH  12  13
ENDBRANCH  11  12
ENDBRANCH   7  11
ENDBRANCH   1   9
BRANCH   4  25
ATOM     25  S   UNL     1     -14.169  -2.853   3.210  0.00  0.00    +0.061 S 
ATOM     26  O   UNL     1     -15.010  -3.986   3.039  0.00  0.00    -0.153 OA
ATOM     27  O   UNL     1     -13.669  -2.460   4.480  0.00  0.00    -0.153 OA
BRANCH  25  28
ATOM     28  N   UNL     1     -14.998  -1.553   2.605  0.00  0.00    -0.172 NA
ATOM     29  C   UNL     1     -14.700  -0.181   3.049  0.00  0.00    +0.114 C 
ATOM     30  C   UNL     1     -14.169   0.597   1.845  0.00  0.00    +0.052 C 
ATOM     31  C   UNL     1     -15.046   0.383   0.640  0.00  0.00    -0.042 A 
ATOM     32  C   UNL     1     -14.970   1.318  -0.386  0.00  0.00    +0.004 A 
ATOM     33  C   UNL     1     -15.739   1.177  -1.522  0.00  0.00    +0.000 A 
ATOM     34  C   UNL     1     -16.592   0.096  -1.645  0.00  0.00    +0.000 A 
ATOM     35  C   UNL     1     -16.672  -0.832  -0.627  0.00  0.00    +0.005 A 
ATOM     36  C   UNL     1     -15.903  -0.687   0.520  0.00  0.00    -0.028 A 
ATOM     37  C   UNL     1     -16.054  -1.722   1.601  0.00  0.00    +0.144 C 
ENDBRANCH  25  28
ENDBRANCH   4  25
TORSDOF 9
