REMARK  Name = ZINC03353191
REMARK  8 active torsions:
REMARK  status: ('A' for Active; 'I' for Inactive)
REMARK    1  A    between atoms: C_1  and  C_2
REMARK    2  A    between atoms: C_2  and  C_3
REMARK    3  A    between atoms: C_2  and  C_4
REMARK    4  A    between atoms: C_4  and  C_5
REMARK    5  A    between atoms: C_5  and  C_7
REMARK    6  A    between atoms: C_5  and  N_16
REMARK    7  A    between atoms: N_9  and  C_10
REMARK    8  A    between atoms: C_10  and  C_11
REMARK                            x       y       z     vdW  Elec       q    Type
REMARK                         _______ _______ _______ _____ _____    ______ ____
ROOT
ATOM      1  C   UNL     1      -1.097   2.161   0.030  0.00  0.00    +0.170 C 
ENDROOT
BRANCH   1   2
ATOM      2  N   UNL     1       0.208   1.498   0.063  0.00  0.00    -0.222 N 
ATOM      3  C   UNL     1       1.377   2.129   0.275  0.00  0.00    +0.254 C 
ATOM      4  O   UNL     1       1.515   3.320   0.470  0.00  0.00    -0.270 OA
ATOM      5  C   UNL     1       2.466   1.130   0.230  0.00  0.00    +0.049 A 
ATOM      6  C   UNL     1       3.843   1.193   0.376  0.00  0.00    +0.014 A 
ATOM      7  C   UNL     1       4.598   0.035   0.273  0.00  0.00    +0.001 A 
ATOM      8  C   UNL     1       3.987  -1.181   0.026  0.00  0.00    +0.001 A 
ATOM      9  C   UNL     1       2.611  -1.258  -0.121  0.00  0.00    +0.014 A 
ATOM     10  C   UNL     1       1.843  -0.109  -0.021  0.00  0.00    +0.049 A 
ATOM     11  C   UNL     1       0.397   0.179  -0.120  0.00  0.00    +0.254 C 
ATOM     12  O   UNL     1      -0.475  -0.640  -0.331  0.00  0.00    -0.270 OA
ENDBRANCH   1   2
BRANCH   1  13
ATOM     13  C   UNL     1      -1.147   3.114  -1.136  0.00  0.00    +0.234 C 
ATOM     14  O   UNL     1      -0.187   3.228  -1.867  0.00  0.00    -0.274 OA
ATOM     15  N   UNL     1      -2.260   3.840  -1.366  0.00  0.00    -0.307 N 
ATOM     16  H   UNL     1      -3.028   3.749  -0.781  0.00  0.00    +0.149 HD
BRANCH  15  17
ATOM     17  C   UNL     1      -2.308   4.766  -2.500  0.00  0.00    +0.178 C 
BRANCH  17  18
ATOM     18  C   UNL     1      -3.651   5.449  -2.534  0.00  0.00    +0.122 A 
ATOM     19  C   UNL     1      -3.963   6.602  -1.917  0.00  0.00    +0.046 A 
ATOM     20  C   UNL     1      -5.319   6.872  -2.214  0.00  0.00    +0.041 A 
ATOM     21  C   UNL     1      -5.754   5.867  -2.995  0.00  0.00    +0.195 A 
ATOM     22  O   UNL     1      -4.738   5.011  -3.191  0.00  0.00    -0.466 OA
ENDBRANCH  17  18
ENDBRANCH  15  17
ENDBRANCH   1  13
BRANCH   1  23
ATOM     23  C   UNL     1      -1.309   2.937   1.332  0.00  0.00    +0.035 C 
BRANCH  23  25
ATOM     24  C   UNL     1      -1.424   2.742   3.820  0.00  0.00    +0.007 C 
ATOM     25  C   UNL     1      -1.344   1.959   2.508  0.00  0.00    -0.015 C 
ATOM     26  C   UNL     1      -2.569   1.051   2.381  0.00  0.00    +0.007 C 
ENDBRANCH  23  25
ENDBRANCH   1  23
TORSDOF 6
