REMARK  Name = ZINC39766614
REMARK  11 active torsions:
REMARK  status: ('A' for Active; 'I' for Inactive)
REMARK    1  A    between atoms: C_1  and  C_2
REMARK    2  A    between atoms: C_2  and  C_4
REMARK    3  A    between atoms: C_2  and  N_28
REMARK    4  A    between atoms: C_7  and  S_12
REMARK    5  A    between atoms: N_8  and  C_9
REMARK    6  A    between atoms: C_9  and  C_10
REMARK    7  A    between atoms: S_12  and  C_13
REMARK    8  A    between atoms: C_13  and  C_15
REMARK    9  A    between atoms: C_13  and  C_16
REMARK   10  A    between atoms: N_18  and  C_19
REMARK   11  A    between atoms: C_29  and  C_31
REMARK                            x       y       z     vdW  Elec       q    Type
REMARK                         _______ _______ _______ _____ _____    ______ ____
ROOT
ATOM      1  C   UNL     1      -1.304  -0.963   0.066  0.00  0.00    +0.155 A 
ATOM      2  N   UNL     1      -2.148  -0.793   1.044  0.00  0.00    -0.132 NA
ATOM      3  N   UNL     1      -3.298  -1.268   0.721  0.00  0.00    -0.122 NA
ATOM      4  C   UNL     1      -3.249  -1.770  -0.491  0.00  0.00    +0.193 A 
ATOM      5  N   UNL     1      -1.976  -1.586  -0.949  0.00  0.00    -0.301 N 
ENDROOT
BRANCH   1   7
ATOM      6  C   UNL     1       0.234   0.974  -0.127  0.00  0.00    +0.036 C 
ATOM      7  C   UNL     1       0.144  -0.543   0.052  0.00  0.00    +0.138 C 
BRANCH   7   8
ATOM      8  N   UNL     1       0.774  -0.923   1.319  0.00  0.00    -0.302 N 
ATOM      9  C   UNL     1       2.105  -1.126   1.376  0.00  0.00    +0.245 C 
ATOM     10  O   UNL     1       2.783  -0.992   0.376  0.00  0.00    -0.270 OA
ATOM     11  H   UNL     1       0.233  -1.030   2.117  0.00  0.00    +0.150 HD
BRANCH   9  12
ATOM     12  C   UNL     1       2.740  -1.509   2.654  0.00  0.00    +0.037 A 
ATOM     13  C   UNL     1       1.964  -1.669   3.803  0.00  0.00    +0.014 A 
ATOM     14  C   UNL     1       2.562  -2.027   4.992  0.00  0.00    +0.021 A 
ATOM     15  C   UNL     1       3.932  -2.229   5.048  0.00  0.00    +0.041 A 
ATOM     16  C   UNL     1       4.707  -2.072   3.912  0.00  0.00    +0.021 A 
ATOM     17  C   UNL     1       4.119  -1.719   2.715  0.00  0.00    +0.014 A 
ATOM     18 CL   UNL     1       4.678  -2.679   6.549  0.00  0.00    -0.084 Cl
ENDBRANCH   9  12
ENDBRANCH   7   8
ENDBRANCH   1   7
BRANCH   5  19
ATOM     19  C   UNL     1      -1.440  -1.978  -2.255  0.00  0.00    +0.152 C 
BRANCH  19  20
ATOM     20  C   UNL     1      -0.886  -3.377  -2.171  0.00  0.00    -0.013 C 
ATOM     21  C   UNL     1      -1.308  -4.300  -3.000  0.00  0.00    +0.005 C 
ENDBRANCH  19  20
ENDBRANCH   5  19
BRANCH   4  22
ATOM     22  S   UNL     1      -4.577  -2.531  -1.364  0.00  0.00    -0.074 S 
BRANCH  22  23
ATOM     23  C   UNL     1      -5.970  -2.445  -0.206  0.00  0.00    +0.137 C 
ATOM     24  C   UNL     1      -5.665  -3.303   1.023  0.00  0.00    +0.029 C 
BRANCH  23  25
ATOM     25  C   UNL     1      -7.217  -2.958  -0.880  0.00  0.00    +0.230 C 
ATOM     26  O   UNL     1      -7.129  -3.737  -1.805  0.00  0.00    -0.274 OA
ATOM     27  N   UNL     1      -8.429  -2.550  -0.455  0.00  0.00    -0.284 N 
ATOM     28  H   UNL     1      -8.504  -1.988   0.332  0.00  0.00    +0.155 HD
BRANCH  27  29
ATOM     29  C   UNL     1      -9.582  -2.939  -1.150  0.00  0.00    +0.037 A 
ATOM     30  C   UNL     1     -10.769  -3.152  -0.462  0.00  0.00    +0.027 A 
ATOM     31  C   UNL     1     -11.906  -3.535  -1.146  0.00  0.00    +0.051 A 
ATOM     32  C   UNL     1     -11.867  -3.708  -2.520  0.00  0.00    +0.166 A 
ATOM     33  C   UNL     1     -10.678  -3.494  -3.213  0.00  0.00    +0.168 A 
ATOM     34  C   UNL     1      -9.539  -3.105  -2.528  0.00  0.00    +0.072 A 
ATOM     35  O   UNL     1     -10.898  -3.728  -4.540  0.00  0.00    -0.453 OA
ATOM     36  C   UNL     1     -12.124  -4.481  -4.600  0.00  0.00    +0.466 C 
ATOM     37  O   UNL     1     -12.832  -4.075  -3.414  0.00  0.00    -0.453 OA
ENDBRANCH  27  29
ENDBRANCH  23  25
ENDBRANCH  22  23
ENDBRANCH   4  22
TORSDOF 9
