REMARK  Name = ZINC28661775
REMARK  7 active torsions:
REMARK  status: ('A' for Active; 'I' for Inactive)
REMARK    1  A    between atoms: C_1  and  C_2
REMARK    2  A    between atoms: C_4  and  C_27
REMARK    3  A    between atoms: C_7  and  C_12
REMARK    4  A    between atoms: C_12  and  O_14
REMARK    5  A    between atoms: O_14  and  C_15
REMARK    6  A    between atoms: C_15  and  C_16
REMARK    7  A    between atoms: C_24  and  N_26
REMARK                            x       y       z     vdW  Elec       q    Type
REMARK                         _______ _______ _______ _____ _____    ______ ____
ROOT
ATOM      1  O   UNL     1       0.096  -5.556   3.698  0.00  0.00    -0.452 OA
ENDROOT
BRANCH   1   2
ATOM      2  C   UNL     1       0.089  -5.556   2.350  0.00  0.00    +0.356 C 
ATOM      3  O   UNL     1       0.100  -6.609   1.742  0.00  0.00    -0.243 OA
BRANCH   2  10
ATOM      4  C   UNL     1      -0.018   1.503   0.010  0.00  0.00    +0.044 C 
ATOM      5  C   UNL     1       0.002  -0.004   0.002  0.00  0.00    -0.048 A 
ATOM      6  C   UNL     1       0.006  -0.685  -1.209  0.00  0.00    +0.007 A 
ATOM      7  C   UNL     1       0.024  -2.049  -1.239  0.00  0.00    -0.041 A 
ATOM      8  C   UNL     1       0.040  -2.772  -0.039  0.00  0.00    +0.003 A 
ATOM      9  C   UNL     1       0.060  -4.155   0.262  0.00  0.00    +0.043 A 
ATOM     10  C   UNL     1       0.069  -4.284   1.615  0.00  0.00    +0.125 A 
ATOM     11  N   UNL     1       0.055  -3.028   2.190  0.00  0.00    -0.349 N 
ATOM     12  H   UNL     1       0.057  -2.842   3.142  0.00  0.00    +0.166 HD
ATOM     13  C   UNL     1       0.037  -2.084   1.190  0.00  0.00    +0.048 A 
ATOM     14  C   UNL     1       0.023  -0.692   1.194  0.00  0.00    +0.029 A 
ATOM     15  C   UNL     1       0.027  -2.776  -2.559  0.00  0.00    +0.044 C 
ENDBRANCH   2  10
ENDBRANCH   1   2
BRANCH   1  16
ATOM     16  C   UNL     1       0.116  -6.830   4.347  0.00  0.00    +0.308 C 
BRANCH  16  17
ATOM     17  C   UNL     1       0.121  -6.632   5.841  0.00  0.00    +0.169 A 
ATOM     18  N   UNL     1       1.276  -6.530   6.455  0.00  0.00    -0.228 NA
ATOM     19  C   UNL     1       1.326  -6.353   7.784  0.00  0.00    +0.076 A 
ATOM     20  C   UNL     1       2.541  -6.239   8.472  0.00  0.00    +0.028 A 
ATOM     21  C   UNL     1       2.535  -6.060   9.824  0.00  0.00    +0.002 A 
ATOM     22  C   UNL     1       1.339  -5.988  10.532  0.00  0.00    +0.001 A 
ATOM     23  C   UNL     1       0.139  -6.095   9.893  0.00  0.00    +0.013 A 
ATOM     24  C   UNL     1       0.110  -6.279   8.506  0.00  0.00    +0.040 A 
ATOM     25  C   UNL     1      -1.104  -6.397   7.787  0.00  0.00    +0.128 A 
ATOM     26  N   UNL     1      -1.040  -6.564   6.473  0.00  0.00    -0.214 NA
BRANCH  25  27
ATOM     27  N   UNL     1      -2.319  -6.333   8.434  0.00  0.00    -0.343 N 
ATOM     28  H   UNL     1      -2.351  -6.207   9.396  0.00  0.00    +0.144 HD
ATOM     29  H   UNL     1      -3.143  -6.415   7.929  0.00  0.00    +0.144 HD
ENDBRANCH  25  27
ENDBRANCH  16  17
ENDBRANCH   1  16
TORSDOF 5
