REMARK  Name = ZINC34686446
REMARK  12 active torsions:
REMARK  status: ('A' for Active; 'I' for Inactive)
REMARK    1  A    between atoms: C_1  and  C_2
REMARK    2  A    between atoms: C_2  and  C_3
REMARK    3  A    between atoms: C_3  and  C_5
REMARK    4  A    between atoms: C_3  and  O_13
REMARK    5  A    between atoms: N_7  and  C_8
REMARK    6  A    between atoms: C_8  and  C_9
REMARK    7  A    between atoms: C_9  and  N_10
REMARK    8  A    between atoms: N_10  and  C_11
REMARK    9  A    between atoms: N_10  and  C_12
REMARK   10  A    between atoms: O_13  and  C_14
REMARK   11  A    between atoms: C_20  and  C_32
REMARK   12  A    between atoms: C_25  and  C_27
REMARK                            x       y       z     vdW  Elec       q    Type
REMARK                         _______ _______ _______ _____ _____    ______ ____
ROOT
ATOM      1  C   UNL     1       1.922   2.095   1.347  0.00  0.00    +0.122 A 
ATOM      2  C   UNL     1       1.179   3.094   1.961  0.00  0.00    +0.046 A 
ATOM      3  C   UNL     1       1.820   4.176   2.524  0.00  0.00    +0.007 A 
ATOM      4  C   UNL     1       3.206   4.277   2.486  0.00  0.00    -0.040 A 
ATOM      5  C   UNL     1       3.945   3.282   1.885  0.00  0.00    -0.016 A 
ATOM      6  C   UNL     1       3.303   2.192   1.316  0.00  0.00    +0.051 A 
ATOM      7  C   UNL     1       5.452   3.315   1.834  0.00  0.00    +0.137 C 
ATOM      8  N   UNL     1       5.931   4.639   2.243  0.00  0.00    -0.290 N 
ATOM      9  C   UNL     1       5.306   5.248   3.428  0.00  0.00    +0.113 C 
ATOM     10  C   UNL     1       3.833   5.497   3.108  0.00  0.00    +0.054 C 
ATOM     11  C   UNL     1       6.905   5.274   1.560  0.00  0.00    +0.219 C 
ATOM     12  O   UNL     1       7.449   4.722   0.626  0.00  0.00    -0.275 OA
ENDROOT
BRANCH   7  13
ATOM     13  C   UNL     1       5.912   3.027   0.428  0.00  0.00    -0.022 A 
ATOM     14  C   UNL     1       5.656   3.935  -0.582  0.00  0.00    +0.008 A 
ATOM     15  C   UNL     1       6.078   3.672  -1.871  0.00  0.00    +0.038 A 
ATOM     16  C   UNL     1       6.758   2.499  -2.151  0.00  0.00    +0.123 A 
ATOM     17  C   UNL     1       7.015   1.591  -1.138  0.00  0.00    +0.038 A 
ATOM     18  C   UNL     1       6.596   1.858   0.151  0.00  0.00    +0.008 A 
ATOM     19  F   UNL     1       7.171   2.241  -3.411  0.00  0.00    -0.205 F 
ENDBRANCH   7  13
BRANCH  11  20
ATOM     20  C   UNL     1       7.318   6.667   1.956  0.00  0.00    +0.075 C 
ATOM     21  C   UNL     1       6.134   7.640   1.780  0.00  0.00    +0.013 C 
ATOM     22  C   UNL     1       6.789   8.948   1.270  0.00  0.00    +0.001 C 
ATOM     23  C   UNL     1       7.898   8.428   0.323  0.00  0.00    +0.001 C 
ATOM     24  C   UNL     1       8.440   7.168   1.030  0.00  0.00    +0.013 C 
ENDBRANCH  11  20
BRANCH   1  25
ATOM     25  O   UNL     1       1.298   1.027   0.785  0.00  0.00    -0.480 OA
BRANCH  25  26
ATOM     26  C   UNL     1      -0.117   0.936   0.960  0.00  0.00    +0.258 C 
BRANCH  26  27
ATOM     27  C   UNL     1      -0.503  -0.501   1.198  0.00  0.00    +0.254 C 
ATOM     28  O   UNL     1       0.336  -1.374   1.127  0.00  0.00    -0.272 OA
ATOM     29  N   UNL     1      -1.781  -0.816   1.490  0.00  0.00    -0.314 N 
ATOM     30  H   UNL     1      -2.452  -0.118   1.547  0.00  0.00    +0.149 HD
BRANCH  29  31
ATOM     31  C   UNL     1      -2.156  -2.213   1.722  0.00  0.00    +0.086 C 
BRANCH  31  32
ATOM     32  C   UNL     1      -3.652  -2.295   2.032  0.00  0.00    -0.061 C 
BRANCH  32  33
ATOM     33  N   UNL     1      -4.028  -3.696   2.265  0.00  0.00    +0.377 N 
ATOM     34  C   UNL     1      -5.436  -3.762   2.679  0.00  0.00    -0.097 C 
ATOM     35  C   UNL     1      -3.845  -4.464   1.026  0.00  0.00    -0.097 C 
ATOM     36  H   UNL     1      -3.445  -4.084   2.991  0.00  0.00    -0.083 HD
ENDBRANCH  32  33
ENDBRANCH  31  32
ENDBRANCH  29  31
ENDBRANCH  26  27
BRANCH  26  38
ATOM     37  C   UNL     1      -0.528   2.943  -0.471  0.00  0.00    +0.008 C 
ATOM     38  C   UNL     1      -0.820   1.451  -0.298  0.00  0.00    +0.051 C 
ENDBRANCH  26  38
ENDBRANCH  25  26
ENDBRANCH   1  25
TORSDOF 9
