REMARK  Name = ZINC65182330
REMARK  12 active torsions:
REMARK  status: ('A' for Active; 'I' for Inactive)
REMARK    1  A    between atoms: C_1  and  C_2
REMARK    2  A    between atoms: C_2  and  C_3
REMARK    3  A    between atoms: C_6  and  C_34
REMARK    4  A    between atoms: C_11  and  C_13
REMARK    5  A    between atoms: C_16  and  C_19
REMARK    6  A    between atoms: C_19  and  C_20
REMARK    7  A    between atoms: C_20  and  N_21
REMARK    8  A    between atoms: N_21  and  C_22
REMARK    9  A    between atoms: C_23  and  C_25
REMARK   10  A    between atoms: C_28  and  N_31
REMARK   11  A    between atoms: N_31  and  C_32
REMARK   12  A    between atoms: N_31  and  C_33
REMARK                            x       y       z     vdW  Elec       q    Type
REMARK                         _______ _______ _______ _____ _____    ______ ____
ROOT
ATOM      1  C   UNL     1      -0.253  -2.629  -1.676  0.00  0.00    +0.318 C 
ATOM      2  N   UNL     1      -0.062  -4.035  -2.066  0.00  0.00    -0.291 N 
ATOM      3  C   UNL     1      -0.634  -4.804  -1.080  0.00  0.00    +0.139 C 
ATOM      4  N   UNL     1      -1.142  -4.077  -0.152  0.00  0.00    -0.072 NA
ATOM      5  O   UNL     1      -0.960  -2.698  -0.428  0.00  0.00    -0.367 OA
ATOM      6  H   UNL     1       0.383  -4.358  -2.866  0.00  0.00    +0.151 HD
ENDROOT
BRANCH   1  15
ATOM      7  C   UNL     1       0.896  -0.507  -1.044  0.00  0.00    -0.033 C 
ATOM      8  C   UNL     1       1.457   0.266  -2.002  0.00  0.00    -0.000 A 
ATOM      9  C   UNL     1       1.593   1.719  -2.154  0.00  0.00    +0.013 A 
ATOM     10  C   UNL     1       2.219   2.209  -3.248  0.00  0.00    -0.050 A 
ATOM     11  C   UNL     1       2.741   1.365  -4.238  0.00  0.00    +0.005 A 
ATOM     12  C   UNL     1       2.655   0.019  -4.169  0.00  0.00    +0.026 A 
ATOM     13  C   UNL     1       2.017  -0.604  -3.061  0.00  0.00    +0.043 A 
ATOM     14  N   UNL     1       1.810  -1.865  -2.769  0.00  0.00    -0.373 N 
ATOM     15  C   UNL     1       1.099  -1.938  -1.488  0.00  0.00    +0.169 C 
ATOM     16  C   UNL     1       2.360   3.701  -3.408  0.00  0.00    +0.044 C 
ATOM     17  H   UNL     1       2.084  -2.623  -3.309  0.00  0.00    +0.160 HD
BRANCH   7  19
ATOM     18  C   UNL     1       0.230   1.493   0.263  0.00  0.00    +0.008 C 
ATOM     19  C   UNL     1       0.211  -0.036   0.213  0.00  0.00    +0.030 C 
ENDBRANCH   7  19
ENDBRANCH   1  15
BRANCH   3  20
ATOM     20  C   UNL     1      -0.662  -6.310  -1.087  0.00  0.00    +0.094 C 
BRANCH  20  21
ATOM     21  C   UNL     1      -1.380  -6.814   0.167  0.00  0.00    +0.115 C 
BRANCH  21  22
ATOM     22  N   UNL     1      -1.407  -8.278   0.160  0.00  0.00    -0.300 N 
ATOM     23  C   UNL     1      -0.315  -9.034   0.779  0.00  0.00    +0.132 C 
ATOM     24  C   UNL     1      -2.435  -8.931  -0.417  0.00  0.00    +0.246 C 
ATOM     25  O   UNL     1      -3.286  -8.309  -1.023  0.00  0.00    -0.270 OA
BRANCH  24  26
ATOM     26  C   UNL     1      -2.529 -10.399  -0.312  0.00  0.00    +0.037 A 
ATOM     27  C   UNL     1      -2.109 -11.046   0.853  0.00  0.00    +0.015 A 
ATOM     28  C   UNL     1      -2.198 -12.416   0.948  0.00  0.00    +0.024 A 
ATOM     29  C   UNL     1      -2.706 -13.158  -0.116  0.00  0.00    +0.029 A 
ATOM     30  C   UNL     1      -3.125 -12.516  -1.278  0.00  0.00    +0.024 A 
ATOM     31  C   UNL     1      -3.044 -11.145  -1.377  0.00  0.00    +0.015 A 
BRANCH  29  32
ATOM     32  N   UNL     1      -2.794 -14.542  -0.018  0.00  0.00    -0.336 N 
ATOM     33  C   UNL     1      -2.354 -15.219   1.205  0.00  0.00    +0.129 C 
ATOM     34  C   UNL     1      -3.328 -15.323  -1.136  0.00  0.00    +0.129 C 
ENDBRANCH  29  32
ENDBRANCH  24  26
ENDBRANCH  21  22
ENDBRANCH  20  21
ENDBRANCH   3  20
TORSDOF 7
