REMARK  Name = ZINC55501879
REMARK  5 active torsions:
REMARK  status: ('A' for Active; 'I' for Inactive)
REMARK    1  A    between atoms: C_1  and  C_2
REMARK    2  A    between atoms: C_2  and  C_3
REMARK    3  A    between atoms: C_2  and  C_4
REMARK    4  A    between atoms: C_4  and  C_5
REMARK    5  A    between atoms: C_14  and  C_16
REMARK                            x       y       z     vdW  Elec       q    Type
REMARK                         _______ _______ _______ _____ _____    ______ ____
ROOT
ATOM      1  C   UNL     1       2.165  -0.079  -1.208  0.00  0.00    -0.026 A 
ATOM      2  C   UNL     1       2.566   1.054  -1.809  0.00  0.00    +0.051 A 
ATOM      3  S   UNL     1       4.316   1.103  -1.473  0.00  0.00    -0.077 S 
ATOM      4  C   UNL     1       4.459  -0.398  -0.537  0.00  0.00    +0.116 A 
ATOM      5  C   UNL     1       3.140  -0.892  -0.507  0.00  0.00    +0.075 A 
ATOM      6  C   UNL     1       2.952  -2.123   0.204  0.00  0.00    +0.260 A 
ATOM      7  O   UNL     1       1.846  -2.630   0.280  0.00  0.00    -0.267 OA
ATOM      8  N   UNL     1       4.014  -2.711   0.786  0.00  0.00    -0.306 N 
ATOM      9  H   UNL     1       3.893  -3.544   1.268  0.00  0.00    +0.170 HD
ATOM     10  C   UNL     1       5.261  -2.155   0.709  0.00  0.00    +0.142 A 
ATOM     11  N   UNL     1       5.462  -1.032   0.055  0.00  0.00    -0.222 NA
ENDROOT
BRANCH  10  12
ATOM     12  C   UNL     1       6.402  -2.832   1.362  0.00  0.00    +0.022 A 
ATOM     13  C   UNL     1       6.224  -4.037   2.053  0.00  0.00    +0.031 A 
ATOM     14  C   UNL     1       7.316  -4.636   2.648  0.00  0.00    +0.113 A 
ATOM     15  N   UNL     1       8.514  -4.088   2.572  0.00  0.00    -0.244 NA
ATOM     16  C   UNL     1       8.726  -2.954   1.931  0.00  0.00    +0.130 A 
ATOM     17  C   UNL     1       7.690  -2.290   1.302  0.00  0.00    +0.051 A 
ATOM     18 CL   UNL     1      10.329  -2.291   1.873  0.00  0.00    -0.062 Cl
ENDBRANCH  10  12
BRANCH   1  19
ATOM     19  C   UNL     1       0.718  -0.497  -1.257  0.00  0.00    +0.039 C 
BRANCH  19  21
ATOM     20  C   UNL     1      -0.019   1.526   0.010  0.00  0.00    +0.007 C 
ATOM     21  C   UNL     1       0.002  -0.004   0.002  0.00  0.00    -0.013 C 
ATOM     22  C   UNL     1      -1.433  -0.534   0.013  0.00  0.00    +0.007 C 
ENDBRANCH  19  21
ENDBRANCH   1  19
TORSDOF 3
