REMARK  Name = ZINC40825323
REMARK  9 active torsions:
REMARK  status: ('A' for Active; 'I' for Inactive)
REMARK    1  A    between atoms: C_1  and  C_2
REMARK    2  A    between atoms: C_9  and  O_12
REMARK    3  A    between atoms: O_12  and  C_13
REMARK    4  A    between atoms: C_13  and  C_15
REMARK    5  A    between atoms: C_16  and  C_35
REMARK    6  A    between atoms: N_24  and  N_25
REMARK    7  A    between atoms: N_25  and  C_26
REMARK    8  A    between atoms: C_26  and  N_28
REMARK    9  A    between atoms: N_28  and  C_29
REMARK                            x       y       z     vdW  Elec       q    Type
REMARK                         _______ _______ _______ _____ _____    ______ ____
ROOT
ATOM      1  C   UNL     1       0.569  -2.158   6.110  0.00  0.00    +0.215 A 
ATOM      2  C   UNL     1       0.311  -2.689   7.344  0.00  0.00    +0.011 A 
ATOM      3  C   UNL     1      -0.091  -1.621   8.154  0.00  0.00    +0.042 A 
ATOM      4  C   UNL     1      -0.064  -0.484   7.381  0.00  0.00    +0.115 A 
ATOM      5  O   UNL     1       0.342  -0.825   6.160  0.00  0.00    -0.452 OA
ATOM      6  C   UNL     1      -0.442   0.876   7.910  0.00  0.00    +0.075 C 
ATOM      7  C   UNL     1      -1.304   0.712   9.165  0.00  0.00    +0.014 C 
ATOM      8  C   UNL     1      -0.609  -0.197  10.184  0.00  0.00    +0.058 C 
ATOM      9  C   UNL     1      -0.491  -1.588   9.578  0.00  0.00    +0.070 C 
ATOM     10  N   UNL     1      -0.725  -2.666  10.261  0.00  0.00    -0.185 NA
ATOM     11  C   UNL     1       0.435  -4.136   7.749  0.00  0.00    +0.048 C 
ENDROOT
BRANCH   1  12
ATOM     12  C   UNL     1       1.020  -2.905   4.933  0.00  0.00    +0.380 C 
ATOM     13  O   UNL     1       1.192  -4.107   5.005  0.00  0.00    -0.241 OA
BRANCH  12  14
ATOM     14  O   UNL     1       1.245  -2.260   3.770  0.00  0.00    -0.418 OA
BRANCH  14  23
ATOM     15  C   UNL     1      -3.122  -3.945   2.031  0.00  0.00    +0.065 C 
ATOM     16  C   UNL     1      -1.689  -4.109   1.594  0.00  0.00    +0.039 A 
ATOM     17  C   UNL     1      -1.408  -4.882   0.469  0.00  0.00    +0.023 A 
ATOM     18  C   UNL     1      -0.115  -5.042   0.059  0.00  0.00    +0.012 A 
ATOM     19  C   UNL     1       0.901  -4.409   0.801  0.00  0.00    +0.004 A 
ATOM     20  C   UNL     1       2.252  -4.528   0.438  0.00  0.00    +0.010 A 
ATOM     21  C   UNL     1       3.208  -3.902   1.180  0.00  0.00    +0.004 A 
ATOM     22  C   UNL     1       2.865  -3.142   2.295  0.00  0.00    +0.048 A 
ATOM     23  C   UNL     1       1.561  -3.004   2.678  0.00  0.00    +0.158 A 
ATOM     24  C   UNL     1       0.544  -3.639   1.934  0.00  0.00    +0.113 A 
ATOM     25  N   UNL     1      -0.741  -3.518   2.279  0.00  0.00    -0.248 NA
ENDBRANCH  14  23
ENDBRANCH  12  14
ENDBRANCH   1  12
BRANCH  10  26
ATOM     26  N   UNL     1      -1.101  -2.575  11.608  0.00  0.00    -0.218 N 
ATOM     27  H   UNL     1      -1.187  -1.706  12.029  0.00  0.00    +0.176 HD
BRANCH  26  28
ATOM     28  C   UNL     1      -1.344  -3.695  12.317  0.00  0.00    +0.154 C 
ATOM     29  S   UNL     1      -1.803  -3.583  13.962  0.00  0.00    -0.017 S 
BRANCH  28  30
ATOM     30  N   UNL     1      -1.224  -4.903  11.731  0.00  0.00    -0.296 N 
ATOM     31  H   UNL     1      -0.884  -4.971  10.825  0.00  0.00    +0.154 HD
BRANCH  30  32
ATOM     32  C   UNL     1      -1.591  -6.058  12.429  0.00  0.00    +0.033 A 
ATOM     33  C   UNL     1      -2.739  -6.064  13.211  0.00  0.00    +0.023 A 
ATOM     34  C   UNL     1      -3.098  -7.206  13.899  0.00  0.00    +0.002 A 
ATOM     35  C   UNL     1      -2.316  -8.343  13.810  0.00  0.00    +0.000 A 
ATOM     36  C   UNL     1      -1.173  -8.341  13.032  0.00  0.00    +0.002 A 
ATOM     37  C   UNL     1      -0.811  -7.204  12.337  0.00  0.00    +0.023 A 
ENDBRANCH  30  32
ENDBRANCH  28  30
ENDBRANCH  26  28
ENDBRANCH  10  26
TORSDOF 7
