REMARK  Name = ZINC47346797
REMARK  6 active torsions:
REMARK  status: ('A' for Active; 'I' for Inactive)
REMARK    1  A    between atoms: C_1  and  C_2
REMARK    2  A    between atoms: N_10  and  C_14
REMARK    3  A    between atoms: C_14  and  C_15
REMARK    4  A    between atoms: C_15  and  O_16
REMARK    5  A    between atoms: O_16  and  C_17
REMARK    6  A    between atoms: C_21  and  N_23
REMARK                            x       y       z     vdW  Elec       q    Type
REMARK                         _______ _______ _______ _____ _____    ______ ____
ROOT
ATOM      1  C   UNL     1      -0.019   1.526   0.010  0.00  0.00    +0.007 C 
ATOM      2  C   UNL     1       0.002  -0.004   0.002  0.00  0.00    -0.014 C 
ATOM      3  C   UNL     1       0.716  -0.497  -1.258  0.00  0.00    +0.006 C 
ATOM      4  C   UNL     1       0.727  -2.028  -1.271  0.00  0.00    +0.035 C 
ATOM      5  C   UNL     1       1.442  -2.543  -0.027  0.00  0.00    +0.113 C 
ATOM      6  C   UNL     1       0.753  -2.041   1.238  0.00  0.00    +0.035 C 
ATOM      7  C   UNL     1       0.742  -0.510   1.242  0.00  0.00    +0.006 C 
ATOM      8  C   UNL     1       1.495  -4.053  -0.035  0.00  0.00    +0.247 C 
ATOM      9  O   UNL     1       0.556  -4.821  -0.030  0.00  0.00    -0.273 OA
ATOM     10  N   UNL     1       2.807  -4.367  -0.051  0.00  0.00    -0.221 N 
ATOM     11  C   UNL     1       3.576  -3.272  -0.053  0.00  0.00    +0.309 C 
ATOM     12  O   UNL     1       4.791  -3.300  -0.065  0.00  0.00    -0.252 OA
ATOM     13  N   UNL     1       2.853  -2.136  -0.039  0.00  0.00    -0.285 N 
ATOM     14  H   UNL     1       3.196  -1.229  -0.038  0.00  0.00    +0.151 HD
ENDROOT
BRANCH  10  15
ATOM     15  C   UNL     1       3.325  -5.738  -0.062  0.00  0.00    +0.159 C 
BRANCH  15  16
ATOM     16  C   UNL     1       3.491  -6.208  -1.509  0.00  0.00    +0.248 C 
BRANCH  16  17
ATOM     17  O   UNL     1       4.492  -5.419  -2.155  0.00  0.00    -0.490 OA
BRANCH  17  18
ATOM     18  C   UNL     1       4.763  -5.710  -3.454  0.00  0.00    +0.123 A 
ATOM     19  C   UNL     1       4.075  -6.729  -4.097  0.00  0.00    +0.046 A 
ATOM     20  C   UNL     1       4.352  -7.022  -5.418  0.00  0.00    +0.006 A 
ATOM     21  C   UNL     1       5.314  -6.300  -6.100  0.00  0.00    +0.033 A 
ATOM     22  C   UNL     1       6.002  -5.284  -5.462  0.00  0.00    +0.130 A 
ATOM     23  C   UNL     1       5.724  -4.984  -4.143  0.00  0.00    +0.078 A 
BRANCH  22  24
ATOM     24  N   UNL     1       7.031  -4.514  -6.196  0.00  0.00    +0.057 N 
ATOM     25  O   UNL     1       7.271  -4.774  -7.352  0.00  0.00    -0.126 OA
ATOM     26  O   UNL     1       7.632  -3.626  -5.638  0.00  0.00    -0.126 OA
ENDBRANCH  22  24
ENDBRANCH  17  18
ENDBRANCH  16  17
ENDBRANCH  15  16
ENDBRANCH  10  15
TORSDOF 5
