REMARK  Name = ZINC13862610
REMARK  15 active torsions:
REMARK  status: ('A' for Active; 'I' for Inactive)
REMARK    1  A    between atoms: C_1  and  C_2
REMARK    2  A    between atoms: C_2  and  C_4
REMARK    3  A    between atoms: C_2  and  N_18
REMARK    4  A    between atoms: C_4  and  C_6
REMARK    5  A    between atoms: C_6  and  N_7
REMARK    6  A    between atoms: N_7  and  C_8
REMARK    7  A    between atoms: N_7  and  S_9
REMARK    8  A    between atoms: S_9  and  C_12
REMARK    9  A    between atoms: C_19  and  C_21
REMARK   10  A    between atoms: C_21  and  C_23
REMARK   11  A    between atoms: C_21  and  N_27
REMARK   12  A    between atoms: C_23  and  C_24
REMARK   13  A    between atoms: C_24  and  C_25
REMARK   14  A    between atoms: C_24  and  C_26
REMARK   15  A    between atoms: C_28  and  C_30
REMARK                            x       y       z     vdW  Elec       q    Type
REMARK                         _______ _______ _______ _____ _____    ______ ____
ROOT
ATOM      1  N   UNL     1      -1.372  -0.511   0.012  0.00  0.00    -0.304 N 
ATOM      2  C   UNL     1      -2.051  -0.643  -1.145  0.00  0.00    +0.234 C 
ATOM      3  O   UNL     1      -1.524  -0.341  -2.194  0.00  0.00    -0.274 OA
ATOM      4  H   UNL     1      -1.794  -0.752   0.852  0.00  0.00    +0.149 HD
ENDROOT
BRANCH   1   6
ATOM      5  C   UNL     1      -0.019   1.526   0.010  0.00  0.00    +0.036 C 
ATOM      6  C   UNL     1       0.002  -0.004   0.002  0.00  0.00    +0.137 C 
BRANCH   6   7
ATOM      7  C   UNL     1       0.731  -0.503   1.223  0.00  0.00    +0.169 C 
ATOM      8  O   UNL     1       0.111  -0.973   2.146  0.00  0.00    -0.294 OA
BRANCH   7   9
ATOM      9  C   UNL     1       2.234  -0.416   1.292  0.00  0.00    +0.185 C 
BRANCH   9  10
ATOM     10  N   UNL     1       2.697  -0.962   2.570  0.00  0.00    -0.171 NA
ATOM     11  C   UNL     1       2.914  -2.404   2.714  0.00  0.00    +0.132 C 
BRANCH  10  12
ATOM     12  S   UNL     1       2.975   0.050   3.850  0.00  0.00    +0.078 S 
ATOM     13  O   UNL     1       3.899  -0.615   4.700  0.00  0.00    -0.151 OA
ATOM     14  O   UNL     1       3.231   1.336   3.304  0.00  0.00    -0.151 OA
BRANCH  12  15
ATOM     15  C   UNL     1       1.465   0.177   4.750  0.00  0.00    +0.194 A 
ATOM     16  C   UNL     1       0.555   1.164   4.422  0.00  0.00    +0.049 A 
ATOM     17  C   UNL     1      -0.629   1.256   5.136  0.00  0.00    +0.005 A 
ATOM     18  C   UNL     1      -0.855   0.347   6.159  0.00  0.00    +0.020 A 
ATOM     19  C   UNL     1       0.101  -0.613   6.430  0.00  0.00    +0.113 A 
ATOM     20  N   UNL     1       1.214  -0.674   5.726  0.00  0.00    -0.236 NA
ENDBRANCH  12  15
ENDBRANCH  10  12
ENDBRANCH   9  10
ENDBRANCH   7   9
ENDBRANCH   6   7
ENDBRANCH   1   6
BRANCH   2  21
ATOM     21  C   UNL     1      -3.465  -1.164  -1.134  0.00  0.00    +0.159 C 
BRANCH  21  22
ATOM     22  N   UNL     1      -3.978  -1.213  -2.505  0.00  0.00    -0.298 N 
ATOM     23  C   UNL     1      -5.305  -1.151  -2.731  0.00  0.00    +0.280 C 
ATOM     24  O   UNL     1      -6.077  -1.054  -1.796  0.00  0.00    -0.267 OA
ATOM     25  H   UNL     1      -3.362  -1.290  -3.251  0.00  0.00    +0.150 HD
BRANCH  23  26
ATOM     26  C   UNL     1      -5.819  -1.199  -4.107  0.00  0.00    +0.190 A 
ATOM     27  C   UNL     1      -7.131  -1.139  -4.453  0.00  0.00    +0.063 A 
ATOM     28  C   UNL     1      -7.169  -1.222  -5.913  0.00  0.00    +0.021 A 
ATOM     29  C   UNL     1      -8.194  -1.215  -6.862  0.00  0.00    +0.011 A 
ATOM     30  C   UNL     1      -7.887  -1.311  -8.190  0.00  0.00    +0.001 A 
ATOM     31  C   UNL     1      -6.565  -1.417  -8.601  0.00  0.00    +0.004 A 
ATOM     32  C   UNL     1      -5.540  -1.426  -7.680  0.00  0.00    +0.047 A 
ATOM     33  C   UNL     1      -5.827  -1.329  -6.324  0.00  0.00    +0.136 A 
ATOM     34  O   UNL     1      -5.059  -1.305  -5.217  0.00  0.00    -0.450 OA
ENDBRANCH  23  26
ENDBRANCH  21  22
BRANCH  21  35
ATOM     35  C   UNL     1      -3.485  -2.571  -0.532  0.00  0.00    +0.034 C 
BRANCH  35  36
ATOM     36  C   UNL     1      -4.932  -3.051  -0.406  0.00  0.00    -0.015 C 
ATOM     37  C   UNL     1      -4.948  -4.502   0.079  0.00  0.00    +0.007 C 
ATOM     38  C   UNL     1      -5.676  -2.169   0.599  0.00  0.00    +0.007 C 
ENDBRANCH  35  36
ENDBRANCH  21  35
ENDBRANCH   2  21
TORSDOF 11
