REMARK  Name = ZINC39637098
REMARK  5 active torsions:
REMARK  status: ('A' for Active; 'I' for Inactive)
REMARK    1  A    between atoms: C_1  and  C_2
REMARK    2  A    between atoms: C_7  and  N_12
REMARK    3  A    between atoms: C_9  and  C_11
REMARK    4  A    between atoms: C_13  and  C_15
REMARK    5  A    between atoms: C_26  and  C_28
REMARK                            x       y       z     vdW  Elec       q    Type
REMARK                         _______ _______ _______ _____ _____    ______ ____
ROOT
ATOM      1  C   UNL     1      -2.011  -4.098   2.299  0.00  0.00    +0.100 C 
ATOM      2  C   UNL     1      -3.118  -3.321   3.046  0.00  0.00    +0.121 C 
ATOM      3  N   UNL     1      -4.007  -4.371   3.596  0.00  0.00    -0.296 N 
ATOM      4  C   UNL     1      -3.082  -5.439   4.045  0.00  0.00    +0.115 C 
ATOM      5  C   UNL     1      -1.990  -5.488   2.957  0.00  0.00    -0.004 C 
ATOM      6  C   UNL     1      -0.628  -5.752   3.590  0.00  0.00    -0.010 C 
ATOM      7  C   UNL     1      -0.612  -7.162   4.187  0.00  0.00    -0.082 C 
ATOM      8  N   UNL     1      -0.883  -8.146   3.132  0.00  0.00    +0.379 N 
ATOM      9  C   UNL     1      -2.233  -7.942   2.592  0.00  0.00    -0.082 C 
ATOM     10  C   UNL     1      -2.317  -6.565   1.928  0.00  0.00    -0.010 C 
ATOM     11  C   UNL     1      -5.353  -4.359   3.670  0.00  0.00    +0.247 C 
ATOM     12  O   UNL     1      -5.981  -3.454   3.156  0.00  0.00    -0.270 OA
ATOM     13  H   UNL     1      -0.207  -8.037   2.391  0.00  0.00    -0.086 HD
ATOM     14  H   UNL     1      -0.813  -9.076   3.515  0.00  0.00    -0.086 HD
ENDROOT
BRANCH  11  15
ATOM     15  C   UNL     1      -6.064  -5.444   4.376  0.00  0.00    +0.038 A 
ATOM     16  C   UNL     1      -5.395  -6.218   5.327  0.00  0.00    +0.014 A 
ATOM     17  C   UNL     1      -6.064  -7.230   5.983  0.00  0.00    +0.022 A 
ATOM     18  C   UNL     1      -7.396  -7.481   5.700  0.00  0.00    +0.059 A 
ATOM     19  C   UNL     1      -8.066  -6.717   4.757  0.00  0.00    +0.060 A 
ATOM     20  C   UNL     1      -7.408  -5.697   4.098  0.00  0.00    +0.034 A 
ATOM     21 CL   UNL     1      -9.736  -7.039   4.408  0.00  0.00    -0.082 Cl
ATOM     22 CL   UNL     1      -8.230  -8.758   6.529  0.00  0.00    -0.082 Cl
ENDBRANCH  11  15
BRANCH   1  24
ATOM     23  N   UNL     1       0.250  -3.489   1.501  0.00  0.00    -0.312 N 
ATOM     24  C   UNL     1      -0.680  -3.414   2.474  0.00  0.00    +0.218 C 
ATOM     25  O   UNL     1      -0.444  -2.797   3.491  0.00  0.00    -0.275 OA
ATOM     26  H   UNL     1       0.061  -3.983   0.687  0.00  0.00    +0.149 HD
BRANCH  23  32
ATOM     27  C   UNL     1       2.936  -3.506  -1.854  0.00  0.00    +0.008 C 
ATOM     28  C   UNL     1       2.337  -3.817  -0.480  0.00  0.00    -0.009 C 
ATOM     29  C   UNL     1       3.284  -4.736   0.293  0.00  0.00    +0.003 C 
ATOM     30  C   UNL     1       2.686  -5.047   1.666  0.00  0.00    +0.002 C 
ATOM     31  C   UNL     1       2.492  -3.744   2.444  0.00  0.00    +0.022 C 
ATOM     32  C   UNL     1       1.544  -2.824   1.671  0.00  0.00    +0.076 C 
ATOM     33  C   UNL     1       2.143  -2.514   0.298  0.00  0.00    +0.009 C 
ATOM     34  C   UNL     1       1.195  -1.594  -0.475  0.00  0.00    +0.009 C 
ENDBRANCH  23  32
ENDBRANCH   1  24
TORSDOF 3
