REMARK  Name = ZINC38551291
REMARK  3 active torsions:
REMARK  status: ('A' for Active; 'I' for Inactive)
REMARK    1  A    between atoms: C_4  and  N_11
REMARK    2  A    between atoms: C_5  and  C_7
REMARK    3  A    between atoms: C_18  and  C_20
REMARK                            x       y       z     vdW  Elec       q    Type
REMARK                         _______ _______ _______ _____ _____    ______ ____
ROOT
ATOM      1  N   UNL     1       3.622  -0.651  -0.036  0.00  0.00    -0.269 N 
ATOM      2  C   UNL     1       4.776   0.037  -0.146  0.00  0.00    +0.311 C 
ATOM      3  O   UNL     1       4.761   1.253  -0.139  0.00  0.00    -0.252 OA
ATOM      4  N   UNL     1       5.945  -0.623  -0.263  0.00  0.00    -0.222 N 
ATOM      5  C   UNL     1       7.132   0.085  -0.375  0.00  0.00    +0.316 A 
ATOM      6  N   UNL     1       7.259   1.389  -0.376  0.00  0.00    -0.092 NA
ATOM      7  N   UNL     1       8.502   1.699  -0.497  0.00  0.00    -0.103 NA
ATOM      8  C   UNL     1       9.219   0.601  -0.578  0.00  0.00    +0.285 A 
ATOM      9  O   UNL     1       8.365  -0.444  -0.497  0.00  0.00    -0.402 OA
ATOM     10  H   UNL     1       3.639  -1.618   0.041  0.00  0.00    +0.156 HD
ATOM     11  H   UNL     1       5.956  -1.593  -0.268  0.00  0.00    +0.161 HD
ENDROOT
BRANCH   1  15
ATOM     12  C   UNL     1      -0.019   1.375  -0.029  0.00  0.00    +0.001 A 
ATOM     13  C   UNL     1       1.087   1.946  -0.632  0.00  0.00    +0.002 A 
ATOM     14  C   UNL     1       2.296   1.277  -0.636  0.00  0.00    +0.024 A 
ATOM     15  C   UNL     1       2.399   0.030  -0.034  0.00  0.00    +0.046 A 
ATOM     16  C   UNL     1       1.286  -0.541   0.570  0.00  0.00    +0.076 A 
ATOM     17  C   UNL     1       0.081   0.133   0.571  0.00  0.00    +0.014 A 
BRANCH  16  18
ATOM     18  C   UNL     1       1.394  -1.894   1.224  0.00  0.00    +0.419 C 
ATOM     19  F   UNL     1       0.152  -2.254   1.758  0.00  0.00    -0.166 F 
ATOM     20  F   UNL     1       1.785  -2.842   0.273  0.00  0.00    -0.166 F 
ATOM     21  F   UNL     1       2.345  -1.843   2.249  0.00  0.00    -0.166 F 
ENDBRANCH  16  18
ENDBRANCH   1  15
BRANCH   8  22
ATOM     22  C   UNL     1      10.679   0.523  -0.724  0.00  0.00    +0.192 A 
ATOM     23  C   UNL     1      11.534   1.583  -0.794  0.00  0.00    +0.056 A 
ATOM     24  C   UNL     1      12.830   1.049  -0.930  0.00  0.00    +0.058 A 
ATOM     25  C   UNL     1      12.706  -0.295  -0.937  0.00  0.00    +0.171 A 
ATOM     26  O   UNL     1      11.407  -0.609  -0.807  0.00  0.00    -0.443 OA
ATOM     27 BR   UNL     1      14.128  -1.531  -1.096  0.00  0.00    -0.008 Br
ENDBRANCH   8  22
TORSDOF 3
