REMARK  Name = ZINC58849757
REMARK  9 active torsions:
REMARK  status: ('A' for Active; 'I' for Inactive)
REMARK    1  A    between atoms: C_1  and  C_2
REMARK    2  A    between atoms: C_5  and  O_36
REMARK    3  A    between atoms: C_6  and  N_8
REMARK    4  A    between atoms: N_8  and  S_9
REMARK    5  A    between atoms: S_9  and  C_12
REMARK    6  A    between atoms: C_25  and  C_28
REMARK    7  A    between atoms: C_33  and  O_34
REMARK    8  A    between atoms: O_34  and  C_35
REMARK    9  A    between atoms: O_36  and  C_37
REMARK                            x       y       z     vdW  Elec       q    Type
REMARK                         _______ _______ _______ _____ _____    ______ ____
ROOT
ATOM      1  C   UNL     1      -2.416  -2.146   3.456  0.00  0.00    +0.109 A 
ATOM      2  C   UNL     1      -3.049  -1.077   2.849  0.00  0.00    +0.030 A 
ATOM      3  C   UNL     1      -4.414  -1.114   2.645  0.00  0.00    +0.025 A 
ATOM      4  C   UNL     1      -5.150  -2.224   3.046  0.00  0.00    +0.031 A 
ATOM      5  C   UNL     1      -4.515  -3.302   3.643  0.00  0.00    -0.018 A 
ATOM      6  C   UNL     1      -3.143  -3.253   3.845  0.00  0.00    +0.034 A 
ATOM      7  C   UNL     1      -5.264  -4.526   4.050  0.00  0.00    +0.049 C 
ATOM      8  C   UNL     1      -5.484  -4.587   5.540  0.00  0.00    -0.023 C 
ATOM      9  C   UNL     1      -6.653  -5.113   5.804  0.00  0.00    -0.030 C 
ATOM     10  C   UNL     1      -7.384  -5.473   4.529  0.00  0.00    +0.033 C 
ATOM     11  C   UNL     1      -6.659  -4.646   3.442  0.00  0.00    +0.029 C 
ATOM     12  C   UNL     1      -7.379  -3.321   3.297  0.00  0.00    +0.108 C 
ATOM     13  N   UNL     1      -6.526  -2.239   2.852  0.00  0.00    -0.336 N 
ATOM     14  H   UNL     1      -6.938  -1.477   2.416  0.00  0.00    +0.147 HD
ENDROOT
BRANCH  12  15
ATOM     15  C   UNL     1      -7.997  -2.965   4.624  0.00  0.00    +0.015 A 
ATOM     16  C   UNL     1      -9.319  -3.280   4.878  0.00  0.00    +0.009 A 
ATOM     17  C   UNL     1      -9.887  -2.953   6.095  0.00  0.00    +0.001 A 
ATOM     18  C   UNL     1      -9.135  -2.311   7.062  0.00  0.00    +0.004 A 
ATOM     19  C   UNL     1      -7.814  -1.995   6.814  0.00  0.00    +0.046 A 
ATOM     20  C   UNL     1      -7.239  -2.327   5.595  0.00  0.00    +0.125 A 
BRANCH  20  21
ATOM     21  O   UNL     1      -5.938  -2.022   5.350  0.00  0.00    -0.495 OA
ATOM     22  C   UNL     1      -5.218  -1.364   6.395  0.00  0.00    +0.277 C 
ENDBRANCH  20  21
ENDBRANCH  12  15
BRANCH   1  23
ATOM     23  S   UNL     1      -0.676  -2.099   3.726  0.00  0.00    +0.072 S 
ATOM     24  O   UNL     1      -0.406  -2.992   4.798  0.00  0.00    -0.150 OA
ATOM     25  O   UNL     1      -0.308  -0.726   3.767  0.00  0.00    -0.150 OA
BRANCH  23  26
ATOM     26  N   UNL     1       0.046  -2.742   2.381  0.00  0.00    -0.213 N 
ATOM     27  H   UNL     1       0.605  -3.530   2.461  0.00  0.00    +0.174 HD
BRANCH  26  33
ATOM     28  C   UNL     1      -0.589   1.313  -0.326  0.00  0.00    +0.044 C 
ATOM     29  C   UNL     1      -0.463  -0.185  -0.213  0.00  0.00    -0.048 A 
ATOM     30  C   UNL     1      -0.541  -0.971  -1.348  0.00  0.00    +0.007 A 
ATOM     31  C   UNL     1      -0.426  -2.345  -1.251  0.00  0.00    +0.048 A 
ATOM     32  C   UNL     1      -0.230  -2.938  -0.015  0.00  0.00    +0.142 A 
ATOM     33  C   UNL     1      -0.151  -2.147   1.129  0.00  0.00    +0.090 A 
ATOM     34  C   UNL     1      -0.263  -0.769   1.024  0.00  0.00    +0.031 A 
BRANCH  32  35
ATOM     35  O   UNL     1      -0.117  -4.290   0.082  0.00  0.00    -0.493 OA
ATOM     36  C   UNL     1      -0.209  -5.038  -1.132  0.00  0.00    +0.277 C 
ENDBRANCH  32  35
ENDBRANCH  26  33
ENDBRANCH  23  26
ENDBRANCH   1  23
TORSDOF 6
