REMARK  Name = ZINC13568120
REMARK  11 active torsions:
REMARK  status: ('A' for Active; 'I' for Inactive)
REMARK    1  A    between atoms: C_1  and  C_2
REMARK    2  A    between atoms: C_2  and  N_3
REMARK    3  A    between atoms: C_4  and  C_24
REMARK    4  A    between atoms: C_7  and  S_8
REMARK    5  A    between atoms: S_8  and  C_9
REMARK    6  A    between atoms: C_9  and  C_11
REMARK    7  A    between atoms: C_9  and  C_12
REMARK    8  A    between atoms: N_14  and  C_15
REMARK    9  A    between atoms: C_24  and  C_26
REMARK   10  A    between atoms: C_24  and  N_27
REMARK   11  A    between atoms: C_28  and  C_30
REMARK                            x       y       z     vdW  Elec       q    Type
REMARK                         _______ _______ _______ _____ _____    ______ ____
ROOT
ATOM      1  N   UNL     1      -3.600   1.313  -1.844  0.00  0.00    -0.305 N 
ATOM      2  C   UNL     1      -4.529   0.419  -1.389  0.00  0.00    +0.154 A 
ATOM      3  N   UNL     1      -3.983  -0.240  -0.406  0.00  0.00    -0.132 NA
ATOM      4  N   UNL     1      -2.780   0.169  -0.214  0.00  0.00    -0.122 NA
ATOM      5  C   UNL     1      -2.491   1.120  -1.072  0.00  0.00    +0.192 A 
ENDROOT
BRANCH   1   7
ATOM      6  C   UNL     1      -3.335   1.627  -4.255  0.00  0.00    +0.027 C 
ATOM      7  C   UNL     1      -3.761   2.276  -2.937  0.00  0.00    +0.122 C 
ENDBRANCH   1   7
BRANCH   2   8
ATOM      8  C   UNL     1      -5.927   0.235  -1.920  0.00  0.00    +0.138 C 
ATOM      9  C   UNL     1      -6.929   0.858  -0.947  0.00  0.00    +0.036 C 
BRANCH   8  10
ATOM     10  N   UNL     1      -6.210  -1.195  -2.063  0.00  0.00    -0.302 N 
ATOM     11  C   UNL     1      -7.136  -1.614  -2.950  0.00  0.00    +0.245 C 
ATOM     12  O   UNL     1      -7.735  -0.804  -3.631  0.00  0.00    -0.270 OA
ATOM     13  H   UNL     1      -5.732  -1.841  -1.520  0.00  0.00    +0.150 HD
BRANCH  11  14
ATOM     14  C   UNL     1      -7.422  -3.057  -3.094  0.00  0.00    +0.037 A 
ATOM     15  C   UNL     1      -6.731  -3.989  -2.318  0.00  0.00    +0.013 A 
ATOM     16  C   UNL     1      -7.007  -5.334  -2.454  0.00  0.00    +0.001 A 
ATOM     17  C   UNL     1      -7.957  -5.760  -3.365  0.00  0.00    +0.000 A 
ATOM     18  C   UNL     1      -8.641  -4.842  -4.142  0.00  0.00    +0.001 A 
ATOM     19  C   UNL     1      -8.379  -3.493  -4.011  0.00  0.00    +0.013 A 
ENDBRANCH  11  14
ENDBRANCH   8  10
ENDBRANCH   2   8
BRANCH   5  20
ATOM     20  S   UNL     1      -0.963   1.988  -1.198  0.00  0.00    -0.074 S 
BRANCH  20  21
ATOM     21  C   UNL     1      -0.035   1.186   0.134  0.00  0.00    +0.137 C 
ATOM     22  C   UNL     1      -0.695   1.503   1.477  0.00  0.00    +0.029 C 
BRANCH  21  23
ATOM     23  C   UNL     1       1.383   1.697   0.137  0.00  0.00    +0.230 C 
ATOM     24  O   UNL     1       1.634   2.790  -0.325  0.00  0.00    -0.274 OA
ATOM     25  N   UNL     1       2.371   0.940   0.654  0.00  0.00    -0.284 N 
ATOM     26  H   UNL     1       2.160   0.101   1.092  0.00  0.00    +0.155 HD
BRANCH  25  27
ATOM     27  C   UNL     1       3.702   1.365   0.558  0.00  0.00    +0.037 A 
ATOM     28  C   UNL     1       4.123   2.085  -0.552  0.00  0.00    +0.027 A 
ATOM     29  C   UNL     1       5.435   2.509  -0.646  0.00  0.00    +0.051 A 
ATOM     30  C   UNL     1       6.336   2.209   0.363  0.00  0.00    +0.166 A 
ATOM     31  C   UNL     1       5.918   1.483   1.476  0.00  0.00    +0.168 A 
ATOM     32  C   UNL     1       4.602   1.063   1.571  0.00  0.00    +0.072 A 
ATOM     33  O   UNL     1       6.982   1.321   2.316  0.00  0.00    -0.453 OA
ATOM     34  C   UNL     1       8.148   1.600   1.518  0.00  0.00    +0.466 C 
ATOM     35  O   UNL     1       7.662   2.502   0.506  0.00  0.00    -0.453 OA
ENDBRANCH  25  27
ENDBRANCH  21  23
ENDBRANCH  20  21
ENDBRANCH   5  20
TORSDOF 8
