REMARK  Name = ZINC00888367
REMARK  8 active torsions:
REMARK  status: ('A' for Active; 'I' for Inactive)
REMARK    1  A    between atoms: C_5  and  C_7
REMARK    2  A    between atoms: N_10  and  C_12
REMARK    3  A    between atoms: C_12  and  C_13
REMARK    4  A    between atoms: N_15  and  C_16
REMARK    5  A    between atoms: N_15  and  C_26
REMARK    6  A    between atoms: C_26  and  C_28
REMARK    7  A    between atoms: C_26  and  C_33
REMARK    8  A    between atoms: N_35  and  C_36
REMARK                            x       y       z     vdW  Elec       q    Type
REMARK                         _______ _______ _______ _____ _____    ______ ____
ROOT
ATOM      1  C   UNL     1      -1.386  -6.384   0.801  0.00  0.00    +0.244 C 
ATOM      2  O   UNL     1      -1.476  -5.349   1.427  0.00  0.00    -0.273 OA
ATOM      3  N   UNL     1      -1.135  -7.542   1.444  0.00  0.00    -0.251 N 
ENDROOT
BRANCH   3   4
ATOM      4  C   UNL     1      -0.960  -8.725   0.715  0.00  0.00    +0.041 A 
ATOM      5  C   UNL     1      -0.330  -8.692  -0.522  0.00  0.00    +0.027 A 
ATOM      6  C   UNL     1      -0.159  -9.858  -1.242  0.00  0.00    +0.051 A 
ATOM      7  C   UNL     1      -0.614 -11.065  -0.732  0.00  0.00    +0.162 A 
ATOM      8  C   UNL     1      -1.243 -11.102   0.507  0.00  0.00    +0.164 A 
ATOM      9  C   UNL     1      -1.412  -9.931   1.230  0.00  0.00    +0.073 A 
ATOM     10  O   UNL     1      -1.690 -12.278   1.027  0.00  0.00    -0.485 OA
ATOM     11  C   UNL     1      -1.834 -13.372   0.115  0.00  0.00    +0.270 C 
ATOM     12  C   UNL     1      -0.570 -13.443  -0.753  0.00  0.00    +0.270 C 
ATOM     13  O   UNL     1      -0.440 -12.204  -1.458  0.00  0.00    -0.485 OA
ENDBRANCH   3   4
BRANCH   1  14
ATOM     14  C   UNL     1      -1.555  -6.376  -0.697  0.00  0.00    +0.264 C 
BRANCH  14  18
ATOM     15  C   UNL     1      -4.458  -4.547  -1.521  0.00  0.00    +0.207 A 
ATOM     16  N   UNL     1      -3.510  -3.604  -1.617  0.00  0.00    -0.108 NA
ATOM     17  N   UNL     1      -2.384  -4.163  -1.332  0.00  0.00    -0.045 NA
ATOM     18  N   UNL     1      -2.589  -5.406  -1.066  0.00  0.00    -0.154 N 
ATOM     19  N   UNL     1      -3.848  -5.661  -1.169  0.00  0.00    -0.130 NA
BRANCH  15  24
ATOM     20  C   UNL     1      -8.133  -5.279  -1.837  0.00  0.00    +0.001 A 
ATOM     21  C   UNL     1      -8.627  -4.040  -2.204  0.00  0.00    +0.003 A 
ATOM     22  C   UNL     1      -7.771  -2.964  -2.350  0.00  0.00    +0.039 A 
ATOM     23  C   UNL     1      -6.415  -3.122  -2.130  0.00  0.00    +0.134 A 
ATOM     24  C   UNL     1      -5.913  -4.370  -1.760  0.00  0.00    +0.058 A 
ATOM     25  C   UNL     1      -6.782  -5.449  -1.615  0.00  0.00    +0.014 A 
ATOM     26  F   UNL     1      -5.578  -2.071  -2.273  0.00  0.00    -0.205 F 
ENDBRANCH  15  24
ENDBRANCH  14  18
ENDBRANCH   1  14
BRANCH   3  27
ATOM     27  C   UNL     1      -1.044  -7.562   2.906  0.00  0.00    +0.233 C 
BRANCH  27  28
ATOM     28  C   UNL     1      -2.350  -8.043   3.484  0.00  0.00    +0.135 A 
ATOM     29  C   UNL     1      -2.723  -7.946   4.773  0.00  0.00    +0.047 A 
ATOM     30  C   UNL     1      -4.012  -8.518   4.870  0.00  0.00    +0.041 A 
ATOM     31  C   UNL     1      -4.349  -8.931   3.635  0.00  0.00    +0.195 A 
ATOM     32  O   UNL     1      -3.341  -8.635   2.799  0.00  0.00    -0.465 OA
ENDBRANCH  27  28
BRANCH  27  33
ATOM     33  C   UNL     1       0.065  -8.493   3.327  0.00  0.00    +0.242 C 
ATOM     34  O   UNL     1       0.714  -9.081   2.489  0.00  0.00    -0.273 OA
ATOM     35  N   UNL     1       0.334  -8.671   4.636  0.00  0.00    -0.311 N 
ATOM     36  H   UNL     1      -0.186  -8.201   5.306  0.00  0.00    +0.149 HD
BRANCH  35  37
ATOM     37  C   UNL     1       1.411  -9.576   5.045  0.00  0.00    +0.073 C 
ATOM     38  C   UNL     1       0.877 -11.008   5.110  0.00  0.00    +0.022 C 
ATOM     39  C   UNL     1       2.002 -11.953   5.538  0.00  0.00    +0.002 C 
ATOM     40  C   UNL     1       2.519 -11.539   6.917  0.00  0.00    +0.000 C 
ATOM     41  C   UNL     1       3.053 -10.106   6.852  0.00  0.00    +0.002 C 
ATOM     42  C   UNL     1       1.928  -9.162   6.425  0.00  0.00    +0.022 C 
ENDBRANCH  35  37
ENDBRANCH  27  33
ENDBRANCH   3  27
TORSDOF 8
