REMARK  Name = ZINC16474238
REMARK  6 active torsions:
REMARK  status: ('A' for Active; 'I' for Inactive)
REMARK    1  A    between atoms: C_1  and  C_2
REMARK    2  A    between atoms: C_9  and  N_14
REMARK    3  A    between atoms: C_10  and  C_11
REMARK    4  A    between atoms: C_15  and  C_17
REMARK    5  A    between atoms: C_20  and  N_26
REMARK    6  A    between atoms: C_21  and  N_23
REMARK                            x       y       z     vdW  Elec       q    Type
REMARK                         _______ _______ _______ _____ _____    ______ ____
ROOT
ATOM      1  N   UNL     1      -2.273  -5.937   0.698  0.00  0.00    -0.275 N 
ATOM      2  C   UNL     1      -3.561  -6.206   0.406  0.00  0.00    +0.249 C 
ATOM      3  O   UNL     1      -4.308  -5.308   0.067  0.00  0.00    -0.270 OA
ATOM      4  H   UNL     1      -1.677  -6.653   0.968  0.00  0.00    +0.156 HD
ENDROOT
BRANCH   1  12
ATOM      5  C   UNL     1       0.024   1.507  -0.003  0.00  0.00    +0.008 C 
ATOM      6  C   UNL     1       0.031  -0.022  -0.053  0.00  0.00    -0.009 C 
ATOM      7  C   UNL     1       0.844  -0.571   1.123  0.00  0.00    +0.008 C 
ATOM      8  C   UNL     1       1.065  -2.074   0.947  0.00  0.00    +0.037 C 
ATOM      9  C   UNL     1      -0.282  -2.743   0.704  0.00  0.00    -0.023 A 
ATOM     10  C   UNL     1      -1.355  -2.023   0.308  0.00  0.00    -0.004 A 
ATOM     11  S   UNL     1      -2.663  -3.205   0.157  0.00  0.00    -0.077 S 
ATOM     12  C   UNL     1      -1.800  -4.637   0.613  0.00  0.00    +0.085 A 
ATOM     13  C   UNL     1      -0.520  -4.166   0.871  0.00  0.00    +0.068 A 
ATOM     14  C   UNL     1      -1.408  -0.548   0.054  0.00  0.00    +0.046 C 
BRANCH  13  15
ATOM     15  C   UNL     1       0.552  -5.072   1.295  0.00  0.00    +0.244 C 
ATOM     16  O   UNL     1       0.735  -5.285   2.479  0.00  0.00    -0.270 OA
ATOM     17  N   UNL     1       1.335  -5.667   0.374  0.00  0.00    -0.325 N 
ATOM     18  H   UNL     1       1.190  -5.497  -0.570  0.00  0.00    +0.145 HD
ATOM     19  H   UNL     1       2.045  -6.266   0.655  0.00  0.00    +0.145 HD
ENDBRANCH  13  15
ENDBRANCH   1  12
BRANCH   2  20
ATOM     20  C   UNL     1      -4.064  -7.589   0.497  0.00  0.00    +0.039 A 
ATOM     21  C   UNL     1      -3.206  -8.623   0.886  0.00  0.00    +0.015 A 
ATOM     22  C   UNL     1      -3.678  -9.912   0.970  0.00  0.00    +0.026 A 
ATOM     23  C   UNL     1      -5.009 -10.189   0.668  0.00  0.00    +0.060 A 
ATOM     24  C   UNL     1      -5.866  -9.162   0.281  0.00  0.00    +0.148 A 
ATOM     25  C   UNL     1      -5.401  -7.869   0.200  0.00  0.00    +0.047 A 
BRANCH  23  26
ATOM     26  N   UNL     1      -5.484 -11.493   0.755  0.00  0.00    -0.328 N 
ATOM     27  C   UNL     1      -4.640 -12.420  -0.041  0.00  0.00    +0.105 C 
ATOM     28  C   UNL     1      -4.961 -13.806   0.572  0.00  0.00    +0.020 C 
ATOM     29  C   UNL     1      -5.106 -13.493   2.079  0.00  0.00    +0.020 C 
ATOM     30  C   UNL     1      -5.423 -11.987   2.147  0.00  0.00    +0.105 C 
ENDBRANCH  23  26
BRANCH  24  31
ATOM     31  N   UNL     1      -7.280  -9.460  -0.039  0.00  0.00    +0.058 N 
ATOM     32  O   UNL     1      -8.006  -8.581  -0.468  0.00  0.00    -0.126 OA
ATOM     33  O   UNL     1      -7.717 -10.585   0.126  0.00  0.00    -0.126 OA
ENDBRANCH  24  31
ENDBRANCH   2  20
TORSDOF 5
