REMARK  Name = ZINC42459698
REMARK  8 active torsions:
REMARK  status: ('A' for Active; 'I' for Inactive)
REMARK    1  A    between atoms: C_1  and  C_2
REMARK    2  A    between atoms: C_2  and  C_4
REMARK    3  A    between atoms: C_2  and  C_17
REMARK    4  A    between atoms: C_4  and  N_5
REMARK    5  A    between atoms: N_5  and  C_6
REMARK    6  A    between atoms: N_5  and  S_7
REMARK    7  A    between atoms: S_7  and  C_10
REMARK    8  A    between atoms: N_18  and  O_19
REMARK                            x       y       z     vdW  Elec       q    Type
REMARK                         _______ _______ _______ _____ _____    ______ ____
ROOT
ATOM      1  N   UNL     1      -1.946  -0.083  -1.164  0.00  0.00    -0.179 NA
ATOM      2  C   UNL     1      -1.940  -0.910  -2.373  0.00  0.00    +0.131 C 
ENDROOT
BRANCH   1   3
ATOM      3  S   UNL     1      -2.639   1.421  -1.193  0.00  0.00    +0.061 S 
ATOM      4  O   UNL     1      -3.505   1.447  -2.319  0.00  0.00    -0.153 OA
ATOM      5  O   UNL     1      -3.096   1.682   0.126  0.00  0.00    -0.153 OA
BRANCH   3   6
ATOM      6  C   UNL     1      -1.353   2.580  -1.520  0.00  0.00    +0.106 A 
ATOM      7  C   UNL     1      -0.582   3.067  -0.481  0.00  0.00    +0.029 A 
ATOM      8  C   UNL     1       0.427   3.977  -0.736  0.00  0.00    +0.017 A 
ATOM      9  C   UNL     1       0.665   4.400  -2.032  0.00  0.00    +0.018 A 
ATOM     10  C   UNL     1      -0.107   3.912  -3.071  0.00  0.00    +0.017 A 
ATOM     11  C   UNL     1      -1.112   2.998  -2.815  0.00  0.00    +0.029 A 
ATOM     12 BR   UNL     1       2.045   5.644  -2.382  0.00  0.00    -0.050 Br
ENDBRANCH   3   6
ENDBRANCH   1   3
BRANCH   1  13
ATOM     13  C   UNL     1      -1.339  -0.587   0.070  0.00  0.00    +0.120 C 
BRANCH  13  15
ATOM     14  C   UNL     1      -2.715  -2.671   0.039  0.00  0.00    +0.017 C 
ATOM     15  C   UNL     1      -2.366  -1.417   0.842  0.00  0.00    +0.068 C 
BRANCH  15  16
ATOM     16  C   UNL     1      -1.789  -1.818   2.175  0.00  0.00    +0.136 C 
ATOM     17  N   UNL     1      -1.216  -2.968   2.311  0.00  0.00    -0.076 NA
ATOM     18  N   UNL     1      -1.873  -0.959   3.248  0.00  0.00    -0.344 N 
ATOM     19  H   UNL     1      -2.303  -0.096   3.147  0.00  0.00    +0.144 HD
ATOM     20  H   UNL     1      -1.501  -1.218   4.106  0.00  0.00    +0.144 HD
BRANCH  17  21
ATOM     21  O   UNL     1      -0.673  -3.345   3.563  0.00  0.00    -0.408 OA
ATOM     22  H   UNL     1      -0.265  -4.222   3.567  0.00  0.00    +0.328 HD
ENDBRANCH  17  21
ENDBRANCH  15  16
ENDBRANCH  13  15
ENDBRANCH   1  13
TORSDOF 6
