REMARK  Name = ZINC65664466
REMARK  10 active torsions:
REMARK  status: ('A' for Active; 'I' for Inactive)
REMARK    1  A    between atoms: C_1  and  O_2
REMARK    2  A    between atoms: O_2  and  C_3
REMARK    3  A    between atoms: C_5  and  O_12
REMARK    4  A    between atoms: C_8  and  N_9
REMARK    5  A    between atoms: O_12  and  C_13
REMARK    6  A    between atoms: C_13  and  C_14
REMARK    7  A    between atoms: C_14  and  O_16
REMARK    8  A    between atoms: O_16  and  C_17
REMARK    9  A    between atoms: C_17  and  C_18
REMARK   10  A    between atoms: C_18  and  C_19
REMARK                            x       y       z     vdW  Elec       q    Type
REMARK                         _______ _______ _______ _____ _____    ______ ____
ROOT
ATOM      1  O   UNL     1       2.344   0.293  -4.126  0.00  0.00    -0.481 OA
ENDROOT
BRANCH   1   4
ATOM      2  C   UNL     1       0.606  -0.607  -1.056  0.00  0.00    +0.154 A 
ATOM      3  C   UNL     1       1.173   0.161  -2.062  0.00  0.00    +0.093 A 
ATOM      4  C   UNL     1       1.788  -0.457  -3.139  0.00  0.00    +0.125 A 
ATOM      5  C   UNL     1       1.836  -1.843  -3.208  0.00  0.00    +0.048 A 
ATOM      6  C   UNL     1       1.270  -2.606  -2.205  0.00  0.00    +0.040 A 
ATOM      7  C   UNL     1       0.661  -1.992  -1.127  0.00  0.00    +0.168 A 
BRANCH   7   8
ATOM      8  N   UNL     1       0.061  -2.812  -0.051  0.00  0.00    +0.060 N 
ATOM      9  O   UNL     1       0.109  -4.018  -0.113  0.00  0.00    -0.126 OA
ATOM     10  O   UNL     1      -0.476  -2.275   0.890  0.00  0.00    -0.126 OA
ENDBRANCH   7   8
BRANCH   2  12
ATOM     11  C   UNL     1      -0.017   1.425   0.010  0.00  0.00    +0.277 C 
ATOM     12  O   UNL     1       0.002  -0.004   0.002  0.00  0.00    -0.493 OA
ENDBRANCH   2  12
ENDBRANCH   1   4
BRANCH   1  13
ATOM     13  C   UNL     1       2.961  -0.411  -5.206  0.00  0.00    +0.349 C 
BRANCH  13  14
ATOM     14  C   UNL     1       3.518   0.578  -6.197  0.00  0.00    +0.345 C 
ATOM     15  O   UNL     1       3.398   1.764  -6.000  0.00  0.00    -0.247 OA
BRANCH  14  16
ATOM     16  O   UNL     1       4.147   0.141  -7.300  0.00  0.00    -0.462 OA
BRANCH  16  17
ATOM     17  C   UNL     1       4.649   1.135  -8.196  0.00  0.00    +0.237 C 
BRANCH  17  18
ATOM     18  C   UNL     1       5.328   0.452  -9.385  0.00  0.00    +0.083 C 
BRANCH  18  19
ATOM     19  C   UNL     1       5.858   1.499 -10.330  0.00  0.00    -0.007 A 
ATOM     20  C   UNL     1       7.076   2.094 -10.349  0.00  0.00    +0.011 A 
ATOM     21  C   UNL     1       7.346   3.039 -11.322  0.00  0.00    +0.008 A 
ATOM     22  C   UNL     1       6.384   3.343 -12.227  0.00  0.00    +0.045 A 
ATOM     23  S   UNL     1       5.048   2.272 -11.721  0.00  0.00    -0.101 S 
ENDBRANCH  18  19
ENDBRANCH  17  18
ENDBRANCH  16  17
ENDBRANCH  14  16
ENDBRANCH  13  14
ENDBRANCH   1  13
TORSDOF 9
