REMARK  Name = ZINC64670846
REMARK  13 active torsions:
REMARK  status: ('A' for Active; 'I' for Inactive)
REMARK    1  A    between atoms: C_1  and  C_2
REMARK    2  A    between atoms: C_4  and  C_12
REMARK    3  A    between atoms: C_12  and  C_13
REMARK    4  A    between atoms: C_13  and  C_14
REMARK    5  A    between atoms: C_14  and  N_15
REMARK    6  A    between atoms: N_15  and  C_16
REMARK    7  A    between atoms: C_16  and  C_17
REMARK    8  A    between atoms: C_20  and  C_23
REMARK    9  A    between atoms: C_23  and  C_24
REMARK   10  A    between atoms: C_26  and  O_35
REMARK   11  A    between atoms: C_29  and  O_30
REMARK   12  A    between atoms: O_30  and  C_31
REMARK   13  A    between atoms: O_35  and  C_36
REMARK                            x       y       z     vdW  Elec       q    Type
REMARK                         _______ _______ _______ _____ _____    ______ ____
ROOT
ATOM      1  C   UNL     1       2.582  -1.834  -8.221  0.00  0.00    +0.044 C 
ATOM      2  N   UNL     1       3.589  -2.519  -7.837  0.00  0.00    -0.096 NA
ATOM      3  O   UNL     1       4.344  -3.048  -8.908  0.00  0.00    -0.390 OA
ATOM      4  C   UNL     1       3.982  -2.316 -10.097  0.00  0.00    +0.214 C 
ATOM      5  C   UNL     1       2.555  -1.831  -9.738  0.00  0.00    +0.099 C 
ENDROOT
BRANCH   1   6
ATOM      6  C   UNL     1       1.586  -1.151  -7.320  0.00  0.00    -0.027 C 
BRANCH   6   7
ATOM      7  N   UNL     1       1.953  -1.385  -5.917  0.00  0.00    +0.383 N 
ATOM      8  H   UNL     1       2.874  -1.012  -5.744  0.00  0.00    -0.085 HD
ATOM      9  H   UNL     1       1.950  -2.377  -5.730  0.00  0.00    -0.085 HD
BRANCH   7  10
ATOM     10  C   UNL     1       0.982  -0.718  -5.039  0.00  0.00    -0.082 C 
BRANCH  10  11
ATOM     11  C   UNL     1       1.364  -0.963  -3.578  0.00  0.00    -0.015 C 
BRANCH  11  12
ATOM     12  C   UNL     1       0.353  -0.268  -2.664  0.00  0.00    +0.031 C 
BRANCH  12  15
ATOM     13  C   UNL     1      -0.019   1.526   0.010  0.00  0.00    +0.035 C 
ATOM     14  C   UNL     1       0.002  -0.004   0.002  0.00  0.00    +0.103 C 
ATOM     15  C   UNL     1       0.729  -0.509  -1.224  0.00  0.00    -0.039 C 
ATOM     16  C   UNL     1       1.785  -1.220  -0.768  0.00  0.00    -0.001 A 
ATOM     17  C   UNL     1       2.858  -1.954  -1.449  0.00  0.00    +0.010 A 
ATOM     18  C   UNL     1       3.797  -2.583  -0.705  0.00  0.00    +0.001 A 
ATOM     19  C   UNL     1       3.770  -2.551   0.696  0.00  0.00    +0.002 A 
ATOM     20  C   UNL     1       2.817  -1.897   1.393  0.00  0.00    +0.026 A 
ATOM     21  C   UNL     1       1.780  -1.201   0.712  0.00  0.00    +0.043 A 
ATOM     22  N   UNL     1       0.758  -0.506   1.155  0.00  0.00    -0.378 N 
ATOM     23  H   UNL     1       0.540  -0.349   2.087  0.00  0.00    +0.160 HD
ENDBRANCH  12  15
ENDBRANCH  11  12
ENDBRANCH  10  11
ENDBRANCH   7  10
ENDBRANCH   6   7
ENDBRANCH   1   6
BRANCH   4  24
ATOM     24  C   UNL     1       3.953  -3.235 -11.320  0.00  0.00    +0.086 C 
BRANCH  24  25
ATOM     25  C   UNL     1       5.349  -3.718 -11.618  0.00  0.00    +0.005 A 
ATOM     26  C   UNL     1       6.129  -3.048 -12.544  0.00  0.00    +0.057 A 
ATOM     27  C   UNL     1       7.412  -3.489 -12.821  0.00  0.00    +0.166 A 
ATOM     28  C   UNL     1       7.921  -4.606 -12.168  0.00  0.00    +0.211 A 
ATOM     29  C   UNL     1       7.138  -5.279 -11.238  0.00  0.00    +0.211 A 
ATOM     30  C   UNL     1       5.852  -4.828 -10.960  0.00  0.00    +0.169 A 
ATOM     31  O   UNL     1       7.855  -6.330 -10.742  0.00  0.00    -0.449 OA
ATOM     32  C   UNL     1       8.932  -6.535 -11.675  0.00  0.00    +0.467 C 
ATOM     33  O   UNL     1       9.131  -5.234 -12.258  0.00  0.00    -0.449 OA
BRANCH  30  34
ATOM     34  O   UNL     1       5.086  -5.482 -10.046  0.00  0.00    -0.491 OA
ATOM     35  C   UNL     1       4.263  -6.546 -10.530  0.00  0.00    +0.277 C 
ENDBRANCH  30  34
BRANCH  27  36
ATOM     36  O   UNL     1       8.176  -2.828 -13.733  0.00  0.00    -0.491 OA
ATOM     37  C   UNL     1       7.591  -1.689 -14.367  0.00  0.00    +0.277 C 
ENDBRANCH  27  36
ENDBRANCH  24  25
ENDBRANCH   4  24
TORSDOF 10
