REMARK  Name = ZINC16780578
REMARK  11 active torsions:
REMARK  status: ('A' for Active; 'I' for Inactive)
REMARK    1  A    between atoms: C_1  and  C_2
REMARK    2  A    between atoms: C_2  and  N_74
REMARK    3  A    between atoms: C_3  and  C_4
REMARK    4  A    between atoms: C_3  and  N_74
REMARK    5  A    between atoms: C_5  and  C_6
REMARK    6  A    between atoms: C_5  and  N_74
REMARK    7  A    between atoms: C_9  and  C_12
REMARK    8  A    between atoms: C_12  and  N_13
REMARK    9  A    between atoms: C_14  and  C_16
REMARK   10  A    between atoms: N_19  and  S_22
REMARK   11  A    between atoms: S_22  and  C_25
REMARK                            x       y       z     vdW  Elec       q    Type
REMARK                         _______ _______ _______ _____ _____    ______ ____
ROOT
ATOM      1  C   UNL     1      -2.970   1.313   8.293  0.00  0.00    +0.077 C 
ATOM      2  C   UNL     1      -3.069  -0.204   8.121  0.00  0.00    +0.030 C 
ATOM      3  C   UNL     1      -2.505  -0.893   9.368  0.00  0.00    +0.110 C 
ATOM      4  N   UNL     1      -3.203  -0.372  10.552  0.00  0.00    -0.177 NA
ATOM      5  C   UNL     1      -3.246   1.081  10.764  0.00  0.00    +0.110 C 
ATOM      6  C   UNL     1      -3.801   1.748   9.502  0.00  0.00    +0.030 C 
ENDROOT
BRANCH   1   8
ATOM      7  N   UNL     1      -2.910   1.761   5.861  0.00  0.00    -0.311 N 
ATOM      8  C   UNL     1      -3.492   1.994   7.054  0.00  0.00    +0.216 C 
ATOM      9  O   UNL     1      -4.436   2.751   7.130  0.00  0.00    -0.276 OA
ATOM     10  H   UNL     1      -2.155   1.155   5.800  0.00  0.00    +0.149 HD
BRANCH   7  11
ATOM     11  C   UNL     1      -3.417   2.422   4.656  0.00  0.00    +0.139 C 
BRANCH  11  15
ATOM     12  C   UNL     1      -1.098   1.213   1.279  0.00  0.00    -0.064 A 
ATOM     13  C   UNL     1      -0.721   2.321   2.015  0.00  0.00    +0.002 A 
ATOM     14  C   UNL     1      -1.474   2.715   3.106  0.00  0.00    +0.005 A 
ATOM     15  C   UNL     1      -2.599   1.995   3.465  0.00  0.00    -0.030 A 
ATOM     16  C   UNL     1      -2.972   0.884   2.732  0.00  0.00    +0.005 A 
ATOM     17  C   UNL     1      -2.222   0.493   1.640  0.00  0.00    +0.002 A 
BRANCH  12  18
ATOM     18  C   UNL     1      -0.280   0.786   0.088  0.00  0.00    -0.043 C 
BRANCH  18  19
ATOM     19  N   UNL     1      -0.819   1.444  -1.121  0.00  0.00    +0.382 N 
ATOM     20  H   UNL     1      -1.830   1.275  -1.170  0.00  0.00    -0.081 HD
BRANCH  19  22
ATOM     21  C   UNL     1       0.922   3.196  -0.999  0.00  0.00    -0.017 C 
ATOM     22  C   UNL     1      -0.579   2.901  -1.052  0.00  0.00    -0.082 C 
ENDBRANCH  19  22
BRANCH  19  23
ATOM     23  C   UNL     1      -0.178   0.883  -2.329  0.00  0.00    -0.082 C 
ATOM     24  C   UNL     1      -0.991   1.303  -3.556  0.00  0.00    -0.017 C 
ENDBRANCH  19  23
ENDBRANCH  18  19
ENDBRANCH  12  18
ENDBRANCH  11  15
ENDBRANCH   7  11
ENDBRANCH   1   8
BRANCH   4  25
ATOM     25  S   UNL     1      -3.926  -1.404  11.627  0.00  0.00    +0.061 S 
ATOM     26  O   UNL     1      -3.270  -2.657  11.491  0.00  0.00    -0.153 OA
ATOM     27  O   UNL     1      -3.999  -0.713  12.866  0.00  0.00    -0.153 OA
BRANCH  25  28
ATOM     28  C   UNL     1      -5.585  -1.642  11.084  0.00  0.00    +0.106 A 
ATOM     29  C   UNL     1      -6.590  -0.806  11.535  0.00  0.00    +0.029 A 
ATOM     30  C   UNL     1      -7.885  -0.997  11.103  0.00  0.00    +0.006 A 
ATOM     31  C   UNL     1      -8.193  -2.030  10.227  0.00  0.00    -0.044 A 
ATOM     32  C   UNL     1      -7.193  -2.864   9.780  0.00  0.00    -0.042 A 
ATOM     33  C   UNL     1      -5.888  -2.667  10.212  0.00  0.00    +0.032 A 
ATOM     34  C   UNL     1      -7.451  -3.998   8.822  0.00  0.00    +0.035 C 
ATOM     35  C   UNL     1      -8.938  -4.344   8.788  0.00  0.00    +0.005 C 
ATOM     36  C   UNL     1      -9.730  -3.053   8.552  0.00  0.00    +0.005 C 
ATOM     37  C   UNL     1      -9.630  -2.189   9.807  0.00  0.00    +0.035 C 
ENDBRANCH  25  28
ENDBRANCH   4  25
TORSDOF 9
