REMARK  Name = ZINC40152315
REMARK  9 active torsions:
REMARK  status: ('A' for Active; 'I' for Inactive)
REMARK    1  A    between atoms: C_1  and  C_2
REMARK    2  A    between atoms: C_2  and  C_3
REMARK    3  A    between atoms: C_2  and  C_4
REMARK    4  A    between atoms: C_2  and  C_5
REMARK    5  A    between atoms: C_5  and  C_7
REMARK    6  A    between atoms: C_5  and  N_12
REMARK    7  A    between atoms: N_15  and  C_16
REMARK    8  A    between atoms: C_21  and  N_22
REMARK    9  A    between atoms: C_25  and  O_28
REMARK                            x       y       z     vdW  Elec       q    Type
REMARK                         _______ _______ _______ _____ _____    ______ ____
ROOT
ATOM      1  N   UNL     1       0.021  -0.021  -2.454  0.00  0.00    -0.291 N 
ATOM      2  C   UNL     1      -1.040  -0.703  -2.932  0.00  0.00    +0.304 C 
ATOM      3  O   UNL     1      -1.405  -1.723  -2.379  0.00  0.00    -0.252 OA
ATOM      4  N   UNL     1      -1.694  -0.254  -4.021  0.00  0.00    -0.268 N 
ATOM      5  H   UNL     1       0.312   0.793  -2.895  0.00  0.00    +0.151 HD
ATOM      6  H   UNL     1      -1.456   0.600  -4.412  0.00  0.00    +0.156 HD
ENDROOT
BRANCH   4   7
ATOM      7  C   UNL     1      -2.721  -1.023  -4.588  0.00  0.00    +0.056 A 
ATOM      8  C   UNL     1      -2.744  -2.397  -4.402  0.00  0.00    +0.025 A 
ATOM      9  C   UNL     1      -3.757  -3.153  -4.962  0.00  0.00    +0.002 A 
ATOM     10  C   UNL     1      -4.749  -2.543  -5.708  0.00  0.00    +0.002 A 
ATOM     11  C   UNL     1      -4.734  -1.174  -5.898  0.00  0.00    +0.025 A 
ATOM     12  C   UNL     1      -3.725  -0.407  -5.334  0.00  0.00    +0.051 A 
BRANCH  12  13
ATOM     13  N   UNL     1      -3.711   0.980  -5.519  0.00  0.00    -0.328 N 
ATOM     14  C   UNL     1      -3.019   1.574  -6.671  0.00  0.00    +0.107 C 
ATOM     15  C   UNL     1      -2.035   2.633  -6.162  0.00  0.00    +0.050 C 
ATOM     16  C   UNL     1      -2.785   3.643  -5.290  0.00  0.00    +0.118 C 
ATOM     17  C   UNL     1      -3.390   2.925  -4.082  0.00  0.00    +0.050 C 
ATOM     18  C   UNL     1      -4.393   1.869  -4.570  0.00  0.00    +0.107 C 
BRANCH  16  19
ATOM     19  O   UNL     1      -1.877   4.650  -4.840  0.00  0.00    -0.392 OA
ATOM     20  H   UNL     1      -2.285   5.326  -4.281  0.00  0.00    +0.210 HD
ENDBRANCH  16  19
ENDBRANCH  12  13
ENDBRANCH   4   7
BRANCH   1  21
ATOM     21  C   UNL     1       0.732  -0.508  -1.270  0.00  0.00    +0.117 C 
BRANCH  21  22
ATOM     22  C   UNL     1       2.150   0.003  -1.290  0.00  0.00    +0.011 A 
ATOM     23  C   UNL     1       3.294  -0.641  -0.955  0.00  0.00    +0.013 A 
ATOM     24  C   UNL     1       4.497   0.033  -1.053  0.00  0.00    +0.008 A 
ATOM     25  C   UNL     1       4.496   1.319  -1.482  0.00  0.00    +0.045 A 
ATOM     26  S   UNL     1       2.758   1.611  -1.770  0.00  0.00    -0.100 S 
ENDBRANCH  21  22
BRANCH  21  28
ATOM     27  C   UNL     1       0.018   1.523  -0.004  0.00  0.00    +0.013 C 
ATOM     28  C   UNL     1       0.027  -0.006  -0.009  0.00  0.00    -0.015 C 
ATOM     29  C   UNL     1       0.771  -0.516   1.228  0.00  0.00    +0.013 C 
ATOM     30  C   UNL     1      -1.412  -0.525   0.012  0.00  0.00    +0.013 C 
ENDBRANCH  21  28
ENDBRANCH   1  21
TORSDOF 6
