REMARK  Name = ZINC05517052
REMARK  7 active torsions:
REMARK  status: ('A' for Active; 'I' for Inactive)
REMARK    1  A    between atoms: C_1  and  C_2
REMARK    2  A    between atoms: C_2  and  C_5
REMARK    3  A    between atoms: N_3  and  O_4
REMARK    4  A    between atoms: C_8  and  N_11
REMARK    5  A    between atoms: C_12  and  C_13
REMARK    6  A    between atoms: C_17  and  C_21
REMARK    7  A    between atoms: C_17  and  C_22
REMARK                            x       y       z     vdW  Elec       q    Type
REMARK                         _______ _______ _______ _____ _____    ______ ____
ROOT
ATOM      1  N   UNL     1      -0.007  -2.780  -4.867  0.00  0.00    -0.255 NA
ATOM      2  C   UNL     1       0.801  -3.791  -5.044  0.00  0.00    +0.126 C 
ENDROOT
BRANCH   2   3
ATOM      3  C   UNL     1       0.799  -4.518  -6.319  0.00  0.00    +0.078 C 
ATOM      4  C   UNL     1      -0.069  -4.115  -7.337  0.00  0.00    +0.168 C 
ATOM      5  O   UNL     1      -0.814  -3.166  -7.156  0.00  0.00    -0.292 OA
ATOM      6  C   UNL     1      -0.092  -4.842  -8.656  0.00  0.00    +0.086 C 
ATOM      7  C   UNL     1       0.296  -6.306  -8.436  0.00  0.00    -0.021 C 
ATOM      8  C   UNL     1       1.684  -6.364  -7.792  0.00  0.00    +0.086 C 
ATOM      9  C   UNL     1       1.668  -5.596  -6.496  0.00  0.00    +0.168 C 
ATOM     10  O   UNL     1       2.418  -5.923  -5.590  0.00  0.00    -0.292 OA
ATOM     11  C   UNL     1       0.325  -7.036  -9.781  0.00  0.00    +0.012 C 
ATOM     12  C   UNL     1      -0.725  -6.973  -7.512  0.00  0.00    +0.012 C 
ENDBRANCH   2   3
BRANCH   1  16
ATOM     13  C   UNL     1      -0.000  -0.734  -1.279  0.00  0.00    -0.001 A 
ATOM     14  C   UNL     1      -0.015  -0.029  -2.486  0.00  0.00    +0.012 A 
ATOM     15  C   UNL     1      -0.017  -0.705  -3.672  0.00  0.00    +0.028 A 
ATOM     16  C   UNL     1      -0.004  -2.103  -3.680  0.00  0.00    +0.064 A 
ATOM     17  C   UNL     1       0.011  -2.809  -2.473  0.00  0.00    +0.028 A 
ATOM     18  C   UNL     1       0.019  -2.132  -1.286  0.00  0.00    +0.012 A 
BRANCH  13  20
ATOM     19  C   UNL     1      -0.018   1.503   0.010  0.00  0.00    +0.069 C 
ATOM     20  C   UNL     1       0.002  -0.004   0.002  0.00  0.00    +0.084 C 
ATOM     21  N   UNL     1       0.022  -0.657   1.119  0.00  0.00    -0.092 NA
BRANCH  21  22
ATOM     22  O   UNL     1       0.024   0.044   2.350  0.00  0.00    -0.409 OA
ATOM     23  H   UNL     1       0.039  -0.528   3.129  0.00  0.00    +0.328 HD
ENDBRANCH  21  22
ENDBRANCH  13  20
ENDBRANCH   1  16
TORSDOF 4
