REMARK  Name = ZINC38788953
REMARK  5 active torsions:
REMARK  status: ('A' for Active; 'I' for Inactive)
REMARK    1  A    between atoms: C_1  and  S_2
REMARK    2  A    between atoms: S_2  and  C_3
REMARK    3  A    between atoms: C_6  and  N_9
REMARK    4  A    between atoms: N_9  and  C_10
REMARK    5  A    between atoms: C_10  and  C_11
REMARK                            x       y       z     vdW  Elec       q    Type
REMARK                         _______ _______ _______ _____ _____    ______ ____
ROOT
ATOM      1  C   UNL     1      -7.644  -3.044   0.067  0.00  0.00    +0.115 C 
ATOM      2  C   UNL     1      -8.000  -4.500   0.291  0.00  0.00    -0.003 C 
ATOM      3  C   UNL     1      -8.766  -5.109  -0.653  0.00  0.00    -0.003 A 
ATOM      4  C   UNL     1      -9.153  -6.513  -0.513  0.00  0.00    +0.059 A 
ATOM      5  C   UNL     1      -9.921  -7.094  -1.474  0.00  0.00    +0.163 A 
ATOM      6  C   UNL     1     -10.352  -6.364  -2.601  0.00  0.00    +0.164 A 
ATOM      7  C   UNL     1     -10.012  -5.039  -2.780  0.00  0.00    +0.073 A 
ATOM      8  C   UNL     1      -9.224  -4.364  -1.841  0.00  0.00    +0.044 A 
ATOM      9  N   UNL     1      -8.907  -3.081  -2.035  0.00  0.00    -0.284 N 
ATOM     10  C   UNL     1      -8.169  -2.386  -1.189  0.00  0.00    +0.226 C 
ATOM     11  O   UNL     1      -7.912  -1.219  -1.420  0.00  0.00    -0.275 OA
ATOM     12  O   UNL     1     -11.128  -6.960  -3.546  0.00  0.00    -0.485 OA
ATOM     13  C   UNL     1     -11.152  -8.390  -3.556  0.00  0.00    +0.270 C 
ATOM     14  C   UNL     1     -11.357  -8.880  -2.116  0.00  0.00    +0.270 C 
ATOM     15  O   UNL     1     -10.265  -8.405  -1.323  0.00  0.00    -0.485 OA
ATOM     16  H   UNL     1      -9.234  -2.640  -2.834  0.00  0.00    +0.155 HD
ENDROOT
BRANCH   1  17
ATOM     17  C   UNL     1      -6.118  -2.931   0.053  0.00  0.00    +0.118 C 
BRANCH  17  18
ATOM     18  N   UNL     1      -5.733  -1.517   0.050  0.00  0.00    -0.343 N 
ATOM     19  H   UNL     1      -6.416  -0.829   0.057  0.00  0.00    +0.146 HD
BRANCH  18  23
ATOM     20  C   UNL     1      -1.702  -0.454   0.016  0.00  0.00    +0.008 A 
ATOM     21  C   UNL     1      -2.680   0.532   0.025  0.00  0.00    +0.016 A 
ATOM     22  C   UNL     1      -4.015   0.180   0.036  0.00  0.00    +0.024 A 
ATOM     23  C   UNL     1      -4.380  -1.160   0.038  0.00  0.00    +0.027 A 
ATOM     24  C   UNL     1      -3.401  -2.146   0.029  0.00  0.00    +0.024 A 
ATOM     25  C   UNL     1      -2.067  -1.794   0.012  0.00  0.00    +0.016 A 
BRANCH  20  27
ATOM     26  C   UNL     1      -0.022   1.810   0.012  0.00  0.00    +0.090 C 
ATOM     27  S   UNL     1       0.002  -0.004   0.002  0.00  0.00    -0.129 S 
ENDBRANCH  20  27
ENDBRANCH  18  23
ENDBRANCH  17  18
ENDBRANCH   1  17
TORSDOF 4
