REMARK  Name = ZINC40169650
REMARK  4 active torsions:
REMARK  status: ('A' for Active; 'I' for Inactive)
REMARK    1  A    between atoms: C_5  and  C_6
REMARK    2  A    between atoms: C_10  and  C_12
REMARK    3  A    between atoms: C_14  and  N_19
REMARK    4  A    between atoms: C_16  and  N_18
REMARK                            x       y       z     vdW  Elec       q    Type
REMARK                         _______ _______ _______ _____ _____    ______ ____
ROOT
ATOM      1  C   UNL     1      -1.177  -0.884   0.009  0.00  0.00    +0.192 A 
ATOM      2  N   UNL     1      -1.162  -2.246   0.007  0.00  0.00    -0.256 N 
ATOM      3  H   UNL     1      -0.380  -2.819   0.001  0.00  0.00    +0.191 HD
ATOM      4  N   UNL     1      -2.506  -2.655   0.017  0.00  0.00    -0.152 NA
ATOM      5  C   UNL     1      -3.240  -1.564   0.024  0.00  0.00    +0.182 A 
ATOM      6  N   UNL     1      -2.438  -0.494   0.024  0.00  0.00    -0.204 NA
ENDROOT
BRANCH   1  11
ATOM      7  C   UNL     1      -0.016   1.358   0.009  0.00  0.00    +0.054 A 
ATOM      8  C   UNL     1       1.325   1.782  -0.001  0.00  0.00    +0.057 A 
ATOM      9  C   UNL     1       2.092   0.670  -0.014  0.00  0.00    +0.171 A 
ATOM     10  O   UNL     1       1.289  -0.406  -0.012  0.00  0.00    -0.445 OA
ATOM     11  C   UNL     1       0.002  -0.004   0.002  0.00  0.00    +0.173 A 
ATOM     12 BR   UNL     1       3.982   0.635  -0.033  0.00  0.00    -0.008 Br
ENDBRANCH   1  11
BRANCH   5  13
ATOM     13  C   UNL     1      -4.724  -1.526   0.035  0.00  0.00    +0.024 A 
ATOM     14  C   UNL     1      -5.390  -0.304   0.035  0.00  0.00    +0.034 A 
ATOM     15  C   UNL     1      -6.778  -0.271   0.045  0.00  0.00    +0.027 A 
ATOM     16  C   UNL     1      -7.501  -1.456   0.055  0.00  0.00    +0.045 A 
ATOM     17  C   UNL     1      -6.839  -2.676   0.055  0.00  0.00    +0.027 A 
ATOM     18  C   UNL     1      -5.452  -2.713   0.039  0.00  0.00    +0.034 A 
BRANCH  17  19
ATOM     19  N   UNL     1      -7.569  -3.866   0.066  0.00  0.00    -0.358 N 
ATOM     20  H   UNL     1      -8.539  -3.841   0.073  0.00  0.00    +0.142 HD
ATOM     21  H   UNL     1      -7.107  -4.719   0.066  0.00  0.00    +0.142 HD
ENDBRANCH  17  19
BRANCH  15  22
ATOM     22  N   UNL     1      -7.447   0.956   0.046  0.00  0.00    -0.358 N 
ATOM     23  H   UNL     1      -6.941   1.784   0.040  0.00  0.00    +0.142 HD
ATOM     24  H   UNL     1      -8.416   0.979   0.053  0.00  0.00    +0.142 HD
ENDBRANCH  15  22
ENDBRANCH   5  13
TORSDOF 4
