REMARK  Name = ZINC05886224
REMARK  6 active torsions:
REMARK  status: ('A' for Active; 'I' for Inactive)
REMARK    1  A    between atoms: C_1  and  C_2
REMARK    2  A    between atoms: C_7  and  S_15
REMARK    3  A    between atoms: S_15  and  C_16
REMARK    4  A    between atoms: C_16  and  C_17
REMARK    5  A    between atoms: N_22  and  C_23
REMARK    6  A    between atoms: C_29  and  C_31
REMARK                            x       y       z     vdW  Elec       q    Type
REMARK                         _______ _______ _______ _____ _____    ______ ____
ROOT
ATOM      1  C   UNL     1       2.849  -2.921  -0.038  0.00  0.00    +0.173 C 
ENDROOT
BRANCH   1   2
ATOM      2  C   UNL     1       2.115  -4.237  -0.036  0.00  0.00    +0.231 C 
ATOM      3  O   UNL     1       0.903  -4.255  -0.024  0.00  0.00    -0.274 OA
ATOM      4  N   UNL     1       2.806  -5.394  -0.049  0.00  0.00    -0.239 N 
ATOM      5  C   UNL     1       2.150  -6.571  -0.047  0.00  0.00    +0.306 C 
ATOM      6  O   UNL     1       0.935  -6.589  -0.035  0.00  0.00    -0.252 OA
ATOM      7  N   UNL     1       2.841  -7.728  -0.059  0.00  0.00    -0.296 N 
ATOM      8  H   UNL     1       3.776  -5.379  -0.058  0.00  0.00    +0.159 HD
ATOM      9  H   UNL     1       3.811  -7.713  -0.069  0.00  0.00    +0.151 HD
BRANCH   7  10
ATOM     10  C   UNL     1       2.128  -9.008  -0.058  0.00  0.00    +0.077 C 
ATOM     11  C   UNL     1       1.755  -9.385  -1.493  0.00  0.00    +0.022 C 
ATOM     12  C   UNL     1       1.010 -10.722  -1.492  0.00  0.00    +0.002 C 
ATOM     13  C   UNL     1       1.909 -11.806  -0.896  0.00  0.00    +0.000 C 
ATOM     14  C   UNL     1       2.282 -11.429   0.539  0.00  0.00    +0.005 C 
ATOM     15  C   UNL     1       3.027 -10.092   0.537  0.00  0.00    +0.006 C 
ATOM     16  C   UNL     1       3.400  -9.715   1.972  0.00  0.00    +0.009 C 
ENDBRANCH   7  10
ENDBRANCH   1   2
BRANCH   1  17
ATOM     17  S   UNL     1       1.653  -1.563  -0.019  0.00  0.00    -0.076 S 
BRANCH  17  24
ATOM     18  C   UNL     1       2.410   5.444   0.006  0.00  0.00    +0.044 C 
ATOM     19  C   UNL     1       2.412   3.937  -0.001  0.00  0.00    -0.038 A 
ATOM     20  C   UNL     1       3.579   3.254  -0.016  0.00  0.00    +0.052 A 
ATOM     21  C   UNL     1       3.580   1.839  -0.023  0.00  0.00    +0.162 A 
ATOM     22  N   UNL     1       4.557   0.951  -0.037  0.00  0.00    -0.129 NA
ATOM     23  N   UNL     1       4.066  -0.237  -0.037  0.00  0.00    -0.122 NA
ATOM     24  C   UNL     1       2.752  -0.186  -0.024  0.00  0.00    +0.197 A 
ATOM     25  N   UNL     1       2.399   1.132  -0.015  0.00  0.00    -0.270 N 
ATOM     26  C   UNL     1       1.180   1.787   0.000  0.00  0.00    +0.058 A 
ATOM     27  C   UNL     1       1.149   3.193   0.008  0.00  0.00    +0.002 A 
ATOM     28  C   UNL     1      -0.079   3.861   0.023  0.00  0.00    +0.010 A 
ATOM     29  C   UNL     1      -1.250   3.136   0.030  0.00  0.00    +0.001 A 
ATOM     30  C   UNL     1      -1.216   1.750   0.017  0.00  0.00    +0.002 A 
ATOM     31  C   UNL     1      -0.013   1.076   0.008  0.00  0.00    +0.027 A 
ENDBRANCH  17  24
ENDBRANCH   1  17
TORSDOF 4
