REMARK  Name = ZINC38545560
REMARK  15 active torsions:
REMARK  status: ('A' for Active; 'I' for Inactive)
REMARK    1  A    between atoms: C_1  and  C_2
REMARK    2  A    between atoms: C_2  and  C_3
REMARK    3  A    between atoms: C_8  and  N_9
REMARK    4  A    between atoms: C_10  and  C_12
REMARK    5  A    between atoms: C_12  and  S_13
REMARK    6  A    between atoms: S_13  and  C_14
REMARK    7  A    between atoms: C_18  and  C_21
REMARK    8  A    between atoms: C_21  and  C_23
REMARK    9  A    between atoms: C_21  and  N_33
REMARK   10  A    between atoms: C_23  and  C_24
REMARK   11  A    between atoms: C_34  and  O_36
REMARK   12  A    between atoms: O_36  and  C_37
REMARK   13  A    between atoms: C_37  and  C_38
REMARK   14  A    between atoms: C_37  and  C_39
REMARK   15  A    between atoms: C_37  and  C_40
REMARK                            x       y       z     vdW  Elec       q    Type
REMARK                         _______ _______ _______ _____ _____    ______ ____
ROOT
ATOM      1  C   UNL     1       0.509   2.461  -7.220  0.00  0.00    +0.133 C 
ENDROOT
BRANCH   1   5
ATOM      2  C   UNL     1      -0.831   1.123 -10.212  0.00  0.00    +0.319 C 
ATOM      3  N   UNL     1      -1.712   0.691  -9.119  0.00  0.00    -0.146 NA
ATOM      4  N   UNL     1      -1.135   0.819  -8.031  0.00  0.00    -0.155 NA
ATOM      5  C   UNL     1       0.216   1.356  -8.237  0.00  0.00    +0.280 C 
ATOM      6  O   UNL     1       0.211   1.894  -9.578  0.00  0.00    -0.316 OA
BRANCH   2   7
ATOM      7  S   UNL     1      -1.748   2.155 -11.389  0.00  0.00    -0.095 S 
BRANCH   7   8
ATOM      8  C   UNL     1      -2.308   3.564 -10.395  0.00  0.00    +0.169 C 
BRANCH   8  10
ATOM      9  N   UNL     1      -3.815   5.506 -10.671  0.00  0.00    -0.285 N 
ATOM     10  C   UNL     1      -3.195   4.449 -11.232  0.00  0.00    +0.227 C 
ATOM     11  O   UNL     1      -3.352   4.209 -12.410  0.00  0.00    -0.275 OA
ATOM     12  H   UNL     1      -3.623   5.749  -9.752  0.00  0.00    +0.155 HD
BRANCH   9  18
ATOM     13  C   UNL     1      -5.079   7.536 -11.011  0.00  0.00    -0.026 A 
ATOM     14  C   UNL     1      -5.984   8.272 -11.750  0.00  0.00    +0.005 A 
ATOM     15  C   UNL     1      -6.553   7.730 -12.888  0.00  0.00    +0.000 A 
ATOM     16  C   UNL     1      -6.217   6.450 -13.290  0.00  0.00    +0.002 A 
ATOM     17  C   UNL     1      -5.313   5.709 -12.555  0.00  0.00    +0.023 A 
ATOM     18  C   UNL     1      -4.736   6.252 -11.414  0.00  0.00    +0.037 A 
BRANCH  13  20
ATOM     19  C   UNL     1      -3.064   8.660 -10.102  0.00  0.00    +0.009 C 
ATOM     20  C   UNL     1      -4.459   8.127  -9.771  0.00  0.00    +0.033 C 
ENDBRANCH  13  20
ENDBRANCH   9  18
ENDBRANCH   8  10
ENDBRANCH   7   8
ENDBRANCH   2   7
ENDBRANCH   1   5
BRANCH   1  21
ATOM     21  N   UNL     1       0.441   1.908  -5.865  0.00  0.00    -0.274 N 
ATOM     22  C   UNL     1       1.221   0.863  -5.524  0.00  0.00    +0.401 C 
ATOM     23  O   UNL     1       2.046   0.439  -6.309  0.00  0.00    -0.226 OA
ATOM     24  H   UNL     1      -0.166   2.294  -5.214  0.00  0.00    +0.152 HD
BRANCH  22  25
ATOM     25  O   UNL     1       1.086   0.290  -4.313  0.00  0.00    -0.445 OA
BRANCH  25  26
ATOM     26  C   UNL     1       1.897  -0.856  -4.044  0.00  0.00    +0.107 C 
ATOM     27  C   UNL     1       3.374  -0.464  -4.119  0.00  0.00    +0.055 C 
ATOM     28  C   UNL     1       1.580  -1.387  -2.644  0.00  0.00    +0.055 C 
ATOM     29  C   UNL     1       1.604  -1.942  -5.080  0.00  0.00    +0.055 C 
ENDBRANCH  25  26
ENDBRANCH  22  25
ENDBRANCH   1  21
BRANCH   1  30
ATOM     30  C   UNL     1       1.908   3.027  -7.470  0.00  0.00    +0.064 C 
BRANCH  30  31
ATOM     31  C   UNL     1       2.149   4.196  -6.550  0.00  0.00    -0.020 A 
ATOM     32  C   UNL     1       2.634   4.132  -5.169  0.00  0.00    +0.003 A 
ATOM     33  C   UNL     1       3.001   3.089  -4.317  0.00  0.00    +0.010 A 
ATOM     34  C   UNL     1       3.424   3.368  -3.047  0.00  0.00    +0.001 A 
ATOM     35  C   UNL     1       3.491   4.679  -2.598  0.00  0.00    +0.002 A 
ATOM     36  C   UNL     1       3.133   5.724  -3.423  0.00  0.00    +0.026 A 
ATOM     37  C   UNL     1       2.700   5.463  -4.719  0.00  0.00    +0.047 A 
ATOM     38  N   UNL     1       2.285   6.265  -5.758  0.00  0.00    -0.360 N 
ATOM     39  C   UNL     1       1.966   5.493  -6.842  0.00  0.00    +0.087 A 
ATOM     40  H   UNL     1       2.230   7.233  -5.728  0.00  0.00    +0.165 HD
ENDBRANCH  30  31
ENDBRANCH   1  30
TORSDOF 11
