REMARK  Name = ZINC66679391
REMARK  6 active torsions:
REMARK  status: ('A' for Active; 'I' for Inactive)
REMARK    1  A    between atoms: C_1  and  C_2
REMARK    2  A    between atoms: C_2  and  C_3
REMARK    3  A    between atoms: C_2  and  C_4
REMARK    4  A    between atoms: C_10  and  N_12
REMARK    5  A    between atoms: N_15  and  C_16
REMARK    6  A    between atoms: C_20  and  C_22
REMARK                            x       y       z     vdW  Elec       q    Type
REMARK                         _______ _______ _______ _____ _____    ______ ____
ROOT
ATOM      1  N   UNL     1       1.640  -2.454  -0.054  0.00  0.00    -0.296 N 
ATOM      2  C   UNL     1       1.358  -3.641  -0.625  0.00  0.00    +0.304 C 
ATOM      3  O   UNL     1       0.506  -4.361  -0.142  0.00  0.00    -0.253 OA
ATOM      4  N   UNL     1       2.020  -4.030  -1.733  0.00  0.00    -0.269 N 
ATOM      5  H   UNL     1       2.319  -1.879  -0.439  0.00  0.00    +0.151 HD
ATOM      6  H   UNL     1       2.647  -3.426  -2.160  0.00  0.00    +0.156 HD
ENDROOT
BRANCH   1  12
ATOM      7  C   UNL     1       0.877  -0.502   1.209  0.00  0.00    +0.012 C 
ATOM      8  C   UNL     1       0.126  -0.061   2.466  0.00  0.00    +0.005 C 
ATOM      9  C   UNL     1       0.844  -0.599   3.705  0.00  0.00    +0.000 C 
ATOM     10  C   UNL     1       0.886  -2.127   3.647  0.00  0.00    +0.002 C 
ATOM     11  C   UNL     1       1.638  -2.569   2.389  0.00  0.00    +0.022 C 
ATOM     12  C   UNL     1       0.920  -2.031   1.150  0.00  0.00    +0.078 C 
BRANCH   7  14
ATOM     13  C   UNL     1      -1.306  -0.403  -0.002  0.00  0.00    +0.007 C 
ATOM     14  C   UNL     1       0.160   0.036  -0.030  0.00  0.00    -0.012 C 
ATOM     15  C   UNL     1       0.234   1.564  -0.040  0.00  0.00    +0.007 C 
ENDBRANCH   7  14
ENDBRANCH   1  12
BRANCH   4  16
ATOM     16  C   UNL     1       1.804  -5.306  -2.265  0.00  0.00    +0.035 A 
ATOM     17  C   UNL     1       0.535  -5.871  -2.222  0.00  0.00    +0.023 A 
ATOM     18  C   UNL     1       0.318  -7.131  -2.747  0.00  0.00    +0.002 A 
ATOM     19  C   UNL     1       1.359  -7.835  -3.317  0.00  0.00    +0.010 A 
ATOM     20  C   UNL     1       2.635  -7.276  -3.365  0.00  0.00    +0.004 A 
ATOM     21  C   UNL     1       2.854  -6.004  -2.842  0.00  0.00    +0.033 A 
BRANCH  20  22
ATOM     22  C   UNL     1       3.756  -8.031  -3.977  0.00  0.00    +0.091 A 
ATOM     23  C   UNL     1       3.526  -9.318  -4.517  0.00  0.00    +0.035 A 
ATOM     24  C   UNL     1       4.580  -9.983  -5.072  0.00  0.00    +0.073 A 
ATOM     25  C   UNL     1       5.839  -9.342  -5.073  0.00  0.00    +0.265 A 
ATOM     26  O   UNL     1       6.811  -9.898  -5.559  0.00  0.00    -0.266 OA
ATOM     27  N   UNL     1       5.959  -8.114  -4.535  0.00  0.00    -0.243 N 
ATOM     28  H   UNL     1       6.826  -7.680  -4.539  0.00  0.00    +0.192 HD
ATOM     29  N   UNL     1       4.955  -7.500  -4.021  0.00  0.00    -0.171 NA
ENDBRANCH  20  22
ENDBRANCH   4  16
TORSDOF 4
