REMARK  Name = ZINC09135565
REMARK  8 active torsions:
REMARK  status: ('A' for Active; 'I' for Inactive)
REMARK    1  A    between atoms: C_1  and  N_2
REMARK    2  A    between atoms: C_10  and  C_12
REMARK    3  A    between atoms: C_12  and  C_14
REMARK    4  A    between atoms: C_12  and  N_66
REMARK    5  A    between atoms: C_14  and  N_15
REMARK    6  A    between atoms: C_16  and  C_18
REMARK    7  A    between atoms: N_20  and  C_21
REMARK    8  A    between atoms: C_21  and  C_22
REMARK                            x       y       z     vdW  Elec       q    Type
REMARK                         _______ _______ _______ _____ _____    ______ ____
ROOT
ATOM      1  C   UNL     1      10.493  -2.113  -0.649  0.00  0.00    +0.094 C 
ENDROOT
BRANCH   1   2
ATOM      2  N   UNL     1      10.579  -1.009  -1.607  0.00  0.00    -0.309 N 
ATOM      3  C   UNL     1       9.514  -0.693  -2.370  0.00  0.00    +0.299 C 
ATOM      4  O   UNL     1       8.483  -1.324  -2.262  0.00  0.00    -0.265 OA
ATOM      5  H   UNL     1      11.403  -0.504  -1.693  0.00  0.00    +0.149 HD
BRANCH   3   6
ATOM      6  C   UNL     1       9.602   0.434  -3.347  0.00  0.00    +0.299 C 
ATOM      7  O   UNL     1      10.633   1.065  -3.454  0.00  0.00    -0.265 OA
ATOM      8  N   UNL     1       8.536   0.749  -4.110  0.00  0.00    -0.303 N 
ATOM      9  H   UNL     1       7.712   0.245  -4.024  0.00  0.00    +0.149 HD
BRANCH   8  10
ATOM     10  C   UNL     1       8.622   1.854  -5.068  0.00  0.00    +0.140 C 
BRANCH  10  11
ATOM     11  C   UNL     1       7.306   1.998  -5.788  0.00  0.00    -0.027 A 
ATOM     12  C   UNL     1       6.326   2.826  -5.274  0.00  0.00    +0.009 A 
ATOM     13  C   UNL     1       5.117   2.961  -5.930  0.00  0.00    +0.050 A 
ATOM     14  C   UNL     1       4.886   2.267  -7.107  0.00  0.00    +0.166 A 
ATOM     15  C   UNL     1       5.874   1.434  -7.625  0.00  0.00    +0.167 A 
ATOM     16  C   UNL     1       7.083   1.303  -6.962  0.00  0.00    +0.054 A 
ATOM     17  O   UNL     1       5.408   0.870  -8.778  0.00  0.00    -0.453 OA
ATOM     18  C   UNL     1       4.285   1.678  -9.175  0.00  0.00    +0.466 C 
ATOM     19  O   UNL     1       3.801   2.225  -7.934  0.00  0.00    -0.453 OA
ENDBRANCH  10  11
ENDBRANCH   8  10
ENDBRANCH   3   6
ENDBRANCH   1   2
BRANCH   1  20
ATOM     20  C   UNL     1      11.865  -2.345  -0.012  0.00  0.00    -0.020 C 
BRANCH  20  30
ATOM     21  C   UNL     1      14.868  -5.236  -4.759  0.00  0.00    +0.129 C 
ATOM     22  N   UNL     1      15.505  -4.181  -3.960  0.00  0.00    -0.333 N 
ATOM     23  C   UNL     1      16.070  -3.139  -4.821  0.00  0.00    +0.105 C 
ATOM     24  C   UNL     1      16.695  -2.055  -3.934  0.00  0.00    +0.024 C 
ATOM     25  C   UNL     1      15.562  -1.338  -3.196  0.00  0.00    +0.038 C 
ATOM     26  C   UNL     1      14.620  -2.355  -2.603  0.00  0.00    -0.026 A 
ATOM     27  C   UNL     1      14.626  -3.681  -3.000  0.00  0.00    +0.033 A 
ATOM     28  C   UNL     1      13.722  -4.574  -2.422  0.00  0.00    +0.023 A 
ATOM     29  C   UNL     1      12.837  -4.144  -1.457  0.00  0.00    +0.004 A 
ATOM     30  C   UNL     1      12.834  -2.818  -1.065  0.00  0.00    -0.059 A 
ATOM     31  C   UNL     1      13.724  -1.929  -1.635  0.00  0.00    +0.007 A 
ENDBRANCH  20  30
BRANCH  20  36
ATOM     32  C   UNL     1      13.066  -3.613   1.684  0.00  0.00    -0.078 C 
ATOM     33  C   UNL     1      12.681  -4.256   3.040  0.00  0.00    -0.020 C 
ATOM     34  C   UNL     1      11.407  -3.479   3.442  0.00  0.00    -0.020 C 
ATOM     35  C   UNL     1      10.853  -2.905   2.125  0.00  0.00    -0.078 C 
ATOM     36  N   UNL     1      11.752  -3.371   1.068  0.00  0.00    +0.385 N 
ATOM     37  H   UNL     1      11.391  -4.244   0.666  0.00  0.00    -0.081 HD
ENDBRANCH  20  36
ENDBRANCH   1  20
TORSDOF 7
