REMARK  Name = ZINC51996592
REMARK  6 active torsions:
REMARK  status: ('A' for Active; 'I' for Inactive)
REMARK    1  A    between atoms: C_1  and  C_2
REMARK    2  A    between atoms: C_3  and  C_9
REMARK    3  A    between atoms: N_5  and  C_7
REMARK    4  A    between atoms: C_10  and  C_11
REMARK    5  A    between atoms: N_13  and  C_14
REMARK    6  A    between atoms: C_20  and  O_22
REMARK                            x       y       z     vdW  Elec       q    Type
REMARK                         _______ _______ _______ _____ _____    ______ ____
ROOT
ATOM      1  C   UNL     1       0.882  -0.439  -4.772  0.00  0.00    +0.237 C 
ATOM      2  O   UNL     1       0.061   0.382  -5.139  0.00  0.00    -0.271 OA
ATOM      3  N   UNL     1       1.779  -0.933  -5.648  0.00  0.00    -0.307 N 
ATOM      4  H   UNL     1       2.433  -1.587  -5.355  0.00  0.00    +0.149 HD
ENDROOT
BRANCH   3   5
ATOM      5  C   UNL     1       1.766  -0.484  -7.042  0.00  0.00    +0.102 C 
ATOM      6  C   UNL     1       0.754  -1.312  -7.836  0.00  0.00    +0.025 C 
ATOM      7  C   UNL     1       0.740  -0.842  -9.292  0.00  0.00    +0.002 C 
ATOM      8  C   UNL     1       2.134  -1.022  -9.899  0.00  0.00    +0.003 C 
ATOM      9  C   UNL     1       3.146  -0.194  -9.105  0.00  0.00    +0.033 C 
ATOM     10  C   UNL     1       3.159  -0.663  -7.649  0.00  0.00    +0.135 C 
BRANCH  10  11
ATOM     11  O   UNL     1       4.105   0.110  -6.907  0.00  0.00    -0.390 OA
ATOM     12  H   UNL     1       5.012   0.044  -7.237  0.00  0.00    +0.210 HD
ENDBRANCH  10  11
ENDBRANCH   3   5
BRANCH   1  14
ATOM     13  C   UNL     1      -0.005  -0.378  -2.545  0.00  0.00    +0.018 C 
ATOM     14  C   UNL     1       0.894  -0.874  -3.423  0.00  0.00    +0.068 C 
BRANCH  13  17
ATOM     15  C   UNL     1      -0.018   1.503   0.010  0.00  0.00    +0.068 C 
ATOM     16  C   UNL     1       0.002  -0.004   0.002  0.00  0.00    +0.069 A 
ATOM     17  C   UNL     1       0.008  -0.829  -1.147  0.00  0.00    +0.034 A 
ATOM     18  C   UNL     1       0.028  -2.142  -0.706  0.00  0.00    +0.134 A 
ATOM     19  N   UNL     1       0.034  -2.112   0.638  0.00  0.00    -0.255 N 
ATOM     20  N   UNL     1       0.023  -0.776   1.053  0.00  0.00    -0.175 NA
ATOM     21  C   UNL     1       0.053  -3.281   1.520  0.00  0.00    +0.174 C 
ATOM     22 CL   UNL     1       0.042  -3.562  -1.704  0.00  0.00    -0.062 Cl
ENDBRANCH  13  17
ENDBRANCH   1  14
TORSDOF 4
