REMARK  Name = ZINC18200433
REMARK  7 active torsions:
REMARK  status: ('A' for Active; 'I' for Inactive)
REMARK    1  A    between atoms: C_1  and  O_2
REMARK    2  A    between atoms: O_2  and  C_3
REMARK    3  A    between atoms: C_6  and  C_11
REMARK    4  A    between atoms: C_8  and  O_9
REMARK    5  A    between atoms: O_9  and  C_10
REMARK    6  A    between atoms: C_16  and  C_29
REMARK    7  A    between atoms: C_32  and  C_35
REMARK                            x       y       z     vdW  Elec       q    Type
REMARK                         _______ _______ _______ _____ _____    ______ ____
ROOT
ATOM      1  C   UNL     1      -0.734   1.582   1.266  0.00  0.00    +0.032 C 
ATOM      2  C   UNL     1      -2.190   1.109   1.205  0.00  0.00    +0.059 C 
ATOM      3  C   UNL     1      -2.844   1.636  -0.049  0.00  0.00    +0.017 C 
ATOM      4  C   UNL     1      -2.126   1.842  -1.173  0.00  0.00    +0.024 C 
ATOM      5  C   UNL     1      -2.785   2.350  -2.430  0.00  0.00    +0.092 C 
ATOM      6  C   UNL     1      -4.116   2.974  -2.132  0.00  0.00    +0.067 A 
ATOM      7  C   UNL     1      -4.758   2.726  -0.957  0.00  0.00    +0.113 A 
ATOM      8  N   UNL     1      -5.981   3.304  -0.717  0.00  0.00    -0.295 N 
ATOM      9  H   UNL     1      -6.457   3.123   0.144  0.00  0.00    +0.172 HD
ATOM     10  C   UNL     1      -6.542   4.114  -1.634  0.00  0.00    +0.328 A 
ATOM     11  O   UNL     1      -7.626   4.616  -1.407  0.00  0.00    -0.247 OA
ATOM     12  N   UNL     1      -5.922   4.375  -2.799  0.00  0.00    -0.275 N 
ATOM     13  H   UNL     1      -6.355   4.980  -3.466  0.00  0.00    +0.173 HD
ATOM     14  C   UNL     1      -4.722   3.827  -3.074  0.00  0.00    +0.260 A 
ATOM     15  O   UNL     1      -4.165   4.068  -4.131  0.00  0.00    -0.267 OA
ATOM     16  N   UNL     1      -4.186   1.903  -0.019  0.00  0.00    -0.303 N 
ATOM     17  C   UNL     1      -0.744   1.586  -1.208  0.00  0.00    +0.162 C 
ATOM     18  O   UNL     1      -0.129   1.772  -2.239  0.00  0.00    -0.292 OA
ATOM     19  C   UNL     1      -0.013   1.086   0.008  0.00  0.00    +0.088 C 
ATOM     20  H   UNL     1      -4.739   1.506   0.672  0.00  0.00    +0.153 HD
ENDROOT
BRANCH   1  24
ATOM     21  C   UNL     1       1.166  -0.035   4.739  0.00  0.00    +0.161 A 
ATOM     22  C   UNL     1       0.620  -0.881   3.788  0.00  0.00    +0.049 A 
ATOM     23  C   UNL     1       0.006  -0.355   2.666  0.00  0.00    +0.008 A 
ATOM     24  C   UNL     1      -0.064   1.014   2.491  0.00  0.00    -0.040 A 
ATOM     25  C   UNL     1       0.483   1.864   3.433  0.00  0.00    +0.053 A 
ATOM     26  C   UNL     1       1.095   1.344   4.563  0.00  0.00    +0.162 A 
BRANCH  21  28
ATOM     27  C   UNL     1       1.805  -1.974   5.958  0.00  0.00    +0.277 C 
ATOM     28  O   UNL     1       1.770  -0.550   5.843  0.00  0.00    -0.491 OA
ENDBRANCH  21  28
BRANCH  26  29
ATOM     29  O   UNL     1       1.630   2.178   5.494  0.00  0.00    -0.491 OA
ATOM     30  C   UNL     1       1.520   3.581   5.247  0.00  0.00    +0.277 C 
ENDBRANCH  26  29
ENDBRANCH   1  24
BRANCH   5  31
ATOM     31  C   UNL     1      -2.982   1.200  -3.384  0.00  0.00    -0.035 A 
ATOM     32  C   UNL     1      -3.750   0.115  -3.009  0.00  0.00    +0.005 A 
ATOM     33  C   UNL     1      -3.934  -0.938  -3.885  0.00  0.00    +0.012 A 
ATOM     34  C   UNL     1      -3.342  -0.910  -5.134  0.00  0.00    +0.055 A 
ATOM     35  C   UNL     1      -2.569   0.174  -5.508  0.00  0.00    +0.012 A 
ATOM     36  C   UNL     1      -2.389   1.229  -4.633  0.00  0.00    +0.005 A 
BRANCH  34  37
ATOM     37  C   UNL     1      -3.538  -2.060  -6.087  0.00  0.00    +0.417 C 
ATOM     38  F   UNL     1      -2.529  -3.008  -5.888  0.00  0.00    -0.166 F 
ATOM     39  F   UNL     1      -4.785  -2.651  -5.856  0.00  0.00    -0.166 F 
ATOM     40  F   UNL     1      -3.482  -1.590  -7.404  0.00  0.00    -0.166 F 
ENDBRANCH  34  37
ENDBRANCH   5  31
TORSDOF 5
