REMARK  Name = ZINC55170314
REMARK  3 active torsions:
REMARK  status: ('A' for Active; 'I' for Inactive)
REMARK    1  A    between atoms: C_1  and  C_2
REMARK    2  A    between atoms: C_3  and  C_8
REMARK    3  A    between atoms: N_16  and  C_17
REMARK                            x       y       z     vdW  Elec       q    Type
REMARK                         _______ _______ _______ _____ _____    ______ ____
ROOT
ATOM      1  C   UNL     1       0.354  -0.206  -2.613  0.00  0.00    +0.151 A 
ATOM      2  N   UNL     1       0.122   1.040  -2.964  0.00  0.00    -0.227 NA
ATOM      3  C   UNL     1      -0.300   1.079  -4.252  0.00  0.00    +0.091 A 
ATOM      4  C   UNL     1      -0.676   2.121  -5.106  0.00  0.00    +0.045 A 
ATOM      5  C   UNL     1      -1.069   1.840  -6.395  0.00  0.00    +0.020 A 
ATOM      6  C   UNL     1      -1.095   0.530  -6.854  0.00  0.00    +0.017 A 
ATOM      7  C   UNL     1      -0.727  -0.509  -6.024  0.00  0.00    +0.029 A 
ATOM      8  C   UNL     1      -0.328  -0.245  -4.723  0.00  0.00    +0.069 A 
ATOM      9  N   UNL     1       0.095  -1.039  -3.671  0.00  0.00    -0.320 N 
ATOM     10 BR   UNL     1      -1.578   3.249  -7.550  0.00  0.00    -0.050 Br
ENDROOT
BRANCH   1  13
ATOM     11  C   UNL     1       1.201   1.621  -0.247  0.00  0.00    +0.067 C 
ATOM     12  C   UNL     1       1.211   0.114  -0.208  0.00  0.00    +0.058 A 
ATOM     13  C   UNL     1       0.824  -0.638  -1.291  0.00  0.00    +0.079 A 
ATOM     14  S   UNL     1       1.050  -2.288  -0.645  0.00  0.00    -0.049 S 
ATOM     15  C   UNL     1       1.598  -1.864   0.889  0.00  0.00    +0.156 A 
ATOM     16  N   UNL     1       1.596  -0.545   0.861  0.00  0.00    -0.230 NA
ATOM     17  N   UNL     1       1.965  -2.698   1.928  0.00  0.00    -0.337 N 
ATOM     18  H   UNL     1       1.922  -3.661   1.815  0.00  0.00    +0.144 HD
ATOM     19  H   UNL     1       2.266  -2.321   2.769  0.00  0.00    +0.144 HD
ENDBRANCH   1  13
BRANCH   9  20
ATOM     20  C   UNL     1       0.237  -2.497  -3.684  0.00  0.00    +0.089 C 
ATOM     21  C   UNL     1      -0.565  -3.275  -4.730  0.00  0.00    +0.027 C 
ATOM     22  C   UNL     1      -0.974  -3.329  -3.256  0.00  0.00    +0.027 C 
ENDBRANCH   9  20
TORSDOF 2
