REMARK  Name = ZINC63376346
REMARK  9 active torsions:
REMARK  status: ('A' for Active; 'I' for Inactive)
REMARK    1  A    between atoms: C_7  and  C_10
REMARK    2  A    between atoms: C_10  and  C_11
REMARK    3  A    between atoms: C_11  and  N_12
REMARK    4  A    between atoms: C_13  and  C_15
REMARK    5  A    between atoms: C_15  and  C_16
REMARK    6  A    between atoms: C_16  and  C_17
REMARK    7  A    between atoms: N_21  and  C_25
REMARK    8  A    between atoms: C_22  and  O_24
REMARK    9  A    between atoms: C_25  and  C_26
REMARK                            x       y       z     vdW  Elec       q    Type
REMARK                         _______ _______ _______ _____ _____    ______ ____
ROOT
ATOM      1  C   UNL     1      -1.986  -7.025  -4.059  0.00  0.00    +0.045 C 
ENDROOT
BRANCH   1   2
ATOM      2  C   UNL     1      -2.941  -8.220  -4.058  0.00  0.00    +0.197 C 
ATOM      3  C   UNL     1      -3.133  -8.750  -5.465  0.00  0.00    +0.248 C 
ATOM      4  O   UNL     1      -2.286  -9.208  -6.203  0.00  0.00    -0.273 OA
ATOM      5  N   UNL     1      -4.450  -8.603  -5.719  0.00  0.00    -0.220 N 
ATOM      6  C   UNL     1      -5.091  -8.047  -4.641  0.00  0.00    +0.285 C 
ATOM      7  N   UNL     1      -4.291  -7.802  -3.649  0.00  0.00    -0.224 NA
BRANCH   6   8
ATOM      8  O   UNL     1      -6.416  -7.785  -4.614  0.00  0.00    -0.481 OA
ATOM      9  H   UNL     1      -6.722  -7.393  -3.784  0.00  0.00    +0.295 HD
ENDBRANCH   6   8
BRANCH   5  10
ATOM     10  C   UNL     1      -5.105  -8.983  -6.973  0.00  0.00    +0.153 C 
BRANCH  10  11
ATOM     11  C   UNL     1      -5.576 -10.411  -6.881  0.00  0.00    -0.026 A 
ATOM     12  C   UNL     1      -4.737 -11.440  -7.270  0.00  0.00    +0.009 A 
ATOM     13  C   UNL     1      -5.164 -12.752  -7.187  0.00  0.00    +0.050 A 
ATOM     14  C   UNL     1      -6.435 -13.040  -6.715  0.00  0.00    +0.166 A 
ATOM     15  C   UNL     1      -7.279 -12.003  -6.323  0.00  0.00    +0.167 A 
ATOM     16  C   UNL     1      -6.842 -10.691  -6.403  0.00  0.00    +0.054 A 
ATOM     17  O   UNL     1      -8.461 -12.540  -5.901  0.00  0.00    -0.453 OA
ATOM     18  C   UNL     1      -8.481 -13.883  -6.420  0.00  0.00    +0.466 C 
ATOM     19  O   UNL     1      -7.088 -14.225  -6.537  0.00  0.00    -0.453 OA
ENDBRANCH  10  11
ENDBRANCH   5  10
ENDBRANCH   1   2
BRANCH   1  20
ATOM     20  C   UNL     1      -1.752  -6.557  -2.622  0.00  0.00    +0.098 C 
BRANCH  20  22
ATOM     21  N   UNL     1      -0.458  -4.798  -1.460  0.00  0.00    -0.315 N 
ATOM     22  C   UNL     1      -0.811  -5.380  -2.623  0.00  0.00    +0.213 C 
ATOM     23  O   UNL     1      -0.371  -4.957  -3.671  0.00  0.00    -0.276 OA
ATOM     24  H   UNL     1      -0.810  -5.136  -0.622  0.00  0.00    +0.149 HD
BRANCH  21  25
ATOM     25  C   UNL     1       0.457  -3.653  -1.462  0.00  0.00    +0.108 C 
BRANCH  25  26
ATOM     26  C   UNL     1       0.691  -3.186  -0.024  0.00  0.00    +0.052 C 
BRANCH  26  33
ATOM     27  C   UNL     1      -0.016   1.348   0.009  0.00  0.00    +0.001 A 
ATOM     28  C   UNL     1       1.166   2.101   0.002  0.00  0.00    +0.002 A 
ATOM     29  C   UNL     1       2.391   1.535  -0.013  0.00  0.00    +0.026 A 
ATOM     30  C   UNL     1       2.529   0.120  -0.022  0.00  0.00    +0.043 A 
ATOM     31  N   UNL     1       3.587  -0.654  -0.037  0.00  0.00    -0.380 N 
ATOM     32  C   UNL     1       3.143  -2.053  -0.041  0.00  0.00    +0.144 C 
ATOM     33  C   UNL     1       1.631  -2.008  -0.025  0.00  0.00    -0.040 C 
ATOM     34  C   UNL     1       1.295  -0.698  -0.014  0.00  0.00    -0.001 A 
ATOM     35  C   UNL     1       0.002  -0.004   0.002  0.00  0.00    +0.010 A 
ATOM     36  H   UNL     1       4.509  -0.353  -0.045  0.00  0.00    +0.160 HD
ENDBRANCH  26  33
ENDBRANCH  25  26
ENDBRANCH  21  25
ENDBRANCH  20  22
ENDBRANCH   1  20
TORSDOF 9
