REMARK  Name = ZINC42054509
REMARK  5 active torsions:
REMARK  status: ('A' for Active; 'I' for Inactive)
REMARK    1  A    between atoms: C_1  and  C_2
REMARK    2  A    between atoms: C_5  and  C_7
REMARK    3  A    between atoms: C_7  and  N_8
REMARK    4  A    between atoms: C_9  and  C_11
REMARK    5  A    between atoms: N_13  and  C_14
REMARK                            x       y       z     vdW  Elec       q    Type
REMARK                         _______ _______ _______ _____ _____    ______ ____
ROOT
ATOM      1  C   UNL     1       2.959  -0.889   5.642  0.00  0.00    +0.303 C 
ATOM      2  O   UNL     1       2.578  -2.021   5.859  0.00  0.00    -0.265 OA
ATOM      3  N   UNL     1       4.038  -0.405   6.289  0.00  0.00    -0.278 N 
ATOM      4  H   UNL     1       4.382   0.474   6.067  0.00  0.00    +0.155 HD
ENDROOT
BRANCH   3   5
ATOM      5  C   UNL     1       4.660  -1.170   7.280  0.00  0.00    +0.038 A 
ATOM      6  C   UNL     1       4.731  -2.551   7.149  0.00  0.00    +0.027 A 
ATOM      7  C   UNL     1       5.346  -3.309   8.128  0.00  0.00    +0.051 A 
ATOM      8  C   UNL     1       5.893  -2.694   9.240  0.00  0.00    +0.167 A 
ATOM      9  C   UNL     1       5.824  -1.307   9.374  0.00  0.00    +0.169 A 
ATOM     10  C   UNL     1       5.213  -0.548   8.393  0.00  0.00    +0.073 A 
ATOM     11  O   UNL     1       6.434  -0.958  10.551  0.00  0.00    -0.447 OA
ATOM     12  C   UNL     1       6.408  -2.167  11.322  0.00  0.00    +0.254 C 
ATOM     13  O   UNL     1       6.544  -3.200  10.335  0.00  0.00    -0.448 OA
ATOM     14  C   UNL     1       7.560  -2.209  12.332  0.00  0.00    +0.093 C 
ATOM     15  C   UNL     1       6.901  -1.784  13.670  0.00  0.00    +0.008 C 
ATOM     16  C   UNL     1       5.500  -2.443  13.590  0.00  0.00    +0.008 C 
ATOM     17  C   UNL     1       5.102  -2.308  12.103  0.00  0.00    +0.093 C 
ENDBRANCH   3   5
BRANCH   1  19
ATOM     18  N   UNL     1       1.153  -0.517   4.011  0.00  0.00    -0.307 N 
ATOM     19  C   UNL     1       2.232  -0.033   4.658  0.00  0.00    +0.299 C 
ATOM     20  O   UNL     1       2.613   1.099   4.441  0.00  0.00    -0.265 OA
ATOM     21  H   UNL     1       0.849  -1.421   4.185  0.00  0.00    +0.149 HD
BRANCH  18  22
ATOM     22  C   UNL     1       0.440   0.323   3.045  0.00  0.00    +0.108 C 
BRANCH  22  26
ATOM     23  C   UNL     1      -1.105   1.602   0.893  0.00  0.00    +0.008 C 
ATOM     24  C   UNL     1      -1.539   0.205   1.339  0.00  0.00    -0.009 C 
ATOM     25  C   UNL     1      -2.146   0.067   2.737  0.00  0.00    +0.009 C 
ATOM     26  C   UNL     1      -0.736  -0.460   2.459  0.00  0.00    +0.009 C 
ENDBRANCH  22  26
ENDBRANCH  18  22
ENDBRANCH   1  19
TORSDOF 4
