REMARK  Name = ZINC06907438
REMARK  10 active torsions:
REMARK  status: ('A' for Active; 'I' for Inactive)
REMARK    1  A    between atoms: C_1  and  C_2
REMARK    2  A    between atoms: C_2  and  C_3
REMARK    3  A    between atoms: C_3  and  N_4
REMARK    4  A    between atoms: C_8  and  N_9
REMARK    5  A    between atoms: N_9  and  C_10
REMARK    6  A    between atoms: C_12  and  C_21
REMARK    7  A    between atoms: N_14  and  C_15
REMARK    8  A    between atoms: C_21  and  C_22
REMARK    9  A    between atoms: C_21  and  C_23
REMARK   10  A    between atoms: C_21  and  C_24
REMARK                            x       y       z     vdW  Elec       q    Type
REMARK                         _______ _______ _______ _____ _____    ______ ____
ROOT
ATOM      1  N   UNL     1      -0.602   3.970   1.438  0.00  0.00    -0.305 N 
ATOM      2  H   UNL     1       0.425   3.603   1.580  0.00  0.00    +0.153 HD
ENDROOT
BRANCH   1   7
ATOM      3  N   UNL     1       2.054   6.082   3.872  0.00  0.00    -0.249 N 
ATOM      4  C   UNL     1       1.269   5.369   3.038  0.00  0.00    +0.258 C 
ATOM      5  O   UNL     1       1.697   4.384   2.466  0.00  0.00    -0.269 OA
ATOM      6  C   UNL     1      -0.121   5.816   2.838  0.00  0.00    +0.113 C 
ATOM      7  C   UNL     1      -0.984   5.137   1.999  0.00  0.00    +0.091 C 
ATOM      8  C   UNL     1      -0.549   7.023   3.568  0.00  0.00    +0.256 C 
ATOM      9  O   UNL     1      -1.680   7.456   3.451  0.00  0.00    -0.270 OA
ATOM     10  N   UNL     1       0.345   7.632   4.374  0.00  0.00    -0.263 N 
ATOM     11  C   UNL     1       1.596   7.169   4.508  0.00  0.00    +0.146 C 
ATOM     12  S   UNL     1       2.665   8.010   5.548  0.00  0.00    -0.018 S 
ATOM     13  H   UNL     1       0.055   8.529   4.939  0.00  0.00    +0.157 HD
BRANCH   3  14
ATOM     14  C   UNL     1       3.440   5.657   4.087  0.00  0.00    +0.115 C 
BRANCH  14  16
ATOM     15  C   UNL     1       5.794   5.892   3.282  0.00  0.00    +0.005 C 
ATOM     16  C   UNL     1       4.347   6.335   3.057  0.00  0.00    +0.016 C 
ENDBRANCH  14  16
ENDBRANCH   3  14
ENDBRANCH   1   7
BRANCH   1  17
ATOM     17  C   UNL     1      -1.507   3.232   0.681  0.00  0.00    +0.126 A 
ATOM     18  C   UNL     1      -2.803   3.564   0.424  0.00  0.00    +0.069 A 
ATOM     19  C   UNL     1      -3.354   2.555  -0.370  0.00  0.00    +0.071 A 
ATOM     20  N   UNL     1      -2.434   1.651  -0.592  0.00  0.00    -0.169 NA
ATOM     21  N   UNL     1      -1.260   2.045   0.061  0.00  0.00    -0.218 N 
BRANCH  21  22
ATOM     22  C   UNL     1      -0.045   1.345   0.071  0.00  0.00    +0.067 A 
ATOM     23  C   UNL     1       1.157   2.039   0.062  0.00  0.00    +0.028 A 
ATOM     24  C   UNL     1       2.352   1.347   0.066  0.00  0.00    +0.002 A 
ATOM     25  C   UNL     1       2.352  -0.036   0.078  0.00  0.00    +0.000 A 
ATOM     26  C   UNL     1       1.156  -0.730   0.087  0.00  0.00    +0.002 A 
ATOM     27  C   UNL     1      -0.042  -0.043   0.083  0.00  0.00    +0.028 A 
ENDBRANCH  21  22
BRANCH  19  28
ATOM     28  C   UNL     1      -4.769   2.518  -0.889  0.00  0.00    +0.006 C 
ATOM     29  C   UNL     1      -4.916   3.513  -2.042  0.00  0.00    +0.017 C 
ATOM     30  C   UNL     1      -5.092   1.108  -1.388  0.00  0.00    +0.017 C 
ATOM     31  C   UNL     1      -5.735   2.895   0.236  0.00  0.00    +0.017 C 
ENDBRANCH  19  28
ENDBRANCH   1  17
TORSDOF 6
