REMARK  Name = ZINC08862066
REMARK  11 active torsions:
REMARK  status: ('A' for Active; 'I' for Inactive)
REMARK    1  A    between atoms: C_1  and  N_60
REMARK    2  A    between atoms: C_2  and  C_3
REMARK    3  A    between atoms: C_2  and  N_60
REMARK    4  A    between atoms: C_6  and  O_11
REMARK    5  A    between atoms: C_7  and  O_9
REMARK    6  A    between atoms: O_9  and  C_10
REMARK    7  A    between atoms: O_11  and  C_12
REMARK    8  A    between atoms: C_13  and  N_14
REMARK    9  A    between atoms: C_13  and  N_60
REMARK   10  A    between atoms: C_17  and  C_21
REMARK   11  A    between atoms: C_17  and  C_27
REMARK                            x       y       z     vdW  Elec       q    Type
REMARK                         _______ _______ _______ _____ _____    ______ ____
ROOT
ATOM      1  N   UNL     1       0.639   2.217   0.657  0.00  0.00    -0.241 N 
ATOM      2  C   UNL     1       1.960   1.960   0.728  0.00  0.00    +0.254 C 
ATOM      3  O   UNL     1       2.809   2.633   1.273  0.00  0.00    -0.272 OA
ATOM      4  C   UNL     1       2.165   0.655  -0.015  0.00  0.00    +0.164 C 
ATOM      5  N   UNL     1       0.808   0.294  -0.461  0.00  0.00    -0.278 N 
ATOM      6  C   UNL     1      -0.012   1.265  -0.021  0.00  0.00    +0.308 C 
ATOM      7  O   UNL     1      -1.212   1.277  -0.218  0.00  0.00    -0.252 OA
ATOM      8  H   UNL     1       0.556  -0.491  -0.972  0.00  0.00    +0.152 HD
ENDROOT
BRANCH   4   9
ATOM      9  C   UNL     1       2.718  -0.400   0.908  0.00  0.00    -0.011 A 
ATOM     10  C   UNL     1       2.127  -1.648   0.965  0.00  0.00    +0.006 A 
ATOM     11  C   UNL     1       2.637  -2.617   1.808  0.00  0.00    +0.000 A 
ATOM     12  C   UNL     1       3.732  -2.335   2.602  0.00  0.00    +0.000 A 
ATOM     13  C   UNL     1       4.321  -1.085   2.550  0.00  0.00    +0.000 A 
ATOM     14  C   UNL     1       3.813  -0.117   1.703  0.00  0.00    +0.006 A 
ENDBRANCH   4   9
BRANCH   4  15
ATOM     15  C   UNL     1       3.077   0.853  -1.198  0.00  0.00    -0.011 A 
ATOM     16  C   UNL     1       4.310   1.454  -1.028  0.00  0.00    +0.006 A 
ATOM     17  C   UNL     1       5.148   1.631  -2.113  0.00  0.00    +0.000 A 
ATOM     18  C   UNL     1       4.750   1.215  -3.370  0.00  0.00    +0.000 A 
ATOM     19  C   UNL     1       3.515   0.618  -3.541  0.00  0.00    +0.000 A 
ATOM     20  C   UNL     1       2.678   0.437  -2.455  0.00  0.00    +0.006 A 
ENDBRANCH   4  15
BRANCH   1  21
ATOM     21  C   UNL     1      -0.003   3.396   1.244  0.00  0.00    +0.043 C 
BRANCH  21  23
ATOM     22  C   UNL     1      -1.696   2.359   2.630  0.00  0.00    -0.093 C 
ATOM     23  N   UNL     1      -0.403   3.074   2.630  0.00  0.00    +0.391 N 
ATOM     24  H   UNL     1       0.312   2.470   3.052  0.00  0.00    -0.079 HD
BRANCH  23  25
ATOM     25  C   UNL     1      -0.512   4.316   3.425  0.00  0.00    -0.041 C 
BRANCH  25  26
ATOM     26  C   UNL     1      -0.702   3.949   4.874  0.00  0.00    -0.060 A 
ATOM     27  C   UNL     1      -1.977   3.801   5.387  0.00  0.00    +0.005 A 
ATOM     28  C   UNL     1      -2.157   3.460   6.714  0.00  0.00    +0.049 A 
ATOM     29  C   UNL     1      -1.057   3.277   7.537  0.00  0.00    +0.161 A 
ATOM     30  C   UNL     1       0.227   3.431   7.023  0.00  0.00    +0.162 A 
ATOM     31  C   UNL     1       0.400   3.768   5.690  0.00  0.00    +0.051 A 
BRANCH  30  32
ATOM     32  O   UNL     1       1.309   3.252   7.826  0.00  0.00    -0.491 OA
ATOM     33  C   UNL     1       2.596   3.427   7.230  0.00  0.00    +0.277 C 
ENDBRANCH  30  32
BRANCH  29  34
ATOM     34  O   UNL     1      -1.232   2.946   8.845  0.00  0.00    -0.491 OA
ATOM     35  C   UNL     1      -2.578   2.804   9.304  0.00  0.00    +0.277 C 
ENDBRANCH  29  34
ENDBRANCH  25  26
ENDBRANCH  23  25
ENDBRANCH  21  23
ENDBRANCH   1  21
TORSDOF 8
