REMARK  Name = ZINC21518007
REMARK  3 active torsions:
REMARK  status: ('A' for Active; 'I' for Inactive)
REMARK    1  A    between atoms: C_4  and  C_7
REMARK    2  A    between atoms: C_7  and  C_8
REMARK    3  A    between atoms: C_10  and  C_13
REMARK                            x       y       z     vdW  Elec       q    Type
REMARK                         _______ _______ _______ _____ _____    ______ ____
ROOT
ATOM      1  C   UNL     1       2.869   4.201  -1.423  0.00  0.00    +0.176 A 
ATOM      2  N   UNL     1       3.650   3.412  -2.183  0.00  0.00    -0.194 NA
ATOM      3  C   UNL     1       3.750   4.024  -3.339  0.00  0.00    +0.248 A 
ATOM      4  O   UNL     1       3.043   5.154  -3.243  0.00  0.00    -0.336 OA
ATOM      5  N   UNL     1       2.547   5.237  -2.139  0.00  0.00    -0.061 NA
ENDROOT
BRANCH   3   6
ATOM      6  C   UNL     1       4.520   3.546  -4.543  0.00  0.00    +0.164 C 
ATOM      7  C   UNL     1       3.553   3.076  -5.643  0.00  0.00    +0.069 C 
ATOM      8  C   UNL     1       3.841   3.986  -6.815  0.00  0.00    -0.024 A 
ATOM      9  C   UNL     1       3.285   4.039  -8.079  0.00  0.00    +0.005 A 
ATOM     10  C   UNL     1       3.725   4.979  -8.992  0.00  0.00    +0.000 A 
ATOM     11  C   UNL     1       4.726   5.866  -8.639  0.00  0.00    +0.002 A 
ATOM     12  C   UNL     1       5.284   5.817  -7.380  0.00  0.00    +0.023 A 
ATOM     13  C   UNL     1       4.844   4.871  -6.451  0.00  0.00    +0.031 A 
ATOM     14  N   UNL     1       5.270   4.654  -5.140  0.00  0.00    -0.332 N 
ATOM     15  H   UNL     1       6.040   5.176  -4.552  0.00  0.00    +0.147 HD
ENDBRANCH   3   6
BRANCH   1  16
ATOM     16  C   UNL     1       2.451   3.937   0.000  0.00  0.00    +0.114 C 
BRANCH  16  20
ATOM     17  C   UNL     1      -1.219   1.751   0.017  0.00  0.00    +0.000 A 
ATOM     18  C   UNL     1      -0.013   1.076   0.008  0.00  0.00    +0.000 A 
ATOM     19  C   UNL     1       1.175   1.783   0.000  0.00  0.00    +0.004 A 
ATOM     20  C   UNL     1       1.156   3.165   0.008  0.00  0.00    -0.040 A 
ATOM     21  C   UNL     1      -0.050   3.840   0.022  0.00  0.00    +0.004 A 
ATOM     22  C   UNL     1      -1.238   3.133   0.029  0.00  0.00    +0.000 A 
ENDBRANCH  16  20
ENDBRANCH   1  16
TORSDOF 3
