REMARK  Name = ZINC62893326
REMARK  5 active torsions:
REMARK  status: ('A' for Active; 'I' for Inactive)
REMARK    1  A    between atoms: C_1  and  C_2
REMARK    2  A    between atoms: C_2  and  C_7
REMARK    3  A    between atoms: N_9  and  C_10
REMARK    4  A    between atoms: C_13  and  S_17
REMARK    5  A    between atoms: S_17  and  N_20
REMARK                            x       y       z     vdW  Elec       q    Type
REMARK                         _______ _______ _______ _____ _____    ______ ____
ROOT
ATOM      1  C   UNL     1      -3.488  -0.809  -1.157  0.00  0.00    +0.048 A 
ATOM      2  C   UNL     1      -4.211  -1.091  -0.005  0.00  0.00    +0.026 A 
ATOM      3  C   UNL     1      -5.462  -1.668  -0.101  0.00  0.00    +0.030 A 
ATOM      4  C   UNL     1      -5.996  -1.965  -1.341  0.00  0.00    +0.106 A 
ATOM      5  C   UNL     1      -5.279  -1.686  -2.490  0.00  0.00    +0.045 A 
ATOM      6  C   UNL     1      -4.029  -1.103  -2.402  0.00  0.00    +0.041 A 
ATOM      7 BR   UNL     1      -3.052  -0.715  -3.974  0.00  0.00    -0.048 Br
ENDROOT
BRANCH   1  10
ATOM      8  C   UNL     1      -1.406  -0.541  -0.036  0.00  0.00    +0.221 C 
ATOM      9  O   UNL     1      -1.803  -1.268   0.851  0.00  0.00    -0.275 OA
ATOM     10  N   UNL     1      -2.220  -0.225  -1.063  0.00  0.00    -0.284 N 
ATOM     11  H   UNL     1      -1.926   0.407  -1.738  0.00  0.00    +0.155 HD
BRANCH   8  13
ATOM     12  C   UNL     1      -0.035   1.539   0.021  0.00  0.00    +0.019 C 
ATOM     13  C   UNL     1      -0.004   0.009   0.011  0.00  0.00    +0.028 C 
ATOM     14  C   UNL     1       0.817  -0.503  -1.194  0.00  0.00    -0.005 C 
ATOM     15  C   UNL     1       2.212  -0.771  -0.575  0.00  0.00    -0.082 C 
ATOM     16  N   UNL     1       1.888  -1.309   0.772  0.00  0.00    +0.380 N 
ATOM     17  C   UNL     1       0.736  -0.518   1.255  0.00  0.00    -0.067 C 
ATOM     18  H   UNL     1       1.638  -2.284   0.706  0.00  0.00    -0.086 HD
ATOM     19  H   UNL     1       2.675  -1.191   1.392  0.00  0.00    -0.086 HD
ENDBRANCH   8  13
ENDBRANCH   1  10
BRANCH   4  20
ATOM     20  S   UNL     1      -7.593  -2.700  -1.458  0.00  0.00    +0.056 S 
ATOM     21  O   UNL     1      -7.636  -3.380  -2.706  0.00  0.00    -0.153 OA
ATOM     22  O   UNL     1      -7.827  -3.361  -0.222  0.00  0.00    -0.153 OA
BRANCH  20  23
ATOM     23  N   UNL     1      -8.694  -1.468  -1.552  0.00  0.00    -0.204 NA
ATOM     24  H   UNL     1      -8.393  -0.546  -1.535  0.00  0.00    +0.144 HD
ATOM     25  H   UNL     1      -9.641  -1.667  -1.623  0.00  0.00    +0.144 HD
ENDBRANCH  20  23
ENDBRANCH   4  20
TORSDOF 4
