REMARK  Name = ZINC33625618
REMARK  14 active torsions:
REMARK  status: ('A' for Active; 'I' for Inactive)
REMARK    1  A    between atoms: C_1  and  C_2
REMARK    2  A    between atoms: C_5  and  C_8
REMARK    3  A    between atoms: N_10  and  C_11
REMARK    4  A    between atoms: N_10  and  C_35
REMARK    5  A    between atoms: C_11  and  C_12
REMARK    6  A    between atoms: C_17  and  C_20
REMARK    7  A    between atoms: C_20  and  C_21
REMARK    8  A    between atoms: N_23  and  C_24
REMARK    9  A    between atoms: C_24  and  C_25
REMARK   10  A    between atoms: C_25  and  C_26
REMARK   11  A    between atoms: C_26  and  N_27
REMARK   12  A    between atoms: C_32  and  C_34
REMARK   13  A    between atoms: C_35  and  C_36
REMARK   14  A    between atoms: C_35  and  C_37
REMARK                            x       y       z     vdW  Elec       q    Type
REMARK                         _______ _______ _______ _____ _____    ______ ____
ROOT
ATOM      1  C   UNL     1      -2.766  17.842  -2.987  0.00  0.00    +0.236 C 
ATOM      2  O   UNL     1      -2.405  16.977  -2.217  0.00  0.00    -0.274 OA
ATOM      3  N   UNL     1      -4.009  17.804  -3.508  0.00  0.00    -0.263 N 
ATOM      4  C   UNL     1      -4.877  16.775  -3.162  0.00  0.00    +0.165 A 
ATOM      5  N   UNL     1      -6.115  16.565  -3.564  0.00  0.00    -0.229 NA
ATOM      6  C   UNL     1      -6.808  15.530  -3.131  0.00  0.00    +0.059 A 
ATOM      7  C   UNL     1      -6.215  14.673  -2.264  0.00  0.00    +0.072 A 
ATOM      8  S   UNL     1      -4.606  15.432  -2.094  0.00  0.00    -0.060 S 
ATOM      9  H   UNL     1      -4.337  18.589  -4.206  0.00  0.00    +0.157 HD
ENDROOT
BRANCH   1  10
ATOM     10  C   UNL     1      -1.825  18.957  -3.362  0.00  0.00    +0.204 C 
BRANCH  10  13
ATOM     11  C   UNL     1      -0.355  19.322  -1.454  0.00  0.00    +0.247 C 
ATOM     12  O   UNL     1      -1.244  19.291  -0.625  0.00  0.00    -0.270 OA
ATOM     13  N   UNL     1      -0.548  18.773  -2.670  0.00  0.00    -0.286 N 
BRANCH  11  18
ATOM     14  C   UNL     1       4.677  21.809  -0.186  0.00  0.00    +0.044 C 
ATOM     15  C   UNL     1       3.359  21.158  -0.518  0.00  0.00    -0.050 A 
ATOM     16  C   UNL     1       2.221  21.508   0.187  0.00  0.00    +0.004 A 
ATOM     17  C   UNL     1       1.012  20.915  -0.112  0.00  0.00    +0.013 A 
ATOM     18  C   UNL     1       0.938  19.961  -1.128  0.00  0.00    +0.037 A 
ATOM     19  C   UNL     1       2.091  19.609  -1.832  0.00  0.00    +0.013 A 
ATOM     20  C   UNL     1       3.293  20.213  -1.526  0.00  0.00    +0.004 A 
ENDBRANCH  11  18
BRANCH  13  21
ATOM     21  C   UNL     1       0.520  17.991  -3.298  0.00  0.00    +0.071 C 
ATOM     22  C   UNL     1       1.359  18.903  -4.196  0.00  0.00    +0.028 C 
ATOM     23  C   UNL     1       1.411  17.382  -2.214  0.00  0.00    +0.028 C 
ENDBRANCH  13  21
ENDBRANCH  10  13
ENDBRANCH   1  10
BRANCH   6  24
ATOM     24  C   UNL     1      -8.224  15.303  -3.592  0.00  0.00    +0.151 C 
BRANCH  24  25
ATOM     25  C   UNL     1      -9.049  16.532  -3.309  0.00  0.00    +0.219 C 
ATOM     26  O   UNL     1      -8.536  17.498  -2.784  0.00  0.00    -0.275 OA
ATOM     27  N   UNL     1     -10.355  16.558  -3.639  0.00  0.00    -0.315 N 
ATOM     28  H   UNL     1     -10.820  15.682  -4.115  0.00  0.00    +0.149 HD
BRANCH  27  29
ATOM     29  C   UNL     1     -11.156  17.754  -3.364  0.00  0.00    +0.102 C 
BRANCH  29  30
ATOM     30  C   UNL     1     -12.594  17.523  -3.833  0.00  0.00    +0.000 C 
BRANCH  30  31
ATOM     31  C   UNL     1     -13.431  18.771  -3.545  0.00  0.00    -0.077 C 
BRANCH  31  32
ATOM     32  N   UNL     1     -14.812  18.549  -3.995  0.00  0.00    +0.381 N 
ATOM     33  C   UNL     1     -14.874  18.416  -5.456  0.00  0.00    -0.078 C 
ATOM     34  C   UNL     1     -16.336  18.332  -5.900  0.00  0.00    -0.019 C 
ATOM     35  C   UNL     1     -17.000  17.126  -5.230  0.00  0.00    -0.003 C 
ATOM     36  C   UNL     1     -16.879  17.264  -3.710  0.00  0.00    -0.016 C 
ATOM     37  C   UNL     1     -15.401  17.380  -3.329  0.00  0.00    -0.072 C 
ATOM     38  C   UNL     1     -15.276  17.540  -1.813  0.00  0.00    -0.013 C 
ATOM     39  H   UNL     1     -15.406  19.431  -3.713  0.00  0.00    -0.081 HD
ENDBRANCH  31  32
ENDBRANCH  30  31
ENDBRANCH  29  30
ENDBRANCH  27  29
ENDBRANCH  24  25
ENDBRANCH   6  24
TORSDOF 10
