REMARK  Name = ZINC67442226
REMARK  7 active torsions:
REMARK  status: ('A' for Active; 'I' for Inactive)
REMARK    1  A    between atoms: C_1  and  C_2
REMARK    2  A    between atoms: C_9  and  C_13
REMARK    3  A    between atoms: C_13  and  N_14
REMARK    4  A    between atoms: N_14  and  C_15
REMARK    5  A    between atoms: N_14  and  C_21
REMARK    6  A    between atoms: C_15  and  C_16
REMARK    7  A    between atoms: C_21  and  C_22
REMARK                            x       y       z     vdW  Elec       q    Type
REMARK                         _______ _______ _______ _____ _____    ______ ____
ROOT
ATOM      1  C   UNL     1      -0.024   0.289   4.682  0.00  0.00    +0.138 C 
ENDROOT
BRANCH   1  10
ATOM      2  C   UNL     1       0.027   2.347   0.114  0.00  0.00    +0.047 C 
ATOM      3  C   UNL     1      -0.021   0.856  -0.100  0.00  0.00    -0.009 A 
ATOM      4  C   UNL     1      -0.035   0.343  -1.363  0.00  0.00    +0.008 A 
ATOM      5  C   UNL     1      -0.081  -1.046  -1.545  0.00  0.00    +0.019 A 
ATOM      6  C   UNL     1      -0.110  -1.871  -0.474  0.00  0.00    +0.096 A 
ATOM      7  N   UNL     1      -0.096  -1.369   0.792  0.00  0.00    -0.269 N 
ATOM      8  C   UNL     1      -0.046  -0.019   1.002  0.00  0.00    +0.121 A 
ATOM      9  N   UNL     1      -0.026   0.480   2.236  0.00  0.00    -0.343 N 
ATOM     10  C   UNL     1      -0.048  -0.309   3.299  0.00  0.00    +0.037 A 
ATOM     11  C   UNL     1      -0.093  -1.681   3.140  0.00  0.00    +0.093 A 
ATOM     12  C   UNL     1      -0.126  -2.212   1.846  0.00  0.00    +0.258 A 
ATOM     13  O   UNL     1      -0.166  -3.420   1.672  0.00  0.00    -0.267 OA
ATOM     14  H   UNL     1       0.005   1.442   2.359  0.00  0.00    +0.167 HD
ENDBRANCH   1  10
BRANCH   1  15
ATOM     15  N   UNL     1       1.255   0.979   4.894  0.00  0.00    -0.287 NA
BRANCH  15  16
ATOM     16  C   UNL     1       1.180   1.882   6.050  0.00  0.00    +0.127 C 
BRANCH  16  17
ATOM     17  C   UNL     1       2.337   2.847   6.010  0.00  0.00    +0.004 A 
ATOM     18  C   UNL     1       2.395   4.088   5.470  0.00  0.00    +0.012 A 
ATOM     19  C   UNL     1       3.576   4.801   5.552  0.00  0.00    +0.008 A 
ATOM     20  C   UNL     1       4.642   4.237   6.171  0.00  0.00    +0.045 A 
ATOM     21  S   UNL     1       3.985   2.654   6.669  0.00  0.00    -0.100 S 
ENDBRANCH  16  17
ENDBRANCH  15  16
BRANCH  15  22
ATOM     22  C   UNL     1       2.353   0.016   5.050  0.00  0.00    +0.127 C 
BRANCH  22  23
ATOM     23  C   UNL     1       2.122  -0.815   6.285  0.00  0.00    +0.004 A 
ATOM     24  C   UNL     1       1.508  -2.018   6.403  0.00  0.00    +0.012 A 
ATOM     25  C   UNL     1       1.410  -2.601   7.652  0.00  0.00    +0.008 A 
ATOM     26  C   UNL     1       1.931  -1.954   8.723  0.00  0.00    +0.045 A 
ATOM     27  S   UNL     1       2.593  -0.475   7.973  0.00  0.00    -0.100 S 
ENDBRANCH  22  23
ENDBRANCH  15  22
ENDBRANCH   1  15
TORSDOF 6
