REMARK  Name = ZINC36806251
REMARK  8 active torsions:
REMARK  status: ('A' for Active; 'I' for Inactive)
REMARK    1  A    between atoms: C_1  and  C_2
REMARK    2  A    between atoms: C_2  and  C_3
REMARK    3  A    between atoms: C_8  and  N_9
REMARK    4  A    between atoms: C_12  and  C_17
REMARK    5  A    between atoms: C_17  and  S_18
REMARK    6  A    between atoms: S_18  and  C_19
REMARK    7  A    between atoms: N_28  and  C_29
REMARK    8  A    between atoms: C_29  and  C_30
REMARK                            x       y       z     vdW  Elec       q    Type
REMARK                         _______ _______ _______ _____ _____    ______ ____
ROOT
ATOM      1  N   UNL     1       2.833  -0.268  -0.114  0.00  0.00    -0.283 N 
ATOM      2  C   UNL     1       4.198  -0.480  -0.092  0.00  0.00    +0.224 A 
ATOM      3  N   UNL     1       4.888  -0.259   1.025  0.00  0.00    -0.198 NA
ATOM      4  C   UNL     1       6.194  -0.461   1.047  0.00  0.00    +0.146 A 
ATOM      5  N   UNL     1       6.820  -0.882  -0.039  0.00  0.00    -0.199 NA
ATOM      6  C   UNL     1       6.136  -1.104  -1.159  0.00  0.00    +0.217 A 
ATOM      7  N   UNL     1       4.822  -0.908  -1.183  0.00  0.00    -0.181 NA
ATOM      8  N   UNL     1       6.790  -1.543  -2.292  0.00  0.00    -0.327 N 
ATOM      9  H   UNL     1       2.364  -0.042   0.705  0.00  0.00    +0.155 HD
ATOM     10  H   UNL     1       7.748  -1.690  -2.272  0.00  0.00    +0.145 HD
ATOM     11  H   UNL     1       6.291  -1.705  -3.108  0.00  0.00    +0.145 HD
ENDROOT
BRANCH   1  17
ATOM     12  C   UNL     1       0.796  -0.778  -1.307  0.00  0.00    -0.026 A 
ATOM     13  C   UNL     1       0.101  -0.882  -2.495  0.00  0.00    +0.005 A 
ATOM     14  C   UNL     1       0.729  -0.596  -3.693  0.00  0.00    +0.000 A 
ATOM     15  C   UNL     1       2.056  -0.205  -3.706  0.00  0.00    +0.002 A 
ATOM     16  C   UNL     1       2.757  -0.100  -2.521  0.00  0.00    +0.023 A 
ATOM     17  C   UNL     1       2.127  -0.381  -1.316  0.00  0.00    +0.037 A 
BRANCH  12  19
ATOM     18  C   UNL     1      -0.425   0.206   0.614  0.00  0.00    +0.009 C 
ATOM     19  C   UNL     1       0.111  -1.089  -0.002  0.00  0.00    +0.033 C 
ENDBRANCH  12  19
ENDBRANCH   1  17
BRANCH   4  20
ATOM     20  C   UNL     1       6.972  -0.210   2.313  0.00  0.00    +0.153 C 
BRANCH  20  21
ATOM     21  S   UNL     1       7.026  -1.731   3.300  0.00  0.00    -0.080 S 
BRANCH  21  22
ATOM     22  C   UNL     1       7.957  -1.280   4.727  0.00  0.00    +0.173 A 
ATOM     23  N   UNL     1       8.412  -0.049   4.844  0.00  0.00    -0.216 NA
ATOM     24  C   UNL     1       9.116   0.319   5.907  0.00  0.00    +0.116 A 
ATOM     25  C   UNL     1       9.411  -0.575   6.954  0.00  0.00    +0.072 A 
ATOM     26  C   UNL     1      10.190  -0.009   8.041  0.00  0.00    +0.023 A 
ATOM     27  C   UNL     1      10.563   1.278   7.979  0.00  0.00    +0.048 A 
ATOM     28  S   UNL     1       9.882   1.832   6.428  0.00  0.00    -0.077 S 
ATOM     29  C   UNL     1       8.905  -1.904   6.799  0.00  0.00    +0.263 A 
ATOM     30  O   UNL     1       9.110  -2.747   7.655  0.00  0.00    -0.267 OA
ATOM     31  N   UNL     1       8.192  -2.209   5.699  0.00  0.00    -0.283 N 
BRANCH  31  32
ATOM     32  C   UNL     1       7.666  -3.567   5.538  0.00  0.00    +0.154 C 
BRANCH  32  33
ATOM     33  C   UNL     1       8.683  -4.418   4.823  0.00  0.00    -0.013 C 
ATOM     34  C   UNL     1       9.094  -5.539   5.362  0.00  0.00    +0.005 C 
ENDBRANCH  32  33
ENDBRANCH  31  32
ENDBRANCH  21  22
ENDBRANCH  20  21
ENDBRANCH   4  20
TORSDOF 7
