REMARK  Name = ZINC01515965
REMARK  5 active torsions:
REMARK  status: ('A' for Active; 'I' for Inactive)
REMARK    1  A    between atoms: C_1  and  O_2
REMARK    2  A    between atoms: O_2  and  C_3
REMARK    3  A    between atoms: C_10  and  C_25
REMARK    4  A    between atoms: N_12  and  C_13
REMARK    5  A    between atoms: C_14  and  C_22
REMARK                            x       y       z     vdW  Elec       q    Type
REMARK                         _______ _______ _______ _____ _____    ______ ____
ROOT
ATOM      1  C   UNL     1       0.656  -0.687   0.952  0.00  0.00    +0.121 A 
ATOM      2  C   UNL     1       1.215   0.105   1.951  0.00  0.00    +0.049 A 
ATOM      3  C   UNL     1       1.839  -0.471   3.038  0.00  0.00    +0.050 A 
ATOM      4  C   UNL     1       1.914  -1.852   3.144  0.00  0.00    +0.138 A 
ATOM      5  C   UNL     1       1.347  -2.659   2.139  0.00  0.00    +0.022 A 
ATOM      6  C   UNL     1       0.714  -2.064   1.041  0.00  0.00    +0.057 A 
ATOM      7  C   UNL     1       1.421  -4.117   2.261  0.00  0.00    +0.030 A 
ATOM      8  C   UNL     1       1.805  -4.635   3.493  0.00  0.00    +0.097 A 
ATOM      9  C   UNL     1       2.104  -3.668   4.564  0.00  0.00    +0.212 A 
ATOM     10  N   UNL     1       1.964  -3.996   5.835  0.00  0.00    -0.319 N 
ATOM     11  O   UNL     1       2.528  -2.430   4.205  0.00  0.00    -0.439 OA
ATOM     12  H   UNL     1       1.728  -4.905   6.078  0.00  0.00    +0.169 HD
ENDROOT
BRANCH  10  13
ATOM     13  C   UNL     1       2.148  -3.068   6.795  0.00  0.00    +0.098 A 
ATOM     14  C   UNL     1       2.054  -3.211   8.185  0.00  0.00    +0.086 A 
ATOM     15  C   UNL     1       2.304  -2.035   9.000  0.00  0.00    -0.018 A 
ATOM     16  C   UNL     1       2.608  -0.898   8.334  0.00  0.00    -0.004 A 
ATOM     17  S   UNL     1       2.582  -1.347   6.620  0.00  0.00    -0.075 S 
ATOM     18  C   UNL     1       2.908   0.446   8.926  0.00  0.00    +0.043 C 
ATOM     19  C   UNL     1       2.457   0.441  10.394  0.00  0.00    +0.005 C 
ATOM     20  C   UNL     1       2.982  -0.831  11.065  0.00  0.00    +0.005 C 
ATOM     21  C   UNL     1       2.235  -2.051  10.524  0.00  0.00    +0.037 C 
BRANCH  14  22
ATOM     22  C   UNL     1       1.722  -4.470   8.781  0.00  0.00    +0.102 C 
ATOM     23  N   UNL     1       1.459  -5.468   9.254  0.00  0.00    -0.191 NA
ENDBRANCH  14  22
ENDBRANCH  10  13
BRANCH   8  24
ATOM     24  C   UNL     1       1.908  -6.087   3.717  0.00  0.00    +0.247 C 
ATOM     25  O   UNL     1       2.347  -6.510   4.769  0.00  0.00    -0.270 OA
ATOM     26  N   UNL     1       1.517  -6.947   2.756  0.00  0.00    -0.325 N 
ATOM     27  H   UNL     1       1.236  -6.612   1.890  0.00  0.00    +0.145 HD
ATOM     28  H   UNL     1       1.516  -7.901   2.929  0.00  0.00    +0.145 HD
ENDBRANCH   8  24
BRANCH   1  30
ATOM     29  C   UNL     1       0.022   1.326  -0.144  0.00  0.00    +0.277 C 
ATOM     30  O   UNL     1       0.046  -0.103  -0.114  0.00  0.00    -0.495 OA
ENDBRANCH   1  30
TORSDOF 4
