REMARK  Name = ZINC43211545
REMARK  10 active torsions:
REMARK  status: ('A' for Active; 'I' for Inactive)
REMARK    1  A    between atoms: C_1  and  C_2
REMARK    2  A    between atoms: C_7  and  N_8
REMARK    3  A    between atoms: C_13  and  C_28
REMARK    4  A    between atoms: C_16  and  C_21
REMARK    5  A    between atoms: C_16  and  C_25
REMARK    6  A    between atoms: C_21  and  C_22
REMARK    7  A    between atoms: C_22  and  C_23
REMARK    8  A    between atoms: C_22  and  C_24
REMARK    9  A    between atoms: C_31  and  O_34
REMARK   10  A    between atoms: O_34  and  C_35
REMARK                            x       y       z     vdW  Elec       q    Type
REMARK                         _______ _______ _______ _____ _____    ______ ____
ROOT
ATOM      1  N   UNL     1      -0.028   0.757   0.487  0.00  0.00    -0.210 N 
ATOM      2  C   UNL     1      -1.173   0.825   1.242  0.00  0.00    +0.229 C 
ATOM      3  O   UNL     1      -2.281   0.435   0.945  0.00  0.00    -0.275 OA
ATOM      4  C   UNL     1      -0.762   1.466   2.470  0.00  0.00    +0.077 C 
ATOM      5  C   UNL     1      -1.215   1.642   3.857  0.00  0.00    -0.027 C 
ATOM      6  N   UNL     1       0.020   2.054   4.601  0.00  0.00    +0.395 N 
ATOM      7  C   UNL     1       1.170   1.981   3.642  0.00  0.00    +0.048 C 
ATOM      8  C   UNL     1       0.699   0.890   2.657  0.00  0.00    +0.086 C 
ATOM      9  C   UNL     1       1.100   1.015   1.212  0.00  0.00    +0.229 C 
ATOM     10  O   UNL     1       2.199   1.292   0.782  0.00  0.00    -0.275 OA
ATOM     11  H   UNL     1      -0.083   2.999   4.940  0.00  0.00    -0.083 HD
ATOM     12  H   UNL     1       0.179   1.426   5.375  0.00  0.00    -0.083 HD
ENDROOT
BRANCH   1  19
ATOM     13  C   UNL     1      -0.223   2.898  -1.377  0.00  0.00    +0.045 C 
ATOM     14  C   UNL     1      -0.111   1.463  -1.823  0.00  0.00    -0.029 A 
ATOM     15  C   UNL     1      -0.095   1.157  -3.170  0.00  0.00    +0.005 A 
ATOM     16  C   UNL     1       0.009  -0.160  -3.579  0.00  0.00    +0.000 A 
ATOM     17  C   UNL     1       0.096  -1.174  -2.643  0.00  0.00    +0.002 A 
ATOM     18  C   UNL     1       0.081  -0.873  -1.295  0.00  0.00    +0.024 A 
ATOM     19  C   UNL     1      -0.018   0.448  -0.880  0.00  0.00    +0.047 A 
ENDBRANCH   1  19
BRANCH   5  20
ATOM     20  C   UNL     1      -1.756   0.346   4.404  0.00  0.00    -0.060 A 
ATOM     21  C   UNL     1      -0.885  -0.624   4.866  0.00  0.00    +0.005 A 
ATOM     22  C   UNL     1      -1.378  -1.813   5.368  0.00  0.00    +0.046 A 
ATOM     23  C   UNL     1      -2.748  -2.033   5.408  0.00  0.00    +0.128 A 
ATOM     24  C   UNL     1      -3.618  -1.058   4.943  0.00  0.00    +0.046 A 
ATOM     25  C   UNL     1      -3.121   0.131   4.447  0.00  0.00    +0.005 A 
BRANCH  23  26
ATOM     26  O   UNL     1      -3.235  -3.202   5.901  0.00  0.00    -0.456 OA
BRANCH  26  27
ATOM     27  C   UNL     1      -2.344  -4.131   6.338  0.00  0.00    +0.128 A 
ATOM     28  C   UNL     1      -1.759  -3.998   7.589  0.00  0.00    +0.046 A 
ATOM     29  C   UNL     1      -0.854  -4.944   8.030  0.00  0.00    +0.004 A 
ATOM     30  C   UNL     1      -0.530  -6.021   7.226  0.00  0.00    +0.000 A 
ATOM     31  C   UNL     1      -1.112  -6.155   5.979  0.00  0.00    +0.004 A 
ATOM     32  C   UNL     1      -2.022  -5.216   5.535  0.00  0.00    +0.046 A 
ENDBRANCH  26  27
ENDBRANCH  23  26
ENDBRANCH   5  20
BRANCH   7  33
ATOM     33  C   UNL     1       2.428   1.543   4.349  0.00  0.00    +0.346 C 
ATOM     34  O   UNL     1       2.410   1.331   5.549  0.00  0.00    -0.248 OA
ATOM     35  O   UNL     1       3.462   1.401   3.720  0.00  0.00    -0.248 OA
ENDBRANCH   7  33
BRANCH   7  36
ATOM     36  C   UNL     1       1.380   3.325   2.942  0.00  0.00    +0.002 C 
BRANCH  36  37
ATOM     37  C   UNL     1       1.885   4.354   3.956  0.00  0.00    -0.018 C 
ATOM     38  C   UNL     1       2.385   5.596   3.215  0.00  0.00    +0.007 C 
ATOM     39  C   UNL     1       0.743   4.747   4.896  0.00  0.00    +0.007 C 
ENDBRANCH  36  37
ENDBRANCH   7  36
TORSDOF 7
