REMARK  Name = ZINC38547931
REMARK  11 active torsions:
REMARK  status: ('A' for Active; 'I' for Inactive)
REMARK    1  A    between atoms: C_1  and  C_2
REMARK    2  A    between atoms: C_2  and  C_3
REMARK    3  A    between atoms: C_5  and  C_16
REMARK    4  A    between atoms: C_6  and  N_8
REMARK    5  A    between atoms: C_9  and  C_11
REMARK    6  A    between atoms: C_16  and  C_18
REMARK    7  A    between atoms: C_16  and  N_28
REMARK    8  A    between atoms: C_20  and  O_26
REMARK    9  A    between atoms: C_23  and  O_24
REMARK   10  A    between atoms: O_24  and  C_25
REMARK   11  A    between atoms: O_26  and  C_27
REMARK                            x       y       z     vdW  Elec       q    Type
REMARK                         _______ _______ _______ _____ _____    ______ ____
ROOT
ATOM      1  C   UNL     1       0.579  -1.566   4.874  0.00  0.00    +0.138 C 
ENDROOT
BRANCH   1   2
ATOM      2  N   UNL     1      -0.578  -0.680   5.025  0.00  0.00    -0.319 N 
ATOM      3  C   UNL     1      -0.928  -0.203   6.283  0.00  0.00    +0.097 A 
ATOM      4  C   UNL     1      -0.172  -0.566   7.393  0.00  0.00    +0.041 A 
ATOM      5  C   UNL     1      -0.531  -0.084   8.639  0.00  0.00    +0.005 A 
ATOM      6  C   UNL     1      -1.639   0.748   8.733  0.00  0.00    +0.018 A 
ATOM      7  C   UNL     1      -2.344   1.068   7.590  0.00  0.00    +0.084 A 
ATOM      8  N   UNL     1      -1.974   0.597   6.413  0.00  0.00    -0.350 N 
ATOM      9  H   UNL     1      -1.099  -0.427   4.248  0.00  0.00    +0.148 HD
ATOM     10  H   UNL     1      -2.485   0.841   5.625  0.00  0.00    +0.166 HD
ENDBRANCH   1   2
BRANCH   1  11
ATOM     11  C   UNL     1       0.145  -2.997   5.066  0.00  0.00    +0.022 A 
ATOM     12  C   UNL     1      -1.162  -3.362   4.809  0.00  0.00    +0.055 A 
ATOM     13  C   UNL     1      -1.561  -4.678   4.985  0.00  0.00    +0.121 A 
ATOM     14  C   UNL     1      -0.648  -5.628   5.420  0.00  0.00    +0.049 A 
ATOM     15  C   UNL     1       0.659  -5.262   5.678  0.00  0.00    +0.049 A 
ATOM     16  C   UNL     1       1.059  -3.947   5.496  0.00  0.00    +0.126 A 
BRANCH  16  17
ATOM     17  O   UNL     1       2.347  -3.588   5.744  0.00  0.00    -0.495 OA
ATOM     18  C   UNL     1       3.259  -4.635   6.081  0.00  0.00    +0.277 C 
ENDBRANCH  16  17
BRANCH  13  19
ATOM     19  O   UNL     1      -2.848  -5.038   4.732  0.00  0.00    -0.495 OA
ATOM     20  C   UNL     1      -3.189  -6.411   4.935  0.00  0.00    +0.277 C 
ENDBRANCH  13  19
ENDBRANCH   1  11
BRANCH   1  23
ATOM     21  C   UNL     1       1.470  -2.165   1.284  0.00  0.00    -0.008 A 
ATOM     22  C   UNL     1       0.931  -2.345   2.513  0.00  0.00    +0.019 A 
ATOM     23  C   UNL     1       1.163  -1.399   3.495  0.00  0.00    +0.006 A 
ATOM     24  C   UNL     1       1.928  -0.313   3.192  0.00  0.00    +0.078 A 
ATOM     25  S   UNL     1       2.346  -0.622   1.484  0.00  0.00    -0.078 S 
BRANCH  24  26
ATOM     26  N   UNL     1       2.294   0.759   4.007  0.00  0.00    -0.273 N 
ATOM     27  C   UNL     1       2.973   1.801   3.486  0.00  0.00    +0.284 C 
ATOM     28  O   UNL     1       3.195   1.845   2.290  0.00  0.00    -0.266 OA
ATOM     29  H   UNL     1       2.060   0.755   4.948  0.00  0.00    +0.156 HD
BRANCH  27  30
ATOM     30  C   UNL     1       3.445   2.879   4.360  0.00  0.00    +0.189 A 
ATOM     31  C   UNL     1       4.218   3.939   3.981  0.00  0.00    +0.054 A 
ATOM     32  C   UNL     1       4.428   4.718   5.130  0.00  0.00    +0.042 A 
ATOM     33  C   UNL     1       3.782   4.106   6.147  0.00  0.00    +0.196 A 
ATOM     34  O   UNL     1       3.187   3.002   5.678  0.00  0.00    -0.458 OA
ENDBRANCH  27  30
ENDBRANCH  24  26
BRANCH  21  36
ATOM     35  C   UNL     1       0.150  -2.618  -0.766  0.00  0.00    +0.009 C 
ATOM     36  C   UNL     1       1.363  -3.042   0.063  0.00  0.00    +0.039 C 
ENDBRANCH  21  36
ENDBRANCH   1  23
TORSDOF 8
