REMARK  Name = ZINC07724673
REMARK  13 active torsions:
REMARK  status: ('A' for Active; 'I' for Inactive)
REMARK    1  A    between atoms: C_1  and  C_2
REMARK    2  A    between atoms: C_2  and  C_3
REMARK    3  A    between atoms: C_3  and  C_4
REMARK    4  A    between atoms: C_4  and  N_5
REMARK    5  A    between atoms: N_5  and  C_6
REMARK    6  A    between atoms: C_7  and  N_19
REMARK    7  A    between atoms: N_8  and  C_15
REMARK    8  A    between atoms: C_15  and  C_16
REMARK    9  A    between atoms: C_16  and  C_17
REMARK   10  A    between atoms: C_16  and  C_18
REMARK   11  A    between atoms: C_20  and  C_22
REMARK   12  A    between atoms: C_24  and  C_29
REMARK   13  A    between atoms: C_26  and  C_28
REMARK                            x       y       z     vdW  Elec       q    Type
REMARK                         _______ _______ _______ _____ _____    ______ ____
ROOT
ATOM      1  C   UNL     1       0.902  -1.866   1.489  0.00  0.00    +0.140 A 
ATOM      2  C   UNL     1       2.096  -1.181   1.581  0.00  0.00    +0.127 A 
ATOM      3  N   UNL     1       2.688  -0.706   0.433  0.00  0.00    -0.280 N 
ATOM      4  C   UNL     1       2.107  -0.902  -0.764  0.00  0.00    +0.331 A 
ATOM      5  O   UNL     1       2.643  -0.470  -1.766  0.00  0.00    -0.246 OA
ATOM      6  N   UNL     1       0.946  -1.572  -0.874  0.00  0.00    -0.273 N 
ATOM      7  H   UNL     1       0.539  -1.711  -1.776  0.00  0.00    +0.173 HD
ATOM      8  C   UNL     1       0.325  -2.058   0.219  0.00  0.00    +0.277 A 
ATOM      9  O   UNL     1      -0.730  -2.660   0.109  0.00  0.00    -0.266 OA
ENDROOT
BRANCH   1  10
ATOM     10  N   UNL     1       0.271  -2.366   2.646  0.00  0.00    -0.260 N 
ATOM     11  C   UNL     1      -0.178  -1.514   3.590  0.00  0.00    +0.251 C 
ATOM     12  O   UNL     1      -0.790  -1.939   4.551  0.00  0.00    -0.270 OA
BRANCH  11  13
ATOM     13  C   UNL     1       0.074  -0.064   3.457  0.00  0.00    +0.038 A 
ATOM     14  C   UNL     1       0.201   0.512   2.191  0.00  0.00    +0.016 A 
ATOM     15  C   UNL     1       0.431   1.867   2.074  0.00  0.00    -0.049 A 
ATOM     16  C   UNL     1       0.546   2.653   3.207  0.00  0.00    +0.006 A 
ATOM     17  C   UNL     1       0.426   2.088   4.464  0.00  0.00    -0.049 A 
ATOM     18  C   UNL     1       0.191   0.735   4.595  0.00  0.00    +0.016 A 
ATOM     19  C   UNL     1       0.552   2.952   5.692  0.00  0.00    +0.044 C 
ATOM     20  C   UNL     1       0.563   2.492   0.709  0.00  0.00    +0.044 C 
ENDBRANCH  11  13
BRANCH  10  21
ATOM     21  C   UNL     1       0.102  -3.810   2.824  0.00  0.00    +0.114 C 
BRANCH  21  22
ATOM     22  C   UNL     1       1.261  -4.360   3.657  0.00  0.00    +0.019 C 
BRANCH  22  24
ATOM     23  C   UNL     1       2.244  -6.419   4.676  0.00  0.00    +0.004 C 
ATOM     24  C   UNL     1       1.086  -5.869   3.842  0.00  0.00    -0.002 C 
ENDBRANCH  22  24
ENDBRANCH  21  22
ENDBRANCH  10  21
ENDBRANCH   1  10
BRANCH   2  25
ATOM     25  N   UNL     1       2.688  -0.977   2.804  0.00  0.00    -0.343 N 
ATOM     26  H   UNL     1       3.466  -0.402   2.877  0.00  0.00    +0.144 HD
ATOM     27  H   UNL     1       2.328  -1.407   3.595  0.00  0.00    +0.144 HD
ENDBRANCH   2  25
BRANCH   3  28
ATOM     28  C   UNL     1       3.957   0.022   0.516  0.00  0.00    +0.131 C 
BRANCH  28  29
ATOM     29  C   UNL     1       5.120  -0.965   0.404  0.00  0.00    +0.003 C 
ATOM     30  C   UNL     1       6.441  -0.194   0.365  0.00  0.00    +0.009 C 
ATOM     31  C   UNL     1       5.112  -1.902   1.613  0.00  0.00    +0.009 C 
ENDBRANCH  28  29
ENDBRANCH   3  28
TORSDOF 8
