REMARK  Name = ZINC56933667
REMARK  7 active torsions:
REMARK  status: ('A' for Active; 'I' for Inactive)
REMARK    1  A    between atoms: C_1  and  C_2
REMARK    2  A    between atoms: C_8  and  C_24
REMARK    3  A    between atoms: C_9  and  C_12
REMARK    4  A    between atoms: N_14  and  C_15
REMARK    5  A    between atoms: C_20  and  C_21
REMARK    6  A    between atoms: C_21  and  C_22
REMARK    7  A    between atoms: C_21  and  C_23
REMARK                            x       y       z     vdW  Elec       q    Type
REMARK                         _______ _______ _______ _____ _____    ______ ____
ROOT
ATOM      1  C   UNL     1       0.109  -6.103   3.847  0.00  0.00    +0.270 C 
ATOM      2  O   UNL     1       0.131  -6.986   3.010  0.00  0.00    -0.268 OA
ATOM      3  N   UNL     1       0.120  -6.417   5.157  0.00  0.00    -0.280 N 
ATOM      4  H   UNL     1       0.183  -5.715   5.824  0.00  0.00    +0.155 HD
ENDROOT
BRANCH   1  13
ATOM      5  C   UNL     1      -0.091   1.505   0.016  0.00  0.00    +0.066 C 
ATOM      6  C   UNL     1      -0.057  -0.002   0.007  0.00  0.00    +0.048 A 
ATOM      7  C   UNL     1      -0.048  -0.704  -1.155  0.00  0.00    +0.071 A 
ATOM      8  S   UNL     1      -0.006  -2.376  -0.531  0.00  0.00    -0.056 S 
ATOM      9  C   UNL     1      -0.006  -2.012   1.112  0.00  0.00    +0.196 A 
ATOM     10  N   UNL     1      -0.030  -0.697   1.127  0.00  0.00    -0.226 NA
ATOM     11  N   UNL     1       0.020  -2.890   2.195  0.00  0.00    -0.192 N 
ATOM     12  C   UNL     1       0.056  -4.240   2.137  0.00  0.00    +0.076 A 
ATOM     13  C   UNL     1       0.071  -4.690   3.427  0.00  0.00    +0.171 A 
ATOM     14  N   UNL     1       0.044  -3.627   4.249  0.00  0.00    -0.124 NA
ATOM     15  N   UNL     1       0.019  -2.544   3.553  0.00  0.00    -0.058 NA
ATOM     16  C   UNL     1       0.076  -5.086   0.890  0.00  0.00    +0.068 C 
ENDBRANCH   1  13
BRANCH   3  17
ATOM     17  C   UNL     1       0.040  -7.755   5.557  0.00  0.00    +0.037 A 
ATOM     18  C   UNL     1      -0.551  -8.696   4.724  0.00  0.00    +0.023 A 
ATOM     19  C   UNL     1      -0.628 -10.016   5.121  0.00  0.00    +0.002 A 
ATOM     20  C   UNL     1      -0.119 -10.402   6.348  0.00  0.00    +0.000 A 
ATOM     21  C   UNL     1       0.470  -9.467   7.180  0.00  0.00    +0.006 A 
ATOM     22  C   UNL     1       0.556  -8.146   6.785  0.00  0.00    -0.024 A 
BRANCH  22  23
ATOM     23  C   UNL     1       1.204  -7.130   7.690  0.00  0.00    +0.015 C 
ATOM     24  C   UNL     1       0.526  -7.163   9.061  0.00  0.00    +0.012 C 
ATOM     25  C   UNL     1       2.689  -7.460   7.847  0.00  0.00    +0.012 C 
ENDBRANCH  22  23
ENDBRANCH   3  17
TORSDOF 3
