REMARK  Name = ZINC00901156
REMARK  11 active torsions:
REMARK  status: ('A' for Active; 'I' for Inactive)
REMARK    1  A    between atoms: C_1  and  C_2
REMARK    2  A    between atoms: C_2  and  N_3
REMARK    3  A    between atoms: N_3  and  S_4
REMARK    4  A    between atoms: S_4  and  C_7
REMARK    5  A    between atoms: C_10  and  N_13
REMARK    6  A    between atoms: C_14  and  C_16
REMARK    7  A    between atoms: C_16  and  C_18
REMARK    8  A    between atoms: C_16  and  S_19
REMARK    9  A    between atoms: S_19  and  C_20
REMARK   10  A    between atoms: C_22  and  C_30
REMARK   11  A    between atoms: C_24  and  C_26
REMARK                            x       y       z     vdW  Elec       q    Type
REMARK                         _______ _______ _______ _____ _____    ______ ____
ROOT
ATOM      1  C   UNL     1      -1.662   6.825  -6.424  0.00  0.00    +0.137 C 
ATOM      2  C   UNL     1      -0.547   6.490  -7.416  0.00  0.00    +0.029 C 
ENDROOT
BRANCH   1   4
ATOM      3  N   UNL     1      -1.842   4.747  -5.096  0.00  0.00    -0.285 N 
ATOM      4  C   UNL     1      -1.460   6.038  -5.155  0.00  0.00    +0.230 C 
ATOM      5  O   UNL     1      -0.954   6.566  -4.188  0.00  0.00    -0.274 OA
ATOM      6  H   UNL     1      -2.176   4.302  -5.891  0.00  0.00    +0.155 HD
BRANCH   3  10
ATOM      7  C   UNL     1      -1.589   2.663  -1.497  0.00  0.00    +0.105 A 
ATOM      8  C   UNL     1      -1.377   2.002  -2.693  0.00  0.00    +0.030 A 
ATOM      9  C   UNL     1      -1.465   2.689  -3.888  0.00  0.00    +0.025 A 
ATOM     10  C   UNL     1      -1.757   4.047  -3.887  0.00  0.00    +0.034 A 
ATOM     11  C   UNL     1      -1.964   4.708  -2.684  0.00  0.00    +0.025 A 
ATOM     12  C   UNL     1      -1.880   4.015  -1.493  0.00  0.00    +0.030 A 
BRANCH   7  13
ATOM     13  S   UNL     1      -1.483   1.782   0.025  0.00  0.00    +0.058 S 
ATOM     14  O   UNL     1      -1.178   2.740   1.029  0.00  0.00    -0.153 OA
ATOM     15  O   UNL     1      -0.662   0.647  -0.219  0.00  0.00    -0.153 OA
BRANCH  13  16
ATOM     16  N   UNL     1      -2.998   1.205   0.364  0.00  0.00    -0.190 NA
ATOM     17  H   UNL     1      -3.476   1.529   1.144  0.00  0.00    +0.148 HD
BRANCH  16  19
ATOM     18  C   UNL     1      -4.819  -0.418   0.192  0.00  0.00    +0.022 C 
ATOM     19  C   UNL     1      -3.618   0.212  -0.516  0.00  0.00    +0.102 C 
ENDBRANCH  16  19
ENDBRANCH  13  16
ENDBRANCH   7  13
ENDBRANCH   3  10
ENDBRANCH   1   4
BRANCH   1  20
ATOM     20  S   UNL     1      -1.623   8.596  -6.048  0.00  0.00    -0.074 S 
BRANCH  20  21
ATOM     21  C   UNL     1      -2.025   9.254  -7.632  0.00  0.00    +0.190 A 
ATOM     22  N   UNL     1      -2.100  10.567  -7.785  0.00  0.00    -0.222 NA
ATOM     23  C   UNL     1      -2.401  11.096  -8.969  0.00  0.00    +0.076 A 
ATOM     24  C   UNL     1      -2.638  10.243 -10.051  0.00  0.00    +0.060 A 
ATOM     25  C   UNL     1      -2.549   8.878  -9.846  0.00  0.00    +0.148 A 
ATOM     26  N   UNL     1      -2.239   8.422  -8.642  0.00  0.00    -0.218 NA
BRANCH  23  27
ATOM     27  C   UNL     1      -2.485  12.567  -9.137  0.00  0.00    +0.000 A 
ATOM     28  C   UNL     1      -2.796  13.112 -10.382  0.00  0.00    +0.010 A 
ATOM     29  C   UNL     1      -2.877  14.481 -10.532  0.00  0.00    +0.001 A 
ATOM     30  C   UNL     1      -2.640  15.313  -9.452  0.00  0.00    +0.000 A 
ATOM     31  C   UNL     1      -2.327  14.778  -8.216  0.00  0.00    +0.001 A 
ATOM     32  C   UNL     1      -2.248  13.410  -8.053  0.00  0.00    +0.010 A 
ENDBRANCH  23  27
BRANCH  25  33
ATOM     33  C   UNL     1      -2.795   7.919 -10.982  0.00  0.00    +0.434 C 
ATOM     34  F   UNL     1      -1.590   7.660 -11.643  0.00  0.00    -0.164 F 
ATOM     35  F   UNL     1      -3.318   6.723 -10.479  0.00  0.00    -0.164 F 
ATOM     36  F   UNL     1      -3.707   8.485 -11.880  0.00  0.00    -0.164 F 
ENDBRANCH  25  33
ENDBRANCH  20  21
ENDBRANCH   1  20
TORSDOF 9
