REMARK  Name = ZINC09124607
REMARK  9 active torsions:
REMARK  status: ('A' for Active; 'I' for Inactive)
REMARK    1  A    between atoms: C_1  and  C_2
REMARK    2  A    between atoms: C_2  and  C_3
REMARK    3  A    between atoms: C_6  and  C_9
REMARK    4  A    between atoms: C_12  and  C_27
REMARK    5  A    between atoms: N_19  and  C_20
REMARK    6  A    between atoms: C_20  and  C_21
REMARK    7  A    between atoms: C_29  and  C_35
REMARK    8  A    between atoms: C_31  and  C_34
REMARK    9  A    between atoms: C_32  and  O_33
REMARK                            x       y       z     vdW  Elec       q    Type
REMARK                         _______ _______ _______ _____ _____    ______ ____
ROOT
ATOM      1  C   UNL     1      -5.386  -2.000   0.021  0.00  0.00    +0.142 C 
ATOM      2  C   UNL     1      -5.423  -3.455  -0.357  0.00  0.00    +0.035 A 
ATOM      3  C   UNL     1      -5.019  -4.761  -0.059  0.00  0.00    +0.102 A 
ATOM      4  N   UNL     1      -5.531  -5.552  -0.981  0.00  0.00    -0.173 NA
ATOM      5  N   UNL     1      -6.219  -4.875  -1.831  0.00  0.00    -0.272 N 
ATOM      6  H   UNL     1      -6.687  -5.250  -2.594  0.00  0.00    +0.189 HD
ATOM      7  C   UNL     1      -6.194  -3.550  -1.499  0.00  0.00    +0.126 A 
ATOM      8  C   UNL     1      -6.652  -2.206  -1.866  0.00  0.00    +0.266 C 
ATOM      9  O   UNL     1      -7.352  -1.949  -2.827  0.00  0.00    -0.268 OA
ATOM     10  N   UNL     1      -6.189  -1.296  -0.988  0.00  0.00    -0.281 N 
ENDROOT
BRANCH   3  11
ATOM     11  C   UNL     1      -4.169  -5.179   1.083  0.00  0.00    +0.044 A 
ATOM     12  C   UNL     1      -3.799  -4.253   2.055  0.00  0.00    +0.017 A 
ATOM     13  C   UNL     1      -3.008  -4.646   3.116  0.00  0.00    -0.049 A 
ATOM     14  C   UNL     1      -2.581  -5.959   3.217  0.00  0.00    +0.010 A 
ATOM     15  C   UNL     1      -2.942  -6.885   2.258  0.00  0.00    -0.008 A 
ATOM     16  C   UNL     1      -3.740  -6.505   1.191  0.00  0.00    +0.129 A 
ATOM     17  C   UNL     1      -2.472  -8.312   2.375  0.00  0.00    +0.047 C 
ATOM     18  C   UNL     1      -2.609  -3.643   4.167  0.00  0.00    +0.044 C 
BRANCH  16  19
ATOM     19  O   UNL     1      -4.101  -7.417   0.250  0.00  0.00    -0.506 OA
ATOM     20  H   UNL     1      -3.482  -7.485  -0.489  0.00  0.00    +0.292 HD
ENDBRANCH  16  19
ENDBRANCH   3  11
BRANCH   1  24
ATOM     21  C   UNL     1      -1.364  -0.563  -0.040  0.00  0.00    -0.048 A 
ATOM     22  C   UNL     1      -1.966  -0.981  -1.212  0.00  0.00    +0.004 A 
ATOM     23  C   UNL     1      -3.268  -1.446  -1.192  0.00  0.00    +0.006 A 
ATOM     24  C   UNL     1      -3.967  -1.494  -0.001  0.00  0.00    -0.022 A 
ATOM     25  C   UNL     1      -3.364  -1.077   1.172  0.00  0.00    +0.006 A 
ATOM     26  C   UNL     1      -2.061  -0.616   1.153  0.00  0.00    +0.004 A 
BRANCH  21  28
ATOM     27  C   UNL     1       1.018  -1.226   0.154  0.00  0.00    +0.009 C 
ATOM     28  C   UNL     1       0.055  -0.057  -0.061  0.00  0.00    +0.032 C 
ENDBRANCH  21  28
ENDBRANCH   1  24
BRANCH  10  29
ATOM     29  C   UNL     1      -6.441   0.146  -1.032  0.00  0.00    +0.145 C 
BRANCH  29  30
ATOM     30  C   UNL     1      -5.366   0.820  -1.845  0.00  0.00    -0.012 A 
ATOM     31  C   UNL     1      -4.205   1.273  -1.237  0.00  0.00    +0.008 A 
ATOM     32  C   UNL     1      -3.244   1.887  -2.025  0.00  0.00    +0.020 A 
ATOM     33  C   UNL     1      -3.472   2.025  -3.381  0.00  0.00    +0.111 A 
ATOM     34  N   UNL     1      -4.589   1.583  -3.925  0.00  0.00    -0.263 NA
ATOM     35  C   UNL     1      -5.522   0.989  -3.208  0.00  0.00    +0.115 A 
ENDBRANCH  29  30
ENDBRANCH  10  29
TORSDOF 6
