REMARK  Name = ZINC23516998
REMARK  7 active torsions:
REMARK  status: ('A' for Active; 'I' for Inactive)
REMARK    1  A    between atoms: C_4  and  C_7
REMARK    2  A    between atoms: C_10  and  C_12
REMARK    3  A    between atoms: C_12  and  S_13
REMARK    4  A    between atoms: S_13  and  C_14
REMARK    5  A    between atoms: C_17  and  C_26
REMARK    6  A    between atoms: N_18  and  C_19
REMARK    7  A    between atoms: C_19  and  C_20
REMARK                            x       y       z     vdW  Elec       q    Type
REMARK                         _______ _______ _______ _____ _____    ______ ____
ROOT
ATOM      1  C   UNL     1      -4.305   0.127  -0.227  0.00  0.00    +0.192 A 
ATOM      2  N   UNL     1      -4.652   1.376  -0.026  0.00  0.00    -0.122 NA
ATOM      3  N   UNL     1      -3.614   2.087   0.234  0.00  0.00    -0.128 NA
ATOM      4  C   UNL     1      -2.538   1.334   0.214  0.00  0.00    +0.167 A 
ATOM      5  N   UNL     1      -2.946   0.056  -0.087  0.00  0.00    -0.300 N 
ENDROOT
BRANCH   4   6
ATOM      6  C   UNL     1      -1.151   1.778   0.462  0.00  0.00    +0.044 A 
ATOM      7  C   UNL     1      -0.057   1.472  -0.281  0.00  0.00    +0.095 A 
ATOM      8  N   UNL     1       1.046   2.070   0.256  0.00  0.00    -0.360 N 
ATOM      9  H   UNL     1       2.030   1.937  -0.218  0.00  0.00    +0.165 HD
ATOM     10  C   UNL     1       0.699   2.785   1.382  0.00  0.00    +0.047 A 
ATOM     11  C   UNL     1      -0.685   2.634   1.566  0.00  0.00    +0.010 A 
ATOM     12  C   UNL     1      -1.318   3.256   2.641  0.00  0.00    +0.011 A 
ATOM     13  C   UNL     1      -0.580   4.018   3.519  0.00  0.00    +0.001 A 
ATOM     14  C   UNL     1       0.787   4.168   3.338  0.00  0.00    +0.002 A 
ATOM     15  C   UNL     1       1.427   3.559   2.281  0.00  0.00    +0.026 A 
ENDBRANCH   4   6
BRANCH   1  16
ATOM     16  S   UNL     1      -5.388  -1.209  -0.613  0.00  0.00    -0.077 S 
BRANCH  16  17
ATOM     17  C   UNL     1      -6.972  -0.335  -0.630  0.00  0.00    +0.173 C 
BRANCH  17  21
ATOM     18  C   UNL     1      -9.517  -2.511  -2.045  0.00  0.00    +0.155 A 
ATOM     19  C   UNL     1      -9.656  -2.753  -0.717  0.00  0.00    +0.161 A 
ATOM     20  N   UNL     1      -8.752  -2.000  -0.072  0.00  0.00    -0.220 NA
ATOM     21  C   UNL     1      -8.079  -1.307  -0.948  0.00  0.00    +0.206 A 
ATOM     22  O   UNL     1      -8.525  -1.603  -2.176  0.00  0.00    -0.439 OA
BRANCH  18  26
ATOM     23  C   UNL     1     -11.770  -4.269  -5.188  0.00  0.00    +0.000 A 
ATOM     24  C   UNL     1     -10.779  -3.349  -5.482  0.00  0.00    +0.001 A 
ATOM     25  C   UNL     1     -10.044  -2.775  -4.466  0.00  0.00    +0.011 A 
ATOM     26  C   UNL     1     -10.301  -3.123  -3.139  0.00  0.00    +0.019 A 
ATOM     27  C   UNL     1     -11.298  -4.056  -2.850  0.00  0.00    +0.011 A 
ATOM     28  C   UNL     1     -12.030  -4.619  -3.875  0.00  0.00    +0.001 A 
ENDBRANCH  18  26
ENDBRANCH  17  21
ENDBRANCH  16  17
ENDBRANCH   1  16
BRANCH   5  29
ATOM     29  C   UNL     1      -2.103  -1.134  -0.226  0.00  0.00    +0.157 C 
BRANCH  29  30
ATOM     30  C   UNL     1      -1.863  -1.753   1.153  0.00  0.00    +0.138 C 
ATOM     31  C   UNL     1      -0.878  -2.935   1.032  0.00  0.00    +0.035 C 
ATOM     32  C   UNL     1      -1.480  -3.967   2.027  0.00  0.00    +0.031 C 
ATOM     33  C   UNL     1      -2.995  -3.686   1.863  0.00  0.00    +0.160 C 
ATOM     34  O   UNL     1      -3.094  -2.265   1.676  0.00  0.00    -0.375 OA
ENDBRANCH  29  30
ENDBRANCH   5  29
TORSDOF 7
