REMARK  Name = ZINC36654293
REMARK  6 active torsions:
REMARK  status: ('A' for Active; 'I' for Inactive)
REMARK    1  A    between atoms: C_6  and  C_7
REMARK    2  A    between atoms: C_7  and  C_9
REMARK    3  A    between atoms: C_7  and  N_12
REMARK    4  A    between atoms: N_15  and  C_18
REMARK    5  A    between atoms: C_21  and  C_27
REMARK    6  A    between atoms: C_23  and  N_24
REMARK                            x       y       z     vdW  Elec       q    Type
REMARK                         _______ _______ _______ _____ _____    ______ ____
ROOT
ATOM      1  N   UNL     1      -1.160  -2.206  -0.292  0.00  0.00    -0.285 NA
ATOM      2  C   UNL     1      -0.370  -2.892   0.739  0.00  0.00    +0.104 C 
ATOM      3  C   UNL     1      -0.102  -4.335   0.297  0.00  0.00    +0.120 C 
ATOM      4  N   UNL     1      -1.389  -4.971  -0.026  0.00  0.00    -0.326 N 
ATOM      5  C   UNL     1      -2.297  -4.274  -0.949  0.00  0.00    +0.120 C 
ATOM      6  C   UNL     1      -2.478  -2.833  -0.458  0.00  0.00    +0.104 C 
ENDROOT
BRANCH   4   7
ATOM      7  C   UNL     1      -1.738  -6.204   0.529  0.00  0.00    +0.060 A 
ATOM      8  C   UNL     1      -2.429  -6.255   1.733  0.00  0.00    +0.026 A 
ATOM      9  C   UNL     1      -2.773  -7.477   2.278  0.00  0.00    +0.014 A 
ATOM     10  C   UNL     1      -2.430  -8.648   1.627  0.00  0.00    +0.057 A 
ATOM     11  C   UNL     1      -1.742  -8.600   0.429  0.00  0.00    +0.047 A 
ATOM     12  C   UNL     1      -1.399  -7.382  -0.125  0.00  0.00    +0.148 A 
BRANCH  10  13
ATOM     13  C   UNL     1      -2.808  -9.979   2.225  0.00  0.00    +0.417 C 
ATOM     14  F   UNL     1      -3.492  -9.772   3.428  0.00  0.00    -0.166 F 
ATOM     15  F   UNL     1      -3.631 -10.674   1.333  0.00  0.00    -0.166 F 
ATOM     16  F   UNL     1      -1.650 -10.725   2.469  0.00  0.00    -0.166 F 
ENDBRANCH  10  13
BRANCH  12  17
ATOM     17  N   UNL     1      -0.668  -7.332  -1.411  0.00  0.00    +0.058 N 
ATOM     18  O   UNL     1      -0.374  -8.358  -1.979  0.00  0.00    -0.126 OA
ATOM     19  O   UNL     1      -0.364  -6.265  -1.892  0.00  0.00    -0.126 OA
ENDBRANCH  12  17
ENDBRANCH   4   7
BRANCH   1  20
ATOM     20  C   UNL     1      -1.293  -0.775   0.011  0.00  0.00    +0.174 C 
BRANCH  20  26
ATOM     21  C   UNL     1      -3.131   0.760  -0.717  0.00  0.00    +0.007 A 
ATOM     22  C   UNL     1      -3.882   1.373  -1.702  0.00  0.00    +0.020 A 
ATOM     23  C   UNL     1      -3.614   1.117  -3.036  0.00  0.00    +0.041 A 
ATOM     24  C   UNL     1      -2.595   0.249  -3.382  0.00  0.00    +0.020 A 
ATOM     25  C   UNL     1      -1.844  -0.363  -2.396  0.00  0.00    +0.007 A 
ATOM     26  C   UNL     1      -2.112  -0.108  -1.064  0.00  0.00    -0.021 A 
ATOM     27 CL   UNL     1      -4.558   1.886  -4.274  0.00  0.00    -0.084 Cl
ENDBRANCH  20  26
BRANCH  20  28
ATOM     28  C   UNL     1       0.075  -0.144   0.064  0.00  0.00    +0.232 C 
ATOM     29  O   UNL     1       0.986  -0.617  -0.581  0.00  0.00    -0.274 OA
ATOM     30  N   UNL     1       0.285   0.945   0.830  0.00  0.00    -0.328 N 
ATOM     31  H   UNL     1      -0.444   1.323   1.346  0.00  0.00    +0.145 HD
ATOM     32  H   UNL     1       1.165   1.351   0.865  0.00  0.00    +0.145 HD
ENDBRANCH  20  28
ENDBRANCH   1  20
TORSDOF 6
