REMARK  Name = ZINC00106667
REMARK  2 active torsions:
REMARK  status: ('A' for Active; 'I' for Inactive)
REMARK    1  A    between atoms: C_8  and  C_18
REMARK    2  A    between atoms: C_22  and  N_24
REMARK                            x       y       z     vdW  Elec       q    Type
REMARK                         _______ _______ _______ _____ _____    ______ ____
ROOT
ATOM      1  C   UNL     1      -3.498  -0.285  -1.825  0.00  0.00    +0.002 A 
ATOM      2  C   UNL     1      -4.193  -0.787  -0.740  0.00  0.00    +0.002 A 
ATOM      3  C   UNL     1      -4.676   0.067   0.236  0.00  0.00    +0.025 A 
ATOM      4  C   UNL     1      -4.454   1.428   0.117  0.00  0.00    +0.052 A 
ATOM      5  C   UNL     1      -3.724   1.929  -0.950  0.00  0.00    +0.049 A 
ATOM      6  C   UNL     1      -3.260   1.074  -1.936  0.00  0.00    +0.025 A 
ATOM      7  N   UNL     1      -3.416   3.286  -0.960  0.00  0.00    -0.331 N 
ATOM      8  C   UNL     1      -2.553   3.869   0.045  0.00  0.00    +0.136 C 
ATOM      9  C   UNL     1      -3.111   3.822   1.448  0.00  0.00    +0.036 C 
ATOM     10  C   UNL     1      -4.183   3.119   1.847  0.00  0.00    +0.017 C 
ATOM     11  N   UNL     1      -4.949   2.345   1.038  0.00  0.00    -0.316 N 
ATOM     12  C   UNL     1      -4.621   3.143   3.303  0.00  0.00    +0.051 C 
ATOM     13  C   UNL     1      -4.309   4.505   3.918  0.00  0.00    +0.014 C 
ATOM     14  C   UNL     1      -2.795   4.728   3.815  0.00  0.00    +0.080 C 
ATOM     15  C   UNL     1      -2.394   4.617   2.374  0.00  0.00    +0.163 C 
ATOM     16  O   UNL     1      -1.418   5.230   1.988  0.00  0.00    -0.292 OA
ATOM     17  H   UNL     1      -3.787   3.851  -1.656  0.00  0.00    +0.147 HD
ATOM     18  H   UNL     1      -5.912   2.438   1.106  0.00  0.00    +0.152 HD
ENDROOT
BRANCH   8  19
ATOM     19  C   UNL     1      -1.238   3.133   0.030  0.00  0.00    -0.021 A 
ATOM     20  C   UNL     1      -0.070   3.811  -0.266  0.00  0.00    +0.006 A 
ATOM     21  C   UNL     1       1.136   3.135  -0.285  0.00  0.00    +0.003 A 
ATOM     22  C   UNL     1       1.175   1.784   0.002  0.00  0.00    +0.033 A 
ATOM     23  C   UNL     1       0.008   1.107   0.303  0.00  0.00    +0.127 A 
ATOM     24  C   UNL     1      -1.198   1.782   0.317  0.00  0.00    +0.038 A 
BRANCH  23  25
ATOM     25  N   UNL     1       0.051  -0.341   0.611  0.00  0.00    +0.056 N 
ATOM     26  O   UNL     1       1.114  -0.935   0.599  0.00  0.00    -0.126 OA
ATOM     27  O   UNL     1      -0.978  -0.937   0.876  0.00  0.00    -0.126 OA
ENDBRANCH  23  25
ENDBRANCH   8  19
TORSDOF 2
