REMARK  Name = ZINC09968571
REMARK  10 active torsions:
REMARK  status: ('A' for Active; 'I' for Inactive)
REMARK    1  A    between atoms: C_1  and  C_2
REMARK    2  A    between atoms: C_7  and  N_8
REMARK    3  A    between atoms: C_9  and  C_11
REMARK    4  A    between atoms: C_12  and  C_36
REMARK    5  A    between atoms: C_14  and  S_25
REMARK    6  A    between atoms: C_15  and  C_23
REMARK    7  A    between atoms: C_16  and  C_18
REMARK    8  A    between atoms: S_25  and  C_26
REMARK    9  A    between atoms: C_26  and  C_27
REMARK   10  A    between atoms: N_29  and  C_30
REMARK                            x       y       z     vdW  Elec       q    Type
REMARK                         _______ _______ _______ _____ _____    ______ ____
ROOT
ATOM      1  C   UNL     1       1.290   1.698   0.056  0.00  0.00    +0.047 C 
ATOM      2  C   UNL     1       2.516   1.215  -0.201  0.00  0.00    +0.015 C 
ATOM      3  N   UNL     1       3.611   2.036  -0.205  0.00  0.00    -0.312 N 
ATOM      4  C   UNL     1       3.552   3.268   0.406  0.00  0.00    +0.080 C 
ATOM      5  C   UNL     1       2.352   3.838   0.696  0.00  0.00    +0.072 C 
ATOM      6  C   UNL     1       1.060   3.152   0.353  0.00  0.00    +0.134 C 
ATOM      7  C   UNL     1       2.688  -0.253  -0.496  0.00  0.00    +0.061 C 
ATOM      8  H   UNL     1       4.540   1.712  -0.698  0.00  0.00    +0.152 HD
ENDROOT
BRANCH   6   9
ATOM      9  C   UNL     1       0.110   3.276   1.517  0.00  0.00    +0.118 A 
ATOM     10  C   UNL     1      -1.124   3.808   1.471  0.00  0.00    +0.045 A 
ATOM     11  C   UNL     1      -1.656   3.722   2.778  0.00  0.00    +0.041 A 
ATOM     12  C   UNL     1      -0.715   3.142   3.544  0.00  0.00    +0.195 A 
ATOM     13  O   UNL     1       0.350   2.869   2.774  0.00  0.00    -0.467 OA
ENDBRANCH   6   9
BRANCH   1  15
ATOM     14  N   UNL     1      -0.013  -0.020   1.095  0.00  0.00    -0.281 N 
ATOM     15  C   UNL     1       0.186   0.812   0.053  0.00  0.00    +0.247 C 
ATOM     16  O   UNL     1      -0.587   0.806  -0.888  0.00  0.00    -0.270 OA
ATOM     17  H   UNL     1       0.628   0.050   1.985  0.00  0.00    +0.155 HD
BRANCH  14  24
ATOM     18  C   UNL     1      -0.959  -1.112   3.546  0.00  0.00    +0.045 C 
ATOM     19  C   UNL     1      -1.527  -1.531   2.215  0.00  0.00    -0.029 A 
ATOM     20  C   UNL     1      -2.537  -2.472   2.160  0.00  0.00    +0.005 A 
ATOM     21  C   UNL     1      -3.059  -2.858   0.939  0.00  0.00    +0.000 A 
ATOM     22  C   UNL     1      -2.572  -2.303  -0.231  0.00  0.00    +0.002 A 
ATOM     23  C   UNL     1      -1.566  -1.359  -0.182  0.00  0.00    +0.023 A 
ATOM     24  C   UNL     1      -1.036  -0.973   1.042  0.00  0.00    +0.037 A 
ENDBRANCH  14  24
ENDBRANCH   1  15
BRANCH   5  25
ATOM     25  C   UNL     1       2.319   5.117   1.341  0.00  0.00    +0.098 C 
ATOM     26  N   UNL     1       2.292   6.131   1.852  0.00  0.00    -0.191 NA
ENDBRANCH   5  25
BRANCH   4  27
ATOM     27  S   UNL     1       5.043   4.113   0.816  0.00  0.00    -0.100 S 
BRANCH  27  28
ATOM     28  C   UNL     1       6.259   2.914   0.215  0.00  0.00    +0.171 C 
BRANCH  28  29
ATOM     29  C   UNL     1       7.649   3.439   0.467  0.00  0.00    +0.227 C 
ATOM     30  O   UNL     1       7.803   4.518   1.000  0.00  0.00    -0.275 OA
ATOM     31  N   UNL     1       8.722   2.711   0.099  0.00  0.00    -0.285 N 
ATOM     32  H   UNL     1       8.584   1.774  -0.462  0.00  0.00    +0.155 HD
BRANCH  31  33
ATOM     33  C   UNL     1      10.010   3.145   0.430  0.00  0.00    +0.033 A 
ATOM     34  C   UNL     1      11.072   2.890  -0.427  0.00  0.00    +0.023 A 
ATOM     35  C   UNL     1      12.341   3.326  -0.100  0.00  0.00    +0.002 A 
ATOM     36  C   UNL     1      12.557   4.004   1.086  0.00  0.00    +0.000 A 
ATOM     37  C   UNL     1      11.502   4.255   1.944  0.00  0.00    +0.002 A 
ATOM     38  C   UNL     1      10.229   3.827   1.620  0.00  0.00    +0.023 A 
ENDBRANCH  31  33
ENDBRANCH  28  29
ENDBRANCH  27  28
ENDBRANCH   4  27
TORSDOF 8
