REMARK  Name = ZINC50809264
REMARK  10 active torsions:
REMARK  status: ('A' for Active; 'I' for Inactive)
REMARK    1  A    between atoms: C_1  and  C_2
REMARK    2  A    between atoms: C_2  and  C_3
REMARK    3  A    between atoms: C_3  and  C_4
REMARK    4  A    between atoms: C_4  and  C_6
REMARK    5  A    between atoms: C_4  and  N_21
REMARK    6  A    between atoms: N_8  and  C_9
REMARK    7  A    between atoms: C_9  and  C_10
REMARK    8  A    between atoms: C_10  and  C_11
REMARK    9  A    between atoms: C_10  and  C_12
REMARK   10  A    between atoms: C_10  and  C_13
REMARK                            x       y       z     vdW  Elec       q    Type
REMARK                         _______ _______ _______ _____ _____    ______ ____
ROOT
ATOM      1  C   UNL     1       1.550  -2.512  -2.439  0.00  0.00    +0.233 C 
ATOM      2  O   UNL     1       0.991  -2.888  -3.448  0.00  0.00    -0.274 OA
ATOM      3  N   UNL     1       2.895  -2.528  -2.369  0.00  0.00    -0.313 N 
ATOM      4  H   UNL     1       3.342  -2.227  -1.562  0.00  0.00    +0.149 HD
ENDROOT
BRANCH   1   5
ATOM      5  C   UNL     1       0.739  -2.027  -1.265  0.00  0.00    +0.160 C 
BRANCH   5   6
ATOM      6  N   UNL     1      -0.631  -2.534  -1.375  0.00  0.00    -0.288 N 
ATOM      7  C   UNL     1      -1.385  -2.212  -2.446  0.00  0.00    +0.298 C 
ATOM      8  O   UNL     1      -0.927  -1.502  -3.320  0.00  0.00    -0.253 OA
ATOM      9  N   UNL     1      -2.645  -2.678  -2.547  0.00  0.00    -0.313 N 
ATOM     10  H   UNL     1      -0.997  -3.100  -0.678  0.00  0.00    +0.151 HD
ATOM     11  H   UNL     1      -3.010  -3.245  -1.849  0.00  0.00    +0.146 HD
ATOM     12  H   UNL     1      -3.187  -2.447  -3.317  0.00  0.00    +0.146 HD
ENDBRANCH   5   6
BRANCH   5  13
ATOM     13  C   UNL     1       0.718  -0.497  -1.257  0.00  0.00    +0.031 C 
BRANCH  13  15
ATOM     14  C   UNL     1      -0.019   1.526   0.010  0.00  0.00    +0.004 C 
ATOM     15  C   UNL     1       0.002  -0.004   0.002  0.00  0.00    -0.001 C 
ENDBRANCH  13  15
ENDBRANCH   5  13
ENDBRANCH   1   5
BRANCH   3  16
ATOM     16  C   UNL     1       3.683  -2.999  -3.510  0.00  0.00    +0.115 C 
BRANCH  16  17
ATOM     17  C   UNL     1       5.173  -2.915  -3.172  0.00  0.00    +0.006 C 
ATOM     18  C   UNL     1       5.544  -1.463  -2.861  0.00  0.00    +0.017 C 
ATOM     19  C   UNL     1       5.469  -3.789  -1.952  0.00  0.00    +0.017 C 
BRANCH  17  20
ATOM     20  C   UNL     1       5.983  -3.400  -4.346  0.00  0.00    -0.039 A 
ATOM     21  C   UNL     1       5.346  -3.823  -5.498  0.00  0.00    +0.006 A 
ATOM     22  C   UNL     1       6.088  -4.269  -6.575  0.00  0.00    +0.022 A 
ATOM     23  C   UNL     1       7.470  -4.290  -6.502  0.00  0.00    +0.059 A 
ATOM     24  C   UNL     1       8.108  -3.866  -5.349  0.00  0.00    +0.060 A 
ATOM     25  C   UNL     1       7.363  -3.416  -4.273  0.00  0.00    +0.025 A 
ATOM     26 CL   UNL     1       9.841  -3.893  -5.255  0.00  0.00    -0.082 Cl
ATOM     27 CL   UNL     1       8.402  -4.850  -7.855  0.00  0.00    -0.082 Cl
ENDBRANCH  17  20
ENDBRANCH  16  17
ENDBRANCH   3  16
TORSDOF 7
