REMARK  Name = ZINC09820849
REMARK  10 active torsions:
REMARK  status: ('A' for Active; 'I' for Inactive)
REMARK    1  A    between atoms: C_1  and  C_2
REMARK    2  A    between atoms: C_5  and  N_12
REMARK    3  A    between atoms: C_8  and  C_10
REMARK    4  A    between atoms: C_8  and  C_11
REMARK    5  A    between atoms: C_13  and  C_15
REMARK    6  A    between atoms: C_15  and  C_16
REMARK    7  A    between atoms: N_21  and  S_22
REMARK    8  A    between atoms: S_22  and  C_25
REMARK    9  A    between atoms: C_28  and  O_31
REMARK   10  A    between atoms: O_31  and  C_32
REMARK                            x       y       z     vdW  Elec       q    Type
REMARK                         _______ _______ _______ _____ _____    ______ ____
ROOT
ATOM      1  C   UNL     1      -0.341   2.358  -0.156  0.00  0.00    +0.059 A 
ATOM      2  C   UNL     1       0.715   3.206  -0.144  0.00  0.00    +0.072 A 
ATOM      3  S   UNL     1       2.064   2.063  -0.396  0.00  0.00    -0.059 S 
ATOM      4  C   UNL     1       1.116   0.611  -0.490  0.00  0.00    +0.178 A 
ATOM      5  N   UNL     1      -0.111   1.070  -0.331  0.00  0.00    -0.228 NA
ATOM      6  N   UNL     1       1.540  -0.695  -0.683  0.00  0.00    -0.194 N 
ATOM      7  H   UNL     1       0.891  -1.415  -0.715  0.00  0.00    +0.176 HD
ENDROOT
BRANCH   6   8
ATOM      8  S   UNL     1       3.153  -1.024  -0.860  0.00  0.00    +0.074 S 
ATOM      9  O   UNL     1       3.265  -2.433  -1.012  0.00  0.00    -0.150 OA
ATOM     10  O   UNL     1       3.650  -0.112  -1.829  0.00  0.00    -0.150 OA
BRANCH   8  11
ATOM     11  C   UNL     1       3.938  -0.618   0.664  0.00  0.00    +0.109 A 
ATOM     12  C   UNL     1       4.436   0.657   0.865  0.00  0.00    +0.032 A 
ATOM     13  C   UNL     1       5.046   0.980   2.061  0.00  0.00    +0.047 A 
ATOM     14  C   UNL     1       5.171   0.021   3.057  0.00  0.00    +0.120 A 
ATOM     15  C   UNL     1       4.676  -1.258   2.850  0.00  0.00    +0.047 A 
ATOM     16  C   UNL     1       4.060  -1.575   1.654  0.00  0.00    +0.032 A 
BRANCH  14  17
ATOM     17  O   UNL     1       5.776   0.335   4.232  0.00  0.00    -0.495 OA
ATOM     18  C   UNL     1       6.262   1.671   4.375  0.00  0.00    +0.277 C 
ENDBRANCH  14  17
ENDBRANCH   8  11
ENDBRANCH   6   8
BRANCH   1  19
ATOM     19  C   UNL     1      -1.746   2.873   0.019  0.00  0.00    +0.151 C 
BRANCH  19  21
ATOM     20  N   UNL     1      -3.896   2.769  -1.200  0.00  0.00    -0.312 N 
ATOM     21  C   UNL     1      -2.594   2.424  -1.143  0.00  0.00    +0.219 C 
ATOM     22  O   UNL     1      -2.106   1.752  -2.026  0.00  0.00    -0.275 OA
ATOM     23  H   UNL     1      -4.287   3.306  -0.493  0.00  0.00    +0.149 HD
BRANCH  20  27
ATOM     24  C   UNL     1      -8.095   3.669  -1.044  0.00  0.00    +0.007 C 
ATOM     25  C   UNL     1      -6.785   2.878  -1.033  0.00  0.00    -0.012 C 
ATOM     26  C   UNL     1      -6.030   3.123  -2.341  0.00  0.00    +0.025 C 
ATOM     27  C   UNL     1      -4.720   2.332  -2.330  0.00  0.00    +0.074 C 
ATOM     28  C   UNL     1      -5.027   0.840  -2.190  0.00  0.00    +0.028 C 
ATOM     29  C   UNL     1      -5.782   0.594  -0.883  0.00  0.00    -0.033 C 
ATOM     30  C   UNL     1      -7.092   1.385  -0.894  0.00  0.00    +0.009 C 
ATOM     31  C   UNL     1      -4.921   1.050   0.297  0.00  0.00    +0.011 C 
ATOM     32  C   UNL     1      -6.089  -0.898  -0.743  0.00  0.00    +0.011 C 
ENDBRANCH  20  27
ENDBRANCH  19  21
ENDBRANCH   1  19
TORSDOF 6
