REMARK  Name = ZINC31897609
REMARK  10 active torsions:
REMARK  status: ('A' for Active; 'I' for Inactive)
REMARK    1  A    between atoms: C_1  and  C_2
REMARK    2  A    between atoms: C_2  and  N_3
REMARK    3  A    between atoms: N_3  and  C_4
REMARK    4  A    between atoms: N_3  and  C_6
REMARK    5  A    between atoms: C_4  and  C_5
REMARK    6  A    between atoms: C_6  and  C_7
REMARK    7  A    between atoms: C_11  and  C_15
REMARK    8  A    between atoms: C_12  and  C_14
REMARK    9  A    between atoms: N_18  and  C_19
REMARK   10  A    between atoms: C_19  and  C_20
REMARK                            x       y       z     vdW  Elec       q    Type
REMARK                         _______ _______ _______ _____ _____    ______ ____
ROOT
ATOM      1  C   UNL     1       1.145  -0.276  -0.102  0.00  0.00    +0.097 A 
ATOM      2  N   UNL     1       2.207   0.480  -0.007  0.00  0.00    -0.228 NA
ATOM      3  C   UNL     1       2.103   1.774   0.283  0.00  0.00    +0.116 A 
ATOM      4  C   UNL     1       0.857   2.390   0.499  0.00  0.00    +0.075 A 
ATOM      5  C   UNL     1       0.918   3.807   0.804  0.00  0.00    -0.026 A 
ATOM      6  C   UNL     1       2.115   4.415   0.858  0.00  0.00    -0.008 A 
ATOM      7  S   UNL     1       3.262   3.099   0.496  0.00  0.00    -0.073 S 
ATOM      8  C   UNL     1       2.415   5.861   1.155  0.00  0.00    +0.052 C 
ATOM      9  C   UNL     1      -0.345   4.588   1.057  0.00  0.00    +0.045 C 
ATOM     10  C   UNL     1      -0.286   1.533   0.386  0.00  0.00    +0.263 A 
ATOM     11  O   UNL     1      -1.410   1.975   0.550  0.00  0.00    -0.267 OA
ATOM     12  N   UNL     1      -0.099   0.233   0.090  0.00  0.00    -0.293 N 
ENDROOT
BRANCH   1  13
ATOM     13  C   UNL     1       1.304  -1.738  -0.432  0.00  0.00    -0.003 C 
BRANCH  13  14
ATOM     14  N   UNL     1       2.733  -2.066  -0.524  0.00  0.00    +0.384 N 
ATOM     15  H   UNL     1       3.201  -1.349  -1.215  0.00  0.00    -0.081 HD
BRANCH  14  17
ATOM     16  C   UNL     1       2.821  -2.966   1.751  0.00  0.00    -0.017 C 
ATOM     17  C   UNL     1       3.391  -1.928   0.782  0.00  0.00    -0.082 C 
ENDBRANCH  14  17
BRANCH  14  18
ATOM     18  C   UNL     1       2.929  -3.414  -1.073  0.00  0.00    -0.082 C 
ATOM     19  C   UNL     1       4.388  -3.583  -1.504  0.00  0.00    -0.017 C 
ENDBRANCH  14  18
ENDBRANCH  13  14
ENDBRANCH   1  13
BRANCH  12  20
ATOM     20  C   UNL     1      -1.261  -0.651  -0.027  0.00  0.00    +0.161 C 
BRANCH  20  21
ATOM     21  C   UNL     1      -1.651  -1.151   1.340  0.00  0.00    -0.027 A 
ATOM     22  C   UNL     1      -1.209  -2.387   1.775  0.00  0.00    +0.008 A 
ATOM     23  C   UNL     1      -1.562  -2.845   3.030  0.00  0.00    +0.038 A 
ATOM     24  C   UNL     1      -2.367  -2.071   3.848  0.00  0.00    +0.123 A 
ATOM     25  C   UNL     1      -2.813  -0.836   3.409  0.00  0.00    +0.038 A 
ATOM     26  C   UNL     1      -2.455  -0.378   2.156  0.00  0.00    +0.008 A 
ATOM     27  F   UNL     1      -2.716  -2.520   5.074  0.00  0.00    -0.205 F 
ENDBRANCH  20  21
ENDBRANCH  12  20
TORSDOF 6
