REMARK  Name = ZINC03379120
REMARK  5 active torsions:
REMARK  status: ('A' for Active; 'I' for Inactive)
REMARK    1  A    between atoms: C_1  and  C_2
REMARK    2  A    between atoms: C_15  and  C_17
REMARK    3  A    between atoms: C_17  and  S_18
REMARK    4  A    between atoms: S_18  and  C_19
REMARK    5  A    between atoms: N_32  and  C_33
REMARK                            x       y       z     vdW  Elec       q    Type
REMARK                         _______ _______ _______ _____ _____    ______ ____
ROOT
ATOM      1  C   UNL     1       1.818 -10.477   3.361  0.00  0.00    +0.198 A 
ATOM      2  N   UNL     1       1.475 -11.470   2.576  0.00  0.00    -0.120 NA
ATOM      3  N   UNL     1       2.218 -12.493   2.807  0.00  0.00    -0.109 NA
ATOM      4  C   UNL     1       3.082 -12.218   3.755  0.00  0.00    +0.245 A 
ATOM      5  N   UNL     1       2.857 -10.921   4.134  0.00  0.00    -0.255 N 
ATOM      6  C   UNL     1       3.623 -10.325   5.128  0.00  0.00    +0.064 A 
ATOM      7  C   UNL     1       3.400  -9.014   5.520  0.00  0.00    +0.027 A 
ATOM      8  C   UNL     1       4.178  -8.450   6.512  0.00  0.00    +0.002 A 
ATOM      9  C   UNL     1       5.184  -9.184   7.121  0.00  0.00    +0.001 A 
ATOM     10  C   UNL     1       5.421 -10.488   6.743  0.00  0.00    +0.015 A 
ATOM     11  C   UNL     1       4.642 -11.069   5.744  0.00  0.00    +0.064 A 
ATOM     12  C   UNL     1       4.864 -12.461   5.314  0.00  0.00    +0.268 A 
ATOM     13  O   UNL     1       5.737 -13.134   5.826  0.00  0.00    -0.267 OA
ATOM     14  N   UNL     1       4.077 -12.979   4.347  0.00  0.00    -0.245 N 
ENDROOT
BRANCH  14  15
ATOM     15  C   UNL     1       4.279 -14.299   3.927  0.00  0.00    +0.053 A 
ATOM     16  C   UNL     1       3.599 -15.339   4.548  0.00  0.00    +0.026 A 
ATOM     17  C   UNL     1       3.800 -16.640   4.131  0.00  0.00    +0.002 A 
ATOM     18  C   UNL     1       4.679 -16.908   3.097  0.00  0.00    +0.000 A 
ATOM     19  C   UNL     1       5.358 -15.875   2.477  0.00  0.00    +0.002 A 
ATOM     20  C   UNL     1       5.157 -14.571   2.885  0.00  0.00    +0.026 A 
ENDBRANCH  14  15
BRANCH   1  21
ATOM     21  S   UNL     1       1.085  -8.875   3.408  0.00  0.00    -0.078 S 
BRANCH  21  22
ATOM     22  C   UNL     1      -0.218  -8.952   2.148  0.00  0.00    +0.151 C 
BRANCH  22  36
ATOM     23  C   UNL     1      -4.410   0.074   2.460  0.00  0.00    +0.008 C 
ATOM     24  C   UNL     1      -4.101  -1.424   2.491  0.00  0.00    -0.009 C 
ATOM     25  C   UNL     1      -4.066  -1.971   1.061  0.00  0.00    +0.008 C 
ATOM     26  C   UNL     1      -4.006  -3.498   1.090  0.00  0.00    +0.037 C 
ATOM     27  C   UNL     1      -2.846  -3.930   1.984  0.00  0.00    -0.023 A 
ATOM     28  C   UNL     1      -2.312  -3.069   2.881  0.00  0.00    -0.004 A 
ATOM     29  S   UNL     1      -1.015  -3.978   3.683  0.00  0.00    -0.073 S 
ATOM     30  C   UNL     1      -1.192  -5.506   2.816  0.00  0.00    +0.116 A 
ATOM     31  C   UNL     1      -2.260  -5.257   1.926  0.00  0.00    +0.075 A 
ATOM     32  C   UNL     1      -2.653  -6.335   1.062  0.00  0.00    +0.260 A 
ATOM     33  O   UNL     1      -3.563  -6.223   0.259  0.00  0.00    -0.267 OA
ATOM     34  N   UNL     1      -1.948  -7.483   1.198  0.00  0.00    -0.310 N 
ATOM     35  H   UNL     1      -2.180  -8.237   0.633  0.00  0.00    +0.170 HD
ATOM     36  C   UNL     1      -0.934  -7.627   2.084  0.00  0.00    +0.121 A 
ATOM     37  N   UNL     1      -0.545  -6.665   2.892  0.00  0.00    -0.226 NA
ATOM     38  C   UNL     1      -2.729  -1.654   3.142  0.00  0.00    +0.046 C 
ENDBRANCH  22  36
ENDBRANCH  21  22
ENDBRANCH   1  21
TORSDOF 4
