REMARK  Name = ZINC01288619
REMARK  8 active torsions:
REMARK  status: ('A' for Active; 'I' for Inactive)
REMARK    1  A    between atoms: C_1  and  O_2
REMARK    2  A    between atoms: O_2  and  C_3
REMARK    3  A    between atoms: C_6  and  N_9
REMARK    4  A    between atoms: C_10  and  C_12
REMARK    5  A    between atoms: C_12  and  S_13
REMARK    6  A    between atoms: S_13  and  C_14
REMARK    7  A    between atoms: N_20  and  C_21
REMARK    8  A    between atoms: C_21  and  C_22
REMARK                            x       y       z     vdW  Elec       q    Type
REMARK                         _______ _______ _______ _____ _____    ______ ____
ROOT
ATOM      1  C   UNL     1       3.648  -6.954   6.860  0.00  0.00    +0.173 A 
ATOM      2  N   UNL     1       4.156  -6.116   7.741  0.00  0.00    -0.223 NA
ATOM      3  C   UNL     1       4.725  -6.561   8.866  0.00  0.00    +0.083 A 
ATOM      4  C   UNL     1       4.752  -7.921   9.135  0.00  0.00    +0.050 A 
ATOM      5  C   UNL     1       4.215  -8.807   8.193  0.00  0.00    +0.259 A 
ATOM      6  O   UNL     1       4.232 -10.012   8.389  0.00  0.00    -0.267 OA
ATOM      7  N   UNL     1       3.673  -8.301   7.064  0.00  0.00    -0.280 N 
ATOM      8  C   UNL     1       5.324  -8.432  10.429  0.00  0.00    +0.007 C 
ATOM      9  C   UNL     1       5.771  -9.886  10.243  0.00  0.00    +0.012 C 
ATOM     10  C   UNL     1       6.350 -10.412  11.558  0.00  0.00    +0.001 C 
ATOM     11  C   UNL     1       5.278 -10.349  12.648  0.00  0.00    +0.000 C 
ATOM     12  C   UNL     1       4.824  -8.900  12.833  0.00  0.00    +0.001 C 
ATOM     13  C   UNL     1       4.249  -8.373  11.518  0.00  0.00    +0.012 C 
ATOM     14  C   UNL     1       6.523  -7.586  10.855  0.00  0.00    +0.047 C 
ATOM     15  C   UNL     1       6.179  -6.121  10.826  0.00  0.00    -0.037 A 
ATOM     16  C   UNL     1       5.317  -5.625   9.849  0.00  0.00    +0.004 A 
ATOM     17  C   UNL     1       5.019  -4.266   9.806  0.00  0.00    +0.010 A 
ATOM     18  C   UNL     1       5.570  -3.415  10.744  0.00  0.00    +0.001 A 
ATOM     19  C   UNL     1       6.413  -3.913  11.721  0.00  0.00    +0.000 A 
ATOM     20  C   UNL     1       6.717  -5.262  11.762  0.00  0.00    +0.004 A 
ENDROOT
BRANCH   1  21
ATOM     21  S   UNL     1       2.915  -6.319   5.389  0.00  0.00    -0.078 S 
BRANCH  21  22
ATOM     22  C   UNL     1       3.106  -4.522   5.545  0.00  0.00    +0.173 C 
BRANCH  22  24
ATOM     23  N   UNL     1       2.540  -2.503   4.231  0.00  0.00    -0.285 N 
ATOM     24  C   UNL     1       2.513  -3.847   4.335  0.00  0.00    +0.227 C 
ATOM     25  O   UNL     1       2.010  -4.513   3.455  0.00  0.00    -0.275 OA
ATOM     26  H   UNL     1       3.009  -1.975   4.896  0.00  0.00    +0.155 HD
BRANCH  23  30
ATOM     27  C   UNL     1       0.610  -0.617   1.052  0.00  0.00    +0.120 A 
ATOM     28  C   UNL     1       0.087  -1.786   1.587  0.00  0.00    +0.047 A 
ATOM     29  C   UNL     1       0.726  -2.411   2.639  0.00  0.00    +0.027 A 
ATOM     30  C   UNL     1       1.892  -1.870   3.163  0.00  0.00    +0.034 A 
ATOM     31  C   UNL     1       2.416  -0.700   2.628  0.00  0.00    +0.027 A 
ATOM     32  C   UNL     1       1.779  -0.079   1.572  0.00  0.00    +0.047 A 
BRANCH  27  34
ATOM     33  C   UNL     1      -1.218  -0.611  -0.469  0.00  0.00    +0.277 C 
ATOM     34  O   UNL     1      -0.019  -0.002   0.016  0.00  0.00    -0.495 OA
ENDBRANCH  27  34
ENDBRANCH  23  30
ENDBRANCH  22  24
ENDBRANCH  21  22
ENDBRANCH   1  21
BRANCH   7  35
ATOM     35  C   UNL     1       3.115  -9.203   6.054  0.00  0.00    +0.201 C 
BRANCH  35  36
ATOM     36  C   UNL     1       4.192  -9.585   5.072  0.00  0.00    +0.125 A 
ATOM     37  C   UNL     1       5.013 -10.646   5.178  0.00  0.00    +0.046 A 
ATOM     38  C   UNL     1       5.860 -10.623   4.047  0.00  0.00    +0.041 A 
ATOM     39  C   UNL     1       5.507  -9.550   3.317  0.00  0.00    +0.195 A 
ATOM     40  O   UNL     1       4.492  -8.928   3.940  0.00  0.00    -0.466 OA
ENDBRANCH  35  36
ENDBRANCH   7  35
TORSDOF 7
