REMARK  Name = ZINC63204579
REMARK  9 active torsions:
REMARK  status: ('A' for Active; 'I' for Inactive)
REMARK    1  A    between atoms: C_1  and  C_2
REMARK    2  A    between atoms: C_5  and  C_37
REMARK    3  A    between atoms: C_6  and  S_8
REMARK    4  A    between atoms: S_8  and  C_9
REMARK    5  A    between atoms: C_12  and  N_15
REMARK    6  A    between atoms: C_16  and  C_18
REMARK    7  A    between atoms: C_18  and  N_19
REMARK    8  A    between atoms: C_22  and  C_27
REMARK    9  A    between atoms: C_27  and  C_28
REMARK                            x       y       z     vdW  Elec       q    Type
REMARK                         _______ _______ _______ _____ _____    ______ ____
ROOT
ATOM      1  C   UNL     1      -0.026   1.529   9.545  0.00  0.00    +0.214 C 
ENDROOT
BRANCH   1   2
ATOM      2  N   UNL     1       0.165   0.835  10.820  0.00  0.00    -0.216 N 
ATOM      3  C   UNL     1      -0.842   0.384  11.595  0.00  0.00    +0.244 C 
ATOM      4  O   UNL     1      -2.031   0.474  11.375  0.00  0.00    -0.273 OA
ATOM      5  C   UNL     1      -0.179  -0.258  12.797  0.00  0.00    +0.165 C 
ATOM      6  N   UNL     1       1.260  -0.078  12.536  0.00  0.00    -0.287 N 
ATOM      7  C   UNL     1       1.359   0.565  11.358  0.00  0.00    +0.310 C 
ATOM      8  O   UNL     1       2.417   0.869  10.842  0.00  0.00    -0.252 OA
ATOM      9  H   UNL     1       1.992  -0.369  13.101  0.00  0.00    +0.151 HD
BRANCH   5  10
ATOM     10  C   UNL     1      -0.589   0.458  14.085  0.00  0.00    +0.065 C 
BRANCH  10  11
ATOM     11  C   UNL     1      -0.016  -0.274  15.271  0.00  0.00    -0.039 C 
ATOM     12  C   UNL     1       1.139   0.005  15.918  0.00  0.00    -0.001 A 
ATOM     13  C   UNL     1       2.168   1.032  15.717  0.00  0.00    +0.010 A 
ATOM     14  C   UNL     1       3.237   1.059  16.545  0.00  0.00    +0.001 A 
ATOM     15  C   UNL     1       3.388   0.133  17.586  0.00  0.00    +0.002 A 
ATOM     16  C   UNL     1       2.485  -0.840  17.833  0.00  0.00    +0.026 A 
ATOM     17  C   UNL     1       1.321  -0.961  17.025  0.00  0.00    +0.043 A 
ATOM     18  N   UNL     1       0.317  -1.804  17.061  0.00  0.00    -0.380 N 
ATOM     19  C   UNL     1      -0.619  -1.464  15.983  0.00  0.00    +0.144 C 
ATOM     20  H   UNL     1       0.210  -2.529  17.696  0.00  0.00    +0.160 HD
ENDBRANCH  10  11
ENDBRANCH   5  10
ENDBRANCH   1   2
BRANCH   1  22
ATOM     21  N   UNL     1      -0.233   0.933   7.153  0.00  0.00    -0.284 N 
ATOM     22  C   UNL     1      -0.065   0.521   8.425  0.00  0.00    +0.235 C 
ATOM     23  O   UNL     1       0.054  -0.661   8.669  0.00  0.00    -0.274 OA
ATOM     24  H   UNL     1      -0.395   1.871   6.964  0.00  0.00    +0.155 HD
BRANCH  21  28
ATOM     25  C   UNL     1      -0.055  -1.823   4.028  0.00  0.00    +0.013 A 
ATOM     26  C   UNL     1       0.431  -0.534   3.846  0.00  0.00    +0.017 A 
ATOM     27  C   UNL     1       0.372   0.378   4.881  0.00  0.00    +0.024 A 
ATOM     28  C   UNL     1      -0.173   0.007   6.103  0.00  0.00    +0.033 A 
ATOM     29  C   UNL     1      -0.659  -1.281   6.285  0.00  0.00    +0.024 A 
ATOM     30  C   UNL     1      -0.605  -2.192   5.249  0.00  0.00    +0.017 A 
BRANCH  25  31
ATOM     31  S   UNL     1       0.021  -2.988   2.708  0.00  0.00    -0.089 S 
BRANCH  31  37
ATOM     32  C   UNL     1       4.434  -3.784   5.404  0.00  0.00    +0.044 C 
ATOM     33  C   UNL     1       3.518  -4.200   4.282  0.00  0.00    -0.049 A 
ATOM     34  C   UNL     1       3.845  -5.285   3.489  0.00  0.00    +0.004 A 
ATOM     35  C   UNL     1       3.007  -5.670   2.458  0.00  0.00    +0.005 A 
ATOM     36  C   UNL     1       1.840  -4.972   2.217  0.00  0.00    -0.037 A 
ATOM     37  C   UNL     1       1.508  -3.882   3.012  0.00  0.00    +0.016 A 
ATOM     38  C   UNL     1       2.350  -3.501   4.051  0.00  0.00    +0.018 A 
ATOM     39  C   UNL     1       0.929  -5.392   1.093  0.00  0.00    +0.045 C 
ENDBRANCH  31  37
ENDBRANCH  25  31
ENDBRANCH  21  28
ENDBRANCH   1  22
TORSDOF 7
