REMARK  Name = ZINC06753266
REMARK  6 active torsions:
REMARK  status: ('A' for Active; 'I' for Inactive)
REMARK    1  A    between atoms: C_1  and  C_2
REMARK    2  A    between atoms: C_5  and  O_33
REMARK    3  A    between atoms: C_6  and  C_8
REMARK    4  A    between atoms: N_16  and  C_26
REMARK    5  A    between atoms: C_17  and  C_19
REMARK    6  A    between atoms: C_26  and  C_27
REMARK                            x       y       z     vdW  Elec       q    Type
REMARK                         _______ _______ _______ _____ _____    ______ ____
ROOT
ATOM      1  C   UNL     1      -0.203  -3.135   3.803  0.00  0.00    +0.102 A 
ATOM      2  C   UNL     1       0.048  -4.446   3.385  0.00  0.00    +0.035 A 
ATOM      3  C   UNL     1      -0.020  -5.224   4.525  0.00  0.00    +0.126 A 
ATOM      4  N   UNL     1      -0.302  -4.368   5.552  0.00  0.00    -0.272 N 
ATOM      5  H   UNL     1      -0.410  -4.629   6.480  0.00  0.00    +0.189 HD
ATOM      6  N   UNL     1      -0.397  -3.166   5.106  0.00  0.00    -0.173 NA
ATOM      7  C   UNL     1       0.236  -6.620   4.154  0.00  0.00    +0.266 C 
ATOM      8  O   UNL     1       0.246  -7.555   4.931  0.00  0.00    -0.268 OA
ATOM      9  N   UNL     1       0.457  -6.720   2.830  0.00  0.00    -0.281 N 
ATOM     10  C   UNL     1       0.359  -5.377   2.245  0.00  0.00    +0.144 C 
ENDROOT
BRANCH   1  16
ATOM     11  C   UNL     1      -1.863   1.486   2.898  0.00  0.00    +0.044 C 
ATOM     12  C   UNL     1      -1.033   0.293   2.499  0.00  0.00    -0.050 A 
ATOM     13  C   UNL     1      -0.303   0.323   1.324  0.00  0.00    +0.007 A 
ATOM     14  C   UNL     1       0.461  -0.766   0.949  0.00  0.00    +0.046 A 
ATOM     15  C   UNL     1       0.499  -1.896   1.751  0.00  0.00    +0.126 A 
ATOM     16  C   UNL     1      -0.237  -1.929   2.938  0.00  0.00    +0.044 A 
ATOM     17  C   UNL     1      -0.999  -0.824   3.309  0.00  0.00    +0.017 A 
BRANCH  15  18
ATOM     18  O   UNL     1       1.249  -2.967   1.383  0.00  0.00    -0.506 OA
ATOM     19  H   UNL     1       2.181  -2.898   1.631  0.00  0.00    +0.292 HD
ENDBRANCH  15  18
ENDBRANCH   1  16
BRANCH  10  20
ATOM     20  C   UNL     1      -0.750  -5.335   1.225  0.00  0.00    +0.013 A 
ATOM     21  C   UNL     1      -2.062  -5.197   1.636  0.00  0.00    +0.008 A 
ATOM     22  C   UNL     1      -3.080  -5.160   0.701  0.00  0.00    +0.001 A 
ATOM     23  C   UNL     1      -2.786  -5.260  -0.646  0.00  0.00    +0.003 A 
ATOM     24  C   UNL     1      -1.475  -5.398  -1.060  0.00  0.00    +0.039 A 
ATOM     25  C   UNL     1      -0.454  -5.430  -0.124  0.00  0.00    +0.129 A 
ATOM     26  F   UNL     1       0.829  -5.560  -0.527  0.00  0.00    -0.205 F 
ENDBRANCH  10  20
BRANCH   9  27
ATOM     27  C   UNL     1       0.746  -7.956   2.099  0.00  0.00    +0.145 C 
BRANCH  27  28
ATOM     28  C   UNL     1      -0.547  -8.630   1.722  0.00  0.00    -0.012 A 
ATOM     29  C   UNL     1      -1.195  -9.461   2.623  0.00  0.00    +0.008 A 
ATOM     30  C   UNL     1      -2.383 -10.061   2.232  0.00  0.00    +0.020 A 
ATOM     31  C   UNL     1      -2.878  -9.812   0.966  0.00  0.00    +0.111 A 
ATOM     32  N   UNL     1      -2.235  -9.016   0.135  0.00  0.00    -0.263 NA
ATOM     33  C   UNL     1      -1.106  -8.424   0.475  0.00  0.00    +0.115 A 
ENDBRANCH  27  28
ENDBRANCH   9  27
TORSDOF 5
