REMARK  Name = ZINC24100158
REMARK  12 active torsions:
REMARK  status: ('A' for Active; 'I' for Inactive)
REMARK    1  A    between atoms: C_1  and  C_2
REMARK    2  A    between atoms: C_5  and  C_33
REMARK    3  A    between atoms: C_6  and  O_9
REMARK    4  A    between atoms: C_7  and  C_8
REMARK    5  A    between atoms: O_9  and  C_10
REMARK    6  A    between atoms: C_10  and  C_11
REMARK    7  A    between atoms: C_11  and  C_13
REMARK    8  A    between atoms: C_11  and  O_32
REMARK    9  A    between atoms: C_13  and  N_14
REMARK   10  A    between atoms: C_17  and  C_21
REMARK   11  A    between atoms: C_17  and  C_22
REMARK   12  A    between atoms: C_22  and  C_23
REMARK                            x       y       z     vdW  Elec       q    Type
REMARK                         _______ _______ _______ _____ _____    ______ ____
ROOT
ATOM      1  N   UNL     1       2.333  -4.819   6.131  0.00  0.00    -0.222 N 
ATOM      2  C   UNL     1       2.130  -4.237   7.329  0.00  0.00    +0.247 C 
ATOM      3  O   UNL     1       2.062  -3.050   7.565  0.00  0.00    -0.273 OA
ATOM      4  C   UNL     1       2.004  -5.376   8.322  0.00  0.00    +0.114 C 
ATOM      5  N   UNL     1       2.166  -6.580   7.489  0.00  0.00    -0.285 N 
ATOM      6  C   UNL     1       2.348  -6.153   6.226  0.00  0.00    +0.309 C 
ATOM      7  O   UNL     1       2.511  -6.897   5.279  0.00  0.00    -0.252 OA
ATOM      8  C   UNL     1       0.626  -5.362   8.986  0.00  0.00    +0.042 C 
ATOM      9  H   UNL     1       2.143  -7.501   7.792  0.00  0.00    +0.151 HD
ENDROOT
BRANCH   1  10
ATOM     10  C   UNL     1       2.510  -4.081   4.877  0.00  0.00    +0.152 C 
BRANCH  10  11
ATOM     11  C   UNL     1       1.146  -3.857   4.221  0.00  0.00    +0.170 C 
BRANCH  11  12
ATOM     12  O   UNL     1       0.534  -5.119   3.949  0.00  0.00    -0.387 OA
ATOM     13  H   UNL     1       1.047  -5.685   3.356  0.00  0.00    +0.210 HD
ENDBRANCH  11  12
BRANCH  11  14
ATOM     14  C   UNL     1       1.330  -3.087   2.912  0.00  0.00    +0.262 C 
BRANCH  14  15
ATOM     15  O   UNL     1       0.050  -2.776   2.358  0.00  0.00    -0.489 OA
BRANCH  15  21
ATOM     16  C   UNL     1      -0.018   1.503   0.010  0.00  0.00    +0.044 C 
ATOM     17  C   UNL     1       0.002  -0.004   0.002  0.00  0.00    -0.044 A 
ATOM     18  C   UNL     1       0.006  -0.688  -1.200  0.00  0.00    +0.004 A 
ATOM     19  C   UNL     1       0.024  -2.071  -1.211  0.00  0.00    +0.007 A 
ATOM     20  C   UNL     1       0.039  -2.772  -0.020  0.00  0.00    -0.009 A 
ATOM     21  C   UNL     1       0.035  -2.088   1.186  0.00  0.00    +0.127 A 
ATOM     22  C   UNL     1       0.023  -0.700   1.195  0.00  0.00    -0.006 A 
ATOM     23  C   UNL     1       0.026   0.046   2.504  0.00  0.00    +0.048 C 
ATOM     24  C   UNL     1       0.059  -4.279  -0.033  0.00  0.00    +0.047 C 
ENDBRANCH  15  21
ENDBRANCH  14  15
ENDBRANCH  11  14
ENDBRANCH  10  11
ENDBRANCH   1  10
BRANCH   4  25
ATOM     25  C   UNL     1       3.111  -5.296   9.375  0.00  0.00    +0.070 C 
BRANCH  25  26
ATOM     26  C   UNL     1       3.037  -6.504  10.274  0.00  0.00    -0.041 A 
ATOM     27  C   UNL     1       2.258  -6.468  11.415  0.00  0.00    +0.007 A 
ATOM     28  C   UNL     1       2.187  -7.573  12.242  0.00  0.00    +0.050 A 
ATOM     29  C   UNL     1       2.896  -8.721  11.928  0.00  0.00    +0.166 A 
ATOM     30  C   UNL     1       3.681  -8.758  10.778  0.00  0.00    +0.166 A 
ATOM     31  C   UNL     1       3.743  -7.648   9.951  0.00  0.00    +0.053 A 
ATOM     32  O   UNL     1       4.273  -9.985  10.693  0.00  0.00    -0.453 OA
ATOM     33  C   UNL     1       4.168 -10.555  12.011  0.00  0.00    +0.466 C 
ATOM     34  O   UNL     1       2.997  -9.925  12.563  0.00  0.00    -0.453 OA
ENDBRANCH  25  26
ENDBRANCH   4  25
TORSDOF 8
