REMARK  Name = ZINC11699055
REMARK  11 active torsions:
REMARK  status: ('A' for Active; 'I' for Inactive)
REMARK    1  A    between atoms: C_1  and  C_2
REMARK    2  A    between atoms: C_7  and  N_12
REMARK    3  A    between atoms: C_9  and  C_11
REMARK    4  A    between atoms: C_13  and  C_15
REMARK    5  A    between atoms: C_15  and  O_16
REMARK    6  A    between atoms: O_16  and  C_17
REMARK    7  A    between atoms: C_17  and  C_19
REMARK    8  A    between atoms: C_24  and  S_25
REMARK    9  A    between atoms: S_25  and  C_26
REMARK   10  A    between atoms: C_26  and  C_27
REMARK   11  A    between atoms: N_29  and  C_30
REMARK                            x       y       z     vdW  Elec       q    Type
REMARK                         _______ _______ _______ _____ _____    ______ ____
ROOT
ATOM      1  C   UNL     1      -5.215  -4.854  -0.574  0.00  0.00    +0.072 A 
ATOM      2  C   UNL     1      -6.522  -5.340  -0.658  0.00  0.00    +0.016 A 
ATOM      3  C   UNL     1      -7.585  -4.465  -0.627  0.00  0.00    +0.001 A 
ATOM      4  C   UNL     1      -7.365  -3.100  -0.506  0.00  0.00    +0.001 A 
ATOM      5  C   UNL     1      -6.082  -2.604  -0.417  0.00  0.00    +0.015 A 
ATOM      6  C   UNL     1      -4.996  -3.472  -0.447  0.00  0.00    +0.022 A 
ENDROOT
BRANCH   1   7
ATOM      7  C   UNL     1      -4.074  -5.784  -0.613  0.00  0.00    +0.341 C 
ATOM      8  O   UNL     1      -2.939  -5.357  -0.535  0.00  0.00    -0.245 OA
BRANCH   7   9
ATOM      9  O   UNL     1      -4.289  -7.109  -0.735  0.00  0.00    -0.452 OA
BRANCH   9  10
ATOM     10  C   UNL     1      -3.117  -7.966  -0.767  0.00  0.00    +0.328 C 
BRANCH  10  12
ATOM     11  N   UNL     1      -2.627 -10.383  -0.958  0.00  0.00    -0.309 N 
ATOM     12  C   UNL     1      -3.550  -9.403  -0.906  0.00  0.00    +0.251 C 
ATOM     13  O   UNL     1      -4.730  -9.678  -0.973  0.00  0.00    -0.272 OA
ATOM     14  H   UNL     1      -1.683 -10.164  -0.905  0.00  0.00    +0.149 HD
BRANCH  11  20
ATOM     15  C   UNL     1       0.426 -13.398  -0.715  0.00  0.00    +0.008 C 
ATOM     16  C   UNL     1      -0.657 -12.482  -1.287  0.00  0.00    -0.009 C 
ATOM     17  C   UNL     1      -0.873 -12.808  -2.766  0.00  0.00    +0.003 C 
ATOM     18  C   UNL     1      -1.956 -11.891  -3.338  0.00  0.00    +0.002 C 
ATOM     19  C   UNL     1      -3.263 -12.107  -2.573  0.00  0.00    +0.022 C 
ATOM     20  C   UNL     1      -3.047 -11.780  -1.093  0.00  0.00    +0.076 C 
ATOM     21  C   UNL     1      -1.964 -12.697  -0.521  0.00  0.00    +0.009 C 
ATOM     22  C   UNL     1      -1.749 -12.370   0.958  0.00  0.00    +0.009 C 
ENDBRANCH  11  20
ENDBRANCH  10  12
ENDBRANCH   9  10
ENDBRANCH   7   9
ENDBRANCH   1   7
BRANCH   6  23
ATOM     23  S   UNL     1      -3.355  -2.841  -0.333  0.00  0.00    -0.115 S 
BRANCH  23  24
ATOM     24  C   UNL     1      -3.707  -1.071  -0.202  0.00  0.00    +0.170 C 
BRANCH  24  25
ATOM     25  C   UNL     1      -2.412  -0.308  -0.090  0.00  0.00    +0.227 C 
ATOM     26  O   UNL     1      -1.355  -0.903  -0.098  0.00  0.00    -0.275 OA
ATOM     27  N   UNL     1      -2.428   1.035   0.019  0.00  0.00    -0.285 N 
ATOM     28  H   UNL     1      -3.273   1.505   0.103  0.00  0.00    +0.155 HD
BRANCH  27  29
ATOM     29  C   UNL     1      -1.225   1.753   0.012  0.00  0.00    +0.037 A 
ATOM     30  C   UNL     1      -0.152   1.303  -0.747  0.00  0.00    +0.027 A 
ATOM     31  C   UNL     1       1.033   2.013  -0.760  0.00  0.00    +0.051 A 
ATOM     32  C   UNL     1       1.156   3.173  -0.012  0.00  0.00    +0.166 A 
ATOM     33  C   UNL     1       0.084   3.624   0.754  0.00  0.00    +0.168 A 
ATOM     34  C   UNL     1      -1.103   2.912   0.767  0.00  0.00    +0.072 A 
ATOM     35  O   UNL     1       0.455   4.774   1.389  0.00  0.00    -0.453 OA
ATOM     36  C   UNL     1       1.621   5.243   0.687  0.00  0.00    +0.466 C 
ATOM     37  O   UNL     1       2.199   4.042   0.144  0.00  0.00    -0.453 OA
ENDBRANCH  27  29
ENDBRANCH  24  25
ENDBRANCH  23  24
ENDBRANCH   6  23
TORSDOF 9
