REMARK  Name = ZINC00495378
REMARK  2 active torsions:
REMARK  status: ('A' for Active; 'I' for Inactive)
REMARK    1  A    between atoms: C_6  and  S_11
REMARK    2  A    between atoms: S_11  and  N_14
REMARK                            x       y       z     vdW  Elec       q    Type
REMARK                         _______ _______ _______ _____ _____    ______ ____
ROOT
ATOM      1  S   UNL     1       5.231  -2.823  -0.063  0.00  0.00    +0.101 S 
ATOM      2  O   UNL     1       4.984  -4.107  -0.618  0.00  0.00    -0.146 OA
ATOM      3  O   UNL     1       6.181  -1.923  -0.619  0.00  0.00    -0.146 OA
ENDROOT
BRANCH   1   4
ATOM      4  N   UNL     1       5.677  -3.066   1.513  0.00  0.00    -0.103 NA
ATOM      5  C   UNL     1       6.800  -3.682   1.789  0.00  0.00    +0.192 A 
ATOM      6  N   UNL     1       7.746  -4.194   0.935  0.00  0.00    -0.336 N 
ATOM      7  C   UNL     1       8.868  -4.810   1.447  0.00  0.00    +0.028 A 
ATOM      8  C   UNL     1       8.980  -4.879   2.779  0.00  0.00    +0.012 A 
ATOM      9  S   UNL     1       7.517  -4.074   3.379  0.00  0.00    -0.053 S 
ATOM     10  C   UNL     1      10.088  -5.489   3.578  0.00  0.00    +0.044 C 
ATOM     11  C   UNL     1      10.935  -6.366   2.644  0.00  0.00    +0.006 C 
ATOM     12  C   UNL     1      11.235  -5.572   1.369  0.00  0.00    +0.006 C 
ATOM     13  C   UNL     1       9.955  -5.400   0.551  0.00  0.00    +0.054 C 
ATOM     14  H   UNL     1       7.625  -4.123  -0.025  0.00  0.00    +0.168 HD
ENDBRANCH   1   4
BRANCH   1  20
ATOM     15  C   UNL     1      -0.016   1.357   0.009  0.00  0.00    +0.001 A 
ATOM     16  C   UNL     1       1.169   2.091   0.002  0.00  0.00    +0.001 A 
ATOM     17  C   UNL     1       2.378   1.468  -0.013  0.00  0.00    +0.008 A 
ATOM     18  C   UNL     1       2.438   0.063  -0.021  0.00  0.00    -0.016 A 
ATOM     19  C   UNL     1       3.668  -0.615  -0.036  0.00  0.00    +0.037 A 
ATOM     20  C   UNL     1       3.687  -1.976  -0.043  0.00  0.00    +0.113 A 
ATOM     21  C   UNL     1       2.502  -2.710  -0.036  0.00  0.00    +0.029 A 
ATOM     22  C   UNL     1       1.292  -2.087  -0.021  0.00  0.00    +0.010 A 
ATOM     23  C   UNL     1       1.233  -0.683  -0.013  0.00  0.00    -0.018 A 
ATOM     24  C   UNL     1       0.002  -0.004   0.002  0.00  0.00    +0.008 A 
ENDBRANCH   1  20
TORSDOF 2
