REMARK  Name = ZINC06077806
REMARK  12 active torsions:
REMARK  status: ('A' for Active; 'I' for Inactive)
REMARK    1  A    between atoms: C_1  and  C_2
REMARK    2  A    between atoms: C_2  and  C_3
REMARK    3  A    between atoms: C_3  and  C_4
REMARK    4  A    between atoms: C_3  and  C_5
REMARK    5  A    between atoms: C_3  and  N_6
REMARK    6  A    between atoms: C_7  and  C_11
REMARK    7  A    between atoms: C_11  and  C_13
REMARK    8  A    between atoms: C_11  and  N_70
REMARK    9  A    between atoms: C_18  and  O_25
REMARK   10  A    between atoms: O_25  and  C_26
REMARK   11  A    between atoms: N_29  and  C_32
REMARK   12  A    between atoms: C_35  and  O_38
REMARK                            x       y       z     vdW  Elec       q    Type
REMARK                         _______ _______ _______ _____ _____    ______ ____
ROOT
ATOM      1  C   UNL     1      -1.919   8.702   2.918  0.00  0.00    +0.039 C 
ENDROOT
BRANCH   1   2
ATOM      2  C   UNL     1      -1.954   7.233   2.580  0.00  0.00    +0.011 A 
ATOM      3  C   UNL     1      -1.454   6.800   1.395  0.00  0.00    +0.017 A 
ATOM      4  C   UNL     1      -1.503   5.369   1.097  0.00  0.00    -0.001 A 
ATOM      5  C   UNL     1      -1.004   4.865  -0.110  0.00  0.00    +0.013 A 
ATOM      6  C   UNL     1      -1.058   3.525  -0.358  0.00  0.00    +0.046 A 
ATOM      7  C   UNL     1      -1.617   2.653   0.576  0.00  0.00    +0.122 A 
ATOM      8  C   UNL     1      -2.115   3.132   1.775  0.00  0.00    +0.072 A 
ATOM      9  C   UNL     1      -2.064   4.493   2.047  0.00  0.00    +0.053 A 
ATOM     10  N   UNL     1      -2.554   4.998   3.233  0.00  0.00    -0.322 N 
ATOM     11  H   UNL     1      -2.951   4.375   3.907  0.00  0.00    +0.169 HD
ATOM     12  C   UNL     1      -2.505   6.315   3.497  0.00  0.00    +0.251 A 
ATOM     13  O   UNL     1      -2.948   6.726   4.556  0.00  0.00    -0.268 OA
BRANCH   7  14
ATOM     14  O   UNL     1      -1.667   1.323   0.310  0.00  0.00    -0.495 OA
ATOM     15  C   UNL     1      -1.135   0.892  -0.945  0.00  0.00    +0.277 C 
ENDBRANCH   7  14
ENDBRANCH   1   2
BRANCH   1  21
ATOM     16  C   UNL     1      -1.263  10.305   4.610  0.00  0.00    -0.058 C 
ATOM     17  C   UNL     1      -0.614  10.449   5.988  0.00  0.00    +0.086 C 
ATOM     18  N   UNL     1       0.766   9.947   5.932  0.00  0.00    -0.333 N 
ATOM     19  C   UNL     1       0.793   8.534   5.526  0.00  0.00    +0.086 C 
ATOM     20  C   UNL     1       0.143   8.390   4.148  0.00  0.00    -0.058 C 
ATOM     21  N   UNL     1      -1.250   8.878   4.224  0.00  0.00    +0.391 N 
ATOM     22  H   UNL     1      -1.755   8.335   4.934  0.00  0.00    -0.080 HD
BRANCH  18  23
ATOM     23  C   UNL     1       1.417  10.129   7.157  0.00  0.00    +0.030 A 
ATOM     24  C   UNL     1       1.973   9.041   7.817  0.00  0.00    +0.026 A 
ATOM     25  C   UNL     1       2.620   9.222   9.024  0.00  0.00    +0.047 A 
ATOM     26  C   UNL     1       2.704  10.489   9.582  0.00  0.00    +0.117 A 
ATOM     27  C   UNL     1       2.144  11.575   8.927  0.00  0.00    +0.047 A 
ATOM     28  C   UNL     1       1.502  11.396   7.717  0.00  0.00    +0.026 A 
BRANCH  26  29
ATOM     29  O   UNL     1       3.336  10.666  10.774  0.00  0.00    -0.507 OA
ATOM     30  H   UNL     1       2.756  10.581  11.543  0.00  0.00    +0.292 HD
ENDBRANCH  26  29
ENDBRANCH  18  23
ENDBRANCH   1  21
BRANCH   1  32
ATOM     31  N   UNL     1      -3.929  10.077   2.160  0.00  0.00    -0.225 N 
ATOM     32  C   UNL     1      -3.328   9.228   3.014  0.00  0.00    +0.143 A 
ATOM     33  N   UNL     1      -4.208   8.943   3.942  0.00  0.00    -0.115 NA
ATOM     34  N   UNL     1      -5.291   9.590   3.677  0.00  0.00    -0.023 NA
ATOM     35  N   UNL     1      -5.126  10.274   2.599  0.00  0.00    -0.043 NA
BRANCH  31  36
ATOM     36  C   UNL     1      -3.335  10.667   0.957  0.00  0.00    +0.061 C 
ATOM     37  C   UNL     1      -2.148  11.547   1.354  0.00  0.00    +0.036 C 
ATOM     38  C   UNL     1      -2.855   9.552   0.026  0.00  0.00    +0.036 C 
BRANCH  36  40
ATOM     39  C   UNL     1      -3.762  12.134  -1.020  0.00  0.00    +0.006 C 
ATOM     40  C   UNL     1      -4.382  11.518   0.236  0.00  0.00    +0.026 C 
ENDBRANCH  36  40
ENDBRANCH  31  36
ENDBRANCH   1  32
TORSDOF 8
