REMARK  Name = ZINC16047102
REMARK  7 active torsions:
REMARK  status: ('A' for Active; 'I' for Inactive)
REMARK    1  A    between atoms: C_1  and  C_2
REMARK    2  A    between atoms: C_2  and  C_3
REMARK    3  A    between atoms: C_2  and  C_4
REMARK    4  A    between atoms: C_10  and  C_12
REMARK    5  A    between atoms: C_12  and  N_13
REMARK    6  A    between atoms: C_16  and  C_20
REMARK    7  A    between atoms: C_16  and  C_21
REMARK                            x       y       z     vdW  Elec       q    Type
REMARK                         _______ _______ _______ _____ _____    ______ ____
ROOT
ATOM      1  N   UNL     1      -0.943   6.309   0.043  0.00  0.00    -0.215 N 
ATOM      2  C   UNL     1      -1.610   6.640   1.166  0.00  0.00    +0.251 C 
ATOM      3  O   UNL     1      -1.252   6.462   2.311  0.00  0.00    -0.272 OA
ATOM      4  C   UNL     1      -2.902   7.282   0.701  0.00  0.00    +0.135 C 
ATOM      5  N   UNL     1      -2.803   7.234  -0.768  0.00  0.00    -0.281 N 
ATOM      6  C   UNL     1      -1.624   6.654  -1.056  0.00  0.00    +0.310 C 
ATOM      7  O   UNL     1      -1.224   6.461  -2.187  0.00  0.00    -0.252 OA
ATOM      8  C   UNL     1      -4.109   6.476   1.186  0.00  0.00    +0.047 C 
ATOM      9  H   UNL     1      -3.459   7.560  -1.404  0.00  0.00    +0.152 HD
ENDROOT
BRANCH   4  10
ATOM     10  C   UNL     1      -2.990   8.707   1.183  0.00  0.00    -0.015 A 
ATOM     11  C   UNL     1      -2.372   9.066   2.380  0.00  0.00    +0.007 A 
ATOM     12  C   UNL     1      -2.431  10.344   2.843  0.00  0.00    +0.009 A 
ATOM     13  C   UNL     1      -3.125  11.319   2.107  0.00  0.00    -0.018 A 
ATOM     14  C   UNL     1      -3.208  12.650   2.553  0.00  0.00    +0.008 A 
ATOM     15  C   UNL     1      -3.889  13.567   1.813  0.00  0.00    +0.001 A 
ATOM     16  C   UNL     1      -4.507  13.208   0.617  0.00  0.00    +0.001 A 
ATOM     17  C   UNL     1      -4.448  11.930   0.153  0.00  0.00    +0.008 A 
ATOM     18  C   UNL     1      -3.754  10.954   0.890  0.00  0.00    -0.018 A 
ATOM     19  C   UNL     1      -3.666   9.626   0.441  0.00  0.00    +0.014 A 
ENDBRANCH   4  10
BRANCH   1  20
ATOM     20  C   UNL     1       0.369   5.658   0.027  0.00  0.00    +0.214 C 
BRANCH  20  27
ATOM     21  C   UNL     1       1.145  -0.660  -0.012  0.00  0.00    +0.106 A 
ATOM     22  N   UNL     1       0.002  -0.004   0.002  0.00  0.00    -0.144 NA
ATOM     23  N   UNL     1      -0.015   1.258   0.009  0.00  0.00    -0.126 NA
ATOM     24  C   UNL     1       1.098   1.972   0.002  0.00  0.00    +0.188 A 
ATOM     25  S   UNL     1       2.295   0.710  -0.016  0.00  0.00    -0.035 S 
ATOM     26  N   UNL     1       1.265   3.352   0.007  0.00  0.00    -0.262 N 
ATOM     27  C   UNL     1       0.188   4.162   0.022  0.00  0.00    +0.237 C 
ATOM     28  O   UNL     1      -0.928   3.686   0.030  0.00  0.00    -0.274 OA
ATOM     29  H   UNL     1       2.158   3.733   0.001  0.00  0.00    +0.157 HD
BRANCH  21  31
ATOM     30  C   UNL     1       0.800  -2.780   1.228  0.00  0.00    +0.014 C 
ATOM     31  C   UNL     1       1.408  -2.144  -0.023  0.00  0.00    +0.040 C 
ATOM     32  C   UNL     1       0.775  -2.765  -1.270  0.00  0.00    +0.014 C 
ENDBRANCH  21  31
ENDBRANCH  20  27
ENDBRANCH   1  20
TORSDOF 4
