REMARK  Name = ZINC02082123
REMARK  12 active torsions:
REMARK  status: ('A' for Active; 'I' for Inactive)
REMARK    1  A    between atoms: C_1  and  C_2
REMARK    2  A    between atoms: C_2  and  O_3
REMARK    3  A    between atoms: O_3  and  C_4
REMARK    4  A    between atoms: C_4  and  C_5
REMARK    5  A    between atoms: C_5  and  O_6
REMARK    6  A    between atoms: O_6  and  C_7
REMARK    7  A    between atoms: C_9  and  C_21
REMARK    8  A    between atoms: C_19  and  C_20
REMARK    9  A    between atoms: C_23  and  O_29
REMARK   10  A    between atoms: C_24  and  O_28
REMARK   11  A    between atoms: O_29  and  C_30
REMARK   12  A    between atoms: C_30  and  C_31
REMARK                            x       y       z     vdW  Elec       q    Type
REMARK                         _______ _______ _______ _____ _____    ______ ____
ROOT
ATOM      1  C   UNL     1       1.264  -2.222   4.871  0.00  0.00    +0.338 C 
ATOM      2  C   UNL     1       0.616  -1.819   6.019  0.00  0.00    +0.069 C 
ATOM      3  C   UNL     1       1.166  -2.224   7.355  0.00  0.00    +0.093 C 
ATOM      4  C   UNL     1       0.315  -1.689   8.478  0.00  0.00    +0.028 C 
ATOM      5  C   UNL     1      -0.802  -0.928   8.224  0.00  0.00    +0.049 C 
ATOM      6  C   UNL     1      -1.639  -0.392   9.363  0.00  0.00    +0.056 C 
ATOM      7  C   UNL     1      -1.567  -1.354  10.550  0.00  0.00    +0.014 C 
ATOM      8  C   UNL     1      -0.101  -1.505  10.966  0.00  0.00    +0.080 C 
ATOM      9  C   UNL     1       0.696  -1.992   9.788  0.00  0.00    +0.162 C 
ATOM     10  O   UNL     1       1.692  -2.663   9.978  0.00  0.00    -0.292 OA
ATOM     11  N   UNL     1      -1.183  -0.639   6.982  0.00  0.00    -0.256 NA
ATOM     12  C   UNL     1      -0.527  -1.044   5.917  0.00  0.00    +0.049 C 
ATOM     13  C   UNL     1      -1.035  -0.661   4.551  0.00  0.00    +0.066 C 
ATOM     14  O   UNL     1       2.443  -2.870   4.954  0.00  0.00    -0.245 OA
ENDROOT
BRANCH   3  15
ATOM     15  C   UNL     1       1.204  -3.728   7.438  0.00  0.00    -0.030 A 
ATOM     16  C   UNL     1       2.408  -4.378   7.641  0.00  0.00    +0.054 A 
ATOM     17  C   UNL     1       2.445  -5.761   7.718  0.00  0.00    +0.163 A 
ATOM     18  C   UNL     1       1.269  -6.493   7.592  0.00  0.00    +0.173 A 
ATOM     19  C   UNL     1       0.065  -5.837   7.390  0.00  0.00    +0.063 A 
ATOM     20  C   UNL     1       0.035  -4.455   7.318  0.00  0.00    +0.023 A 
ATOM     21 BR   UNL     1      -1.536  -6.828   7.218  0.00  0.00    -0.046 Br
BRANCH  18  22
ATOM     22  O   UNL     1       1.300  -7.851   7.667  0.00  0.00    -0.503 OA
ATOM     23  H   UNL     1       1.188  -8.198   8.562  0.00  0.00    +0.292 HD
ENDBRANCH  18  22
BRANCH  17  24
ATOM     24  O   UNL     1       3.629  -6.400   7.916  0.00  0.00    -0.489 OA
BRANCH  24  25
ATOM     25  C   UNL     1       4.795  -5.584   8.036  0.00  0.00    +0.226 C 
ATOM     26  C   UNL     1       6.021  -6.474   8.253  0.00  0.00    +0.048 C 
ENDBRANCH  24  25
ENDBRANCH  17  24
ENDBRANCH   3  15
BRANCH   1  27
ATOM     27  O   UNL     1       0.719  -1.969   3.665  0.00  0.00    -0.459 OA
BRANCH  27  28
ATOM     28  C   UNL     1       1.445  -2.414   2.518  0.00  0.00    +0.260 C 
BRANCH  28  29
ATOM     29  C   UNL     1       0.676  -2.039   1.250  0.00  0.00    +0.201 C 
BRANCH  29  30
ATOM     30  O   UNL     1       0.618  -0.616   1.131  0.00  0.00    -0.377 OA
BRANCH  30  32
ATOM     31  C   UNL     1      -0.082   1.372  -0.050  0.00  0.00    +0.034 C 
ATOM     32  C   UNL     1      -0.083  -0.158  -0.026  0.00  0.00    +0.156 C 
ENDBRANCH  30  32
ENDBRANCH  29  30
ENDBRANCH  28  29
ENDBRANCH  27  28
ENDBRANCH   1  27
TORSDOF 9
