REMARK  Name = ZINC33612977
REMARK  9 active torsions:
REMARK  status: ('A' for Active; 'I' for Inactive)
REMARK    1  A    between atoms: C_1  and  C_2
REMARK    2  A    between atoms: C_2  and  C_3
REMARK    3  A    between atoms: C_7  and  C_41
REMARK    4  A    between atoms: C_8  and  N_9
REMARK    5  A    between atoms: C_14  and  C_32
REMARK    6  A    between atoms: C_17  and  C_22
REMARK    7  A    between atoms: C_17  and  C_29
REMARK    8  A    between atoms: C_22  and  C_23
REMARK    9  A    between atoms: C_41  and  C_42
REMARK                            x       y       z     vdW  Elec       q    Type
REMARK                         _______ _______ _______ _____ _____    ______ ____
ROOT
ATOM      1  N   UNL     1      -1.685   1.218  -0.593  0.00  0.00    -0.209 N 
ATOM      2  C   UNL     1      -0.858   1.400  -1.657  0.00  0.00    +0.229 C 
ATOM      3  O   UNL     1      -1.170   1.788  -2.762  0.00  0.00    -0.275 OA
ATOM      4  C   UNL     1       0.456   1.030  -1.193  0.00  0.00    +0.080 C 
ATOM      5  C   UNL     1       1.878   1.219  -1.523  0.00  0.00    +0.010 C 
ATOM      6  N   UNL     1       2.563   0.667  -0.304  0.00  0.00    +0.398 N 
ATOM      7  C   UNL     1       1.593   0.725   0.831  0.00  0.00    +0.048 C 
ATOM      8  C   UNL     1       0.400   1.520   0.307  0.00  0.00    +0.086 C 
ATOM      9  C   UNL     1      -1.002   1.048   0.578  0.00  0.00    +0.229 C 
ATOM     10  O   UNL     1      -1.437   0.609   1.621  0.00  0.00    -0.275 OA
ATOM     11  H   UNL     1       2.866  -0.373  -0.493  0.00  0.00    -0.083 HD
ATOM     12  H   UNL     1       3.452   1.272  -0.077  0.00  0.00    -0.083 HD
ENDROOT
BRANCH   5  13
ATOM     13  C   UNL     1       2.196   2.681  -1.707  0.00  0.00    +0.093 A 
ATOM     14  C   UNL     1       2.307   3.299  -2.890  0.00  0.00    +0.051 A 
ATOM     15  C   UNL     1       2.622   4.701  -2.592  0.00  0.00    +0.020 A 
ATOM     16  C   UNL     1       2.855   5.835  -3.369  0.00  0.00    +0.011 A 
ATOM     17  C   UNL     1       3.133   7.028  -2.761  0.00  0.00    +0.001 A 
ATOM     18  C   UNL     1       3.183   7.117  -1.378  0.00  0.00    +0.004 A 
ATOM     19  C   UNL     1       2.954   6.006  -0.593  0.00  0.00    +0.047 A 
ATOM     20  C   UNL     1       2.671   4.784  -1.190  0.00  0.00    +0.135 A 
ATOM     21  O   UNL     1       2.405   3.555  -0.706  0.00  0.00    -0.461 OA
ENDBRANCH   5  13
BRANCH   1  27
ATOM     22  C   UNL     1      -3.765   0.003  -0.787  0.00  0.00    -0.026 A 
ATOM     23  C   UNL     1      -5.144  -0.004  -0.871  0.00  0.00    +0.005 A 
ATOM     24  C   UNL     1      -5.844   1.188  -0.866  0.00  0.00    +0.001 A 
ATOM     25  C   UNL     1      -5.168   2.390  -0.771  0.00  0.00    +0.005 A 
ATOM     26  C   UNL     1      -3.790   2.403  -0.680  0.00  0.00    -0.026 A 
ATOM     27  C   UNL     1      -3.084   1.208  -0.685  0.00  0.00    +0.050 A 
BRANCH  22  29
ATOM     28  C   UNL     1      -2.953  -1.873   0.618  0.00  0.00    +0.009 C 
ATOM     29  C   UNL     1      -3.002  -1.297  -0.799  0.00  0.00    +0.033 C 
ENDBRANCH  22  29
BRANCH  26  30
ATOM     30  C   UNL     1      -3.053   3.714  -0.576  0.00  0.00    +0.033 C 
ATOM     31  C   UNL     1      -2.600   4.157  -1.968  0.00  0.00    +0.009 C 
ENDBRANCH  26  30
ENDBRANCH   1  27
BRANCH   7  32
ATOM     32  C   UNL     1       2.212   1.430   2.010  0.00  0.00    +0.346 C 
ATOM     33  O   UNL     1       1.536   2.146   2.709  0.00  0.00    -0.248 OA
ATOM     34  O   UNL     1       3.516   1.263   2.283  0.00  0.00    -0.248 OA
ENDBRANCH   7  32
BRANCH   7  35
ATOM     35  C   UNL     1       1.158  -0.687   1.228  0.00  0.00    +0.003 C 
BRANCH  35  36
ATOM     36  C   UNL     1       0.456  -1.356   0.045  0.00  0.00    -0.012 C 
ATOM     37  C   UNL     1      -0.112  -2.707   0.486  0.00  0.00    +0.003 C 
ATOM     38  C   UNL     1      -0.814  -3.376  -0.697  0.00  0.00    +0.000 C 
ATOM     39  C   UNL     1       0.190  -3.591  -1.831  0.00  0.00    +0.000 C 
ATOM     40  C   UNL     1       0.758  -2.240  -2.272  0.00  0.00    +0.000 C 
ATOM     41  C   UNL     1       1.460  -1.571  -1.089  0.00  0.00    +0.003 C 
ENDBRANCH  35  36
ENDBRANCH   7  35
TORSDOF 7
