REMARK  Name = ZINC36812258
REMARK  6 active torsions:
REMARK  status: ('A' for Active; 'I' for Inactive)
REMARK    1  A    between atoms: C_1  and  C_2
REMARK    2  A    between atoms: C_11  and  N_29
REMARK    3  A    between atoms: C_13  and  S_15
REMARK    4  A    between atoms: S_15  and  C_16
REMARK    5  A    between atoms: C_16  and  C_17
REMARK    6  A    between atoms: N_19  and  C_20
REMARK                            x       y       z     vdW  Elec       q    Type
REMARK                         _______ _______ _______ _____ _____    ______ ____
ROOT
ATOM      1  C   UNL     1      -2.284   0.534  -0.715  0.00  0.00    +0.008 C 
ATOM      2  C   UNL     1      -1.782  -0.907  -0.606  0.00  0.00    -0.009 C 
ATOM      3  C   UNL     1      -0.778  -1.187  -1.727  0.00  0.00    +0.008 C 
ATOM      4  C   UNL     1      -0.461  -2.682  -1.777  0.00  0.00    +0.037 C 
ATOM      5  C   UNL     1      -0.035  -3.144  -0.386  0.00  0.00    -0.025 A 
ATOM      6  C   UNL     1      -0.335  -2.406   0.705  0.00  0.00    -0.004 A 
ATOM      7  S   UNL     1       0.339  -3.305   2.079  0.00  0.00    -0.073 S 
ATOM      8  C   UNL     1       1.023  -4.668   1.192  0.00  0.00    +0.115 A 
ATOM      9  C   UNL     1       0.702  -4.377  -0.158  0.00  0.00    +0.051 A 
ATOM     10  C   UNL     1       1.131  -5.316  -1.140  0.00  0.00    +0.129 A 
ATOM     11  N   UNL     1       1.794  -6.375  -0.684  0.00  0.00    -0.207 NA
ATOM     12  C   UNL     1       2.061  -6.584   0.597  0.00  0.00    +0.191 A 
ATOM     13  N   UNL     1       1.686  -5.745   1.565  0.00  0.00    -0.214 NA
ATOM     14  C   UNL     1      -1.083  -1.108   0.746  0.00  0.00    +0.046 C 
ENDROOT
BRANCH  10  15
ATOM     15  N   UNL     1       0.874  -5.136  -2.487  0.00  0.00    -0.343 N 
ATOM     16  H   UNL     1       1.371  -5.643  -3.148  0.00  0.00    +0.144 HD
ATOM     17  H   UNL     1       0.195  -4.504  -2.772  0.00  0.00    +0.144 HD
ENDBRANCH  10  15
BRANCH  12  18
ATOM     18  S   UNL     1       2.950  -8.039   1.044  0.00  0.00    -0.077 S 
BRANCH  18  19
ATOM     19  C   UNL     1       3.250  -8.873  -0.539  0.00  0.00    +0.173 C 
BRANCH  19  20
ATOM     20  C   UNL     1       4.014 -10.149  -0.297  0.00  0.00    +0.227 C 
ATOM     21  O   UNL     1       4.325 -10.465   0.832  0.00  0.00    -0.275 OA
ATOM     22  N   UNL     1       4.351 -10.940  -1.335  0.00  0.00    -0.285 N 
ATOM     23  H   UNL     1       4.171 -10.651  -2.243  0.00  0.00    +0.155 HD
BRANCH  22  24
ATOM     24  C   UNL     1       4.962 -12.179  -1.102  0.00  0.00    +0.037 A 
ATOM     25  C   UNL     1       5.899 -12.671  -2.002  0.00  0.00    +0.027 A 
ATOM     26  C   UNL     1       6.503 -13.893  -1.773  0.00  0.00    +0.051 A 
ATOM     27  C   UNL     1       6.176 -14.630  -0.646  0.00  0.00    +0.166 A 
ATOM     28  C   UNL     1       5.237 -14.139   0.258  0.00  0.00    +0.168 A 
ATOM     29  C   UNL     1       4.636 -12.912   0.031  0.00  0.00    +0.072 A 
ATOM     30  O   UNL     1       5.093 -15.042   1.271  0.00  0.00    -0.453 OA
ATOM     31  C   UNL     1       5.646 -16.274   0.770  0.00  0.00    +0.466 C 
ATOM     32  O   UNL     1       6.619 -15.842  -0.199  0.00  0.00    -0.453 OA
ENDBRANCH  22  24
ENDBRANCH  19  20
ENDBRANCH  18  19
ENDBRANCH  12  18
TORSDOF 5
