REMARK  Name = ZINC09244211
REMARK  16 active torsions:
REMARK  status: ('A' for Active; 'I' for Inactive)
REMARK    1  A    between atoms: C_1  and  C_2
REMARK    2  A    between atoms: C_2  and  N_67
REMARK    3  A    between atoms: C_3  and  C_4
REMARK    4  A    between atoms: C_3  and  N_67
REMARK    5  A    between atoms: C_5  and  C_6
REMARK    6  A    between atoms: C_5  and  N_67
REMARK    7  A    between atoms: C_6  and  N_7
REMARK    8  A    between atoms: C_8  and  C_27
REMARK    9  A    between atoms: C_11  and  C_12
REMARK   10  A    between atoms: C_11  and  O_22
REMARK   11  A    between atoms: C_15  and  O_18
REMARK   12  A    between atoms: O_18  and  C_19
REMARK   13  A    between atoms: C_19  and  C_20
REMARK   14  A    between atoms: C_30  and  O_35
REMARK   15  A    between atoms: C_31  and  O_33
REMARK   16  A    between atoms: O_33  and  C_34
REMARK                            x       y       z     vdW  Elec       q    Type
REMARK                         _______ _______ _______ _____ _____    ______ ____
ROOT
ATOM      1  N   UNL     1      -3.501   2.496  -1.472  0.00  0.00    -0.285 N 
ATOM      2  C   UNL     1      -3.471   3.934  -1.752  0.00  0.00    +0.144 C 
ATOM      3  C   UNL     1      -4.427   4.172  -2.898  0.00  0.00    +0.071 C 
ATOM      4  C   UNL     1      -4.718   5.381  -3.499  0.00  0.00    +0.133 C 
ATOM      5  C   UNL     1      -4.964   2.918  -3.224  0.00  0.00    +0.249 C 
ATOM      6  O   UNL     1      -5.781   2.697  -4.100  0.00  0.00    -0.282 OA
ATOM      7  C   UNL     1      -4.363   1.904  -2.316  0.00  0.00    +0.288 C 
ATOM      8  O   UNL     1      -4.615   0.717  -2.334  0.00  0.00    -0.266 OA
ENDROOT
BRANCH   4   9
ATOM      9  C   UNL     1      -5.568   5.421  -4.699  0.00  0.00    +0.017 A 
ATOM     10  C   UNL     1      -5.277   4.597  -5.793  0.00  0.00    +0.015 A 
ATOM     11  C   UNL     1      -6.078   4.634  -6.911  0.00  0.00    +0.046 A 
ATOM     12  C   UNL     1      -7.169   5.496  -6.960  0.00  0.00    +0.121 A 
ATOM     13  C   UNL     1      -7.459   6.320  -5.878  0.00  0.00    +0.046 A 
ATOM     14  C   UNL     1      -6.667   6.287  -4.753  0.00  0.00    +0.015 A 
BRANCH  12  15
ATOM     15  O   UNL     1      -7.952   5.534  -8.067  0.00  0.00    -0.488 OA
BRANCH  15  16
ATOM     16  C   UNL     1      -7.598   4.661  -9.142  0.00  0.00    +0.256 C 
BRANCH  16  17
ATOM     17  C   UNL     1      -8.573   4.840 -10.277  0.00  0.00    +0.006 C 
ATOM     18  C   UNL     1      -8.135   4.938 -11.508  0.00  0.00    +0.007 C 
ENDBRANCH  16  17
ENDBRANCH  15  16
ENDBRANCH  12  15
ENDBRANCH   4   9
BRANCH   2  19
ATOM     19  C   UNL     1      -2.079   4.354  -2.149  0.00  0.00    -0.019 A 
ATOM     20  C   UNL     1      -1.320   3.538  -2.966  0.00  0.00    +0.009 A 
ATOM     21  C   UNL     1      -0.044   3.921  -3.338  0.00  0.00    +0.049 A 
ATOM     22  C   UNL     1       0.479   5.120  -2.882  0.00  0.00    +0.158 A 
ATOM     23  C   UNL     1      -0.283   5.939  -2.055  0.00  0.00    +0.162 A 
ATOM     24  C   UNL     1      -1.563   5.552  -1.691  0.00  0.00    +0.055 A 
BRANCH  23  25
ATOM     25  O   UNL     1       0.226   7.117  -1.606  0.00  0.00    -0.491 OA
ATOM     26  C   UNL     1      -0.614   7.907  -0.761  0.00  0.00    +0.277 C 
ENDBRANCH  23  25
BRANCH  22  27
ATOM     27  O   UNL     1       1.736   5.496  -3.242  0.00  0.00    -0.503 OA
ATOM     28  H   UNL     1       2.426   5.192  -2.637  0.00  0.00    +0.292 HD
ENDBRANCH  22  27
ENDBRANCH   2  19
BRANCH   4  29
ATOM     29  O   UNL     1      -4.222   6.527  -2.984  0.00  0.00    -0.506 OA
ATOM     30  H   UNL     1      -4.529   7.301  -3.538  0.00  0.00    +0.292 HD
ENDBRANCH   4  29
BRANCH   1  31
ATOM     31  C   UNL     1      -2.722   1.814  -0.435  0.00  0.00    +0.090 C 
BRANCH  31  32
ATOM     32  C   UNL     1      -1.380   1.365  -1.018  0.00  0.00    -0.060 C 
BRANCH  32  33
ATOM     33  N   UNL     1      -0.659   0.575   0.002  0.00  0.00    +0.380 N 
ATOM     34  H   UNL     1      -0.688   1.079   0.896  0.00  0.00    -0.082 HD
BRANCH  33  36
ATOM     35  C   UNL     1      -1.197  -1.565  -1.113  0.00  0.00    -0.017 C 
ATOM     36  C   UNL     1      -1.308  -0.742   0.172  0.00  0.00    -0.082 C 
ENDBRANCH  33  36
BRANCH  33  37
ATOM     37  C   UNL     1       0.751   0.395  -0.403  0.00  0.00    -0.082 C 
ATOM     38  C   UNL     1       1.524  -0.226   0.763  0.00  0.00    -0.017 C 
ENDBRANCH  33  37
ENDBRANCH  32  33
ENDBRANCH  31  32
ENDBRANCH   1  31
TORSDOF 13
