REMARK  Name = ZINC12007914
REMARK  7 active torsions:
REMARK  status: ('A' for Active; 'I' for Inactive)
REMARK    1  A    between atoms: C_1  and  C_2
REMARK    2  A    between atoms: C_2  and  C_3
REMARK    3  A    between atoms: C_2  and  C_4
REMARK    4  A    between atoms: C_13  and  N_22
REMARK    5  A    between atoms: C_15  and  C_17
REMARK    6  A    between atoms: C_23  and  C_25
REMARK    7  A    between atoms: C_25  and  C_27
REMARK                            x       y       z     vdW  Elec       q    Type
REMARK                         _______ _______ _______ _____ _____    ______ ____
ROOT
ATOM      1  C   UNL     1       3.432  -3.298  -0.057  0.00  0.00    +0.053 A 
ATOM      2  C   UNL     1       2.545  -4.326   0.074  0.00  0.00    +0.093 A 
ATOM      3  C   UNL     1       1.174  -4.030   0.190  0.00  0.00    +0.253 A 
ATOM      4  O   UNL     1       0.352  -4.924   0.308  0.00  0.00    -0.268 OA
ATOM      5  N   UNL     1       0.786  -2.737   0.173  0.00  0.00    -0.291 N 
ATOM      6  H   UNL     1      -0.153  -2.509   0.256  0.00  0.00    +0.172 HD
ATOM      7  C   UNL     1       1.717  -1.755   0.035  0.00  0.00    +0.234 A 
ATOM      8  N   UNL     1       2.997  -2.039  -0.072  0.00  0.00    -0.217 NA
ATOM      9  N   UNL     1       1.311  -0.435   0.014  0.00  0.00    -0.184 N 
ATOM     10  C   UNL     1       2.132   0.658  -0.012  0.00  0.00    +0.133 A 
ATOM     11  C   UNL     1       1.345   1.764  -0.026  0.00  0.00    +0.077 A 
ATOM     12  C   UNL     1      -0.000   1.337  -0.009  0.00  0.00    +0.130 A 
ATOM     13  N   UNL     1      -0.014   0.020   0.015  0.00  0.00    -0.159 NA
ENDROOT
BRANCH  12  14
ATOM     14  C   UNL     1      -1.188   2.216  -0.022  0.00  0.00    +0.155 A 
ATOM     15  C   UNL     1      -2.484   1.806  -0.016  0.00  0.00    +0.051 A 
ATOM     16  C   UNL     1      -3.279   2.970  -0.029  0.00  0.00    +0.042 A 
ATOM     17  C   UNL     1      -2.437   4.022  -0.052  0.00  0.00    +0.196 A 
ATOM     18  O   UNL     1      -1.175   3.563  -0.048  0.00  0.00    -0.461 OA
ENDBRANCH  12  14
BRANCH  10  19
ATOM     19  N   UNL     1       3.522   0.639  -0.021  0.00  0.00    -0.263 N 
ATOM     20  C   UNL     1       4.212   1.793   0.083  0.00  0.00    +0.290 C 
ATOM     21  O   UNL     1       3.619   2.848   0.185  0.00  0.00    -0.266 OA
ATOM     22  H   UNL     1       3.996  -0.203  -0.102  0.00  0.00    +0.157 HD
BRANCH  20  23
ATOM     23  C   UNL     1       5.702   1.773   0.073  0.00  0.00    +0.250 C 
ATOM     24  O   UNL     1       6.295   0.717  -0.029  0.00  0.00    -0.282 OA
BRANCH  23  25
ATOM     25  C   UNL     1       6.450   3.025   0.186  0.00  0.00    +0.052 A 
ATOM     26  C   UNL     1       5.926   4.298   0.301  0.00  0.00    +0.095 A 
ATOM     27  N   UNL     1       6.928   5.192   0.386  0.00  0.00    -0.360 N 
ATOM     28  H   UNL     1       6.806   6.150   0.476  0.00  0.00    +0.165 HD
ATOM     29  C   UNL     1       8.154   4.561   0.320  0.00  0.00    +0.047 A 
ATOM     30  C   UNL     1       7.918   3.183   0.193  0.00  0.00    +0.011 A 
ATOM     31  C   UNL     1       8.986   2.295   0.104  0.00  0.00    +0.011 A 
ATOM     32  C   UNL     1      10.277   2.776   0.142  0.00  0.00    +0.001 A 
ATOM     33  C   UNL     1      10.514   4.136   0.268  0.00  0.00    +0.002 A 
ATOM     34  C   UNL     1       9.464   5.026   0.357  0.00  0.00    +0.026 A 
ENDBRANCH  23  25
ENDBRANCH  20  23
ENDBRANCH  10  19
BRANCH   1  36
ATOM     35  C   UNL     1       5.422  -3.033  -1.512  0.00  0.00    +0.014 C 
ATOM     36  C   UNL     1       4.905  -3.586  -0.182  0.00  0.00    +0.032 C 
ATOM     37  C   UNL     1       5.656  -2.921   0.973  0.00  0.00    +0.014 C 
ENDBRANCH   1  36
TORSDOF 5
