REMARK  Name = ZINC46759185
REMARK  12 active torsions:
REMARK  status: ('A' for Active; 'I' for Inactive)
REMARK    1  A    between atoms: C_1  and  C_2
REMARK    2  A    between atoms: C_2  and  C_3
REMARK    3  A    between atoms: C_2  and  C_4
REMARK    4  A    between atoms: C_4  and  C_6
REMARK    5  A    between atoms: C_4  and  N_23
REMARK    6  A    between atoms: N_8  and  C_9
REMARK    7  A    between atoms: C_9  and  C_10
REMARK    8  A    between atoms: C_13  and  N_16
REMARK    9  A    between atoms: N_19  and  C_20
REMARK   10  A    between atoms: C_20  and  C_21
REMARK   11  A    between atoms: C_20  and  C_22
REMARK   12  A    between atoms: C_24  and  C_26
REMARK                            x       y       z     vdW  Elec       q    Type
REMARK                         _______ _______ _______ _____ _____    ______ ____
ROOT
ATOM      1  C   UNL     1      -1.429  -1.919   0.244  0.00  0.00    +0.234 C 
ATOM      2  O   UNL     1      -1.758  -2.509  -0.763  0.00  0.00    -0.274 OA
ATOM      3  N   UNL     1      -0.901  -2.599   1.281  0.00  0.00    -0.310 N 
ATOM      4  H   UNL     1      -0.573  -2.120   2.058  0.00  0.00    +0.149 HD
ENDROOT
BRANCH   1   5
ATOM      5  C   UNL     1      -1.612  -0.426   0.337  0.00  0.00    +0.161 C 
BRANCH   5   6
ATOM      6  N   UNL     1      -2.630   0.002  -0.626  0.00  0.00    -0.303 N 
ATOM      7  C   UNL     1      -3.325   1.137  -0.413  0.00  0.00    +0.220 C 
ATOM      8  O   UNL     1      -3.107   1.804   0.576  0.00  0.00    -0.275 OA
ATOM      9  H   UNL     1      -2.804  -0.532  -1.417  0.00  0.00    +0.149 HD
BRANCH   7  10
ATOM     10  C   UNL     1      -4.372   1.577  -1.403  0.00  0.00    +0.048 C 
ATOM     11  C   UNL     1      -5.452   0.499  -1.516  0.00  0.00    +0.019 C 
ATOM     12  C   UNL     1      -6.515   0.946  -2.522  0.00  0.00    -0.009 C 
ATOM     13  C   UNL     1      -7.149   2.254  -2.046  0.00  0.00    +0.007 C 
ATOM     14  C   UNL     1      -6.069   3.333  -1.933  0.00  0.00    -0.009 C 
ATOM     15  C   UNL     1      -5.006   2.886  -0.927  0.00  0.00    +0.019 C 
ATOM     16  C   UNL     1      -5.418   3.549  -3.300  0.00  0.00    +0.007 C 
ATOM     17  C   UNL     1      -4.785   2.240  -3.776  0.00  0.00    -0.009 C 
ATOM     18  C   UNL     1      -5.864   1.162  -3.890  0.00  0.00    +0.007 C 
ATOM     19  C   UNL     1      -3.721   1.793  -2.771  0.00  0.00    +0.019 C 
ENDBRANCH   7  10
ENDBRANCH   5   6
BRANCH   5  21
ATOM     20  C   UNL     1       0.130  -0.053  -1.415  0.00  0.00    +0.009 C 
ATOM     21  C   UNL     1      -0.287   0.270   0.021  0.00  0.00    +0.012 C 
ATOM     22  C   UNL     1      -0.457   1.783   0.174  0.00  0.00    +0.009 C 
ENDBRANCH   5  21
ENDBRANCH   1   5
BRANCH   3  23
ATOM     23  C   UNL     1      -0.821  -4.061   1.234  0.00  0.00    +0.139 C 
BRANCH  23  24
ATOM     24  C   UNL     1      -0.195  -4.571   2.506  0.00  0.00    -0.030 A 
ATOM     25  C   UNL     1       1.177  -4.724   2.587  0.00  0.00    +0.007 A 
ATOM     26  C   UNL     1       1.754  -5.191   3.752  0.00  0.00    +0.023 A 
ATOM     27  C   UNL     1       0.954  -5.507   4.843  0.00  0.00    +0.035 A 
ATOM     28  C   UNL     1      -0.423  -5.353   4.758  0.00  0.00    +0.023 A 
ATOM     29  C   UNL     1      -0.994  -4.880   3.593  0.00  0.00    +0.007 A 
BRANCH  27  30
ATOM     30  N   UNL     1       1.535  -5.981   6.024  0.00  0.00    -0.269 N 
ATOM     31  C   UNL     1       2.624  -6.774   5.969  0.00  0.00    +0.304 C 
ATOM     32  O   UNL     1       3.150  -7.010   4.898  0.00  0.00    -0.253 OA
ATOM     33  N   UNL     1       3.131  -7.303   7.100  0.00  0.00    -0.297 N 
ATOM     34  H   UNL     1       1.154  -5.740   6.883  0.00  0.00    +0.156 HD
ATOM     35  H   UNL     1       2.711  -7.114   7.954  0.00  0.00    +0.151 HD
BRANCH  33  36
ATOM     36  C   UNL     1       4.314  -8.164   7.040  0.00  0.00    +0.068 C 
ATOM     37  C   UNL     1       5.042  -8.125   8.385  0.00  0.00    +0.027 C 
ATOM     38  C   UNL     1       3.885  -9.600   6.733  0.00  0.00    +0.027 C 
ENDBRANCH  33  36
ENDBRANCH  27  30
ENDBRANCH  23  24
ENDBRANCH   3  23
TORSDOF 8
