REMARK  Name = ZINC39664439
REMARK  11 active torsions:
REMARK  status: ('A' for Active; 'I' for Inactive)
REMARK    1  A    between atoms: C_1  and  C_2
REMARK    2  A    between atoms: C_2  and  C_3
REMARK    3  A    between atoms: C_3  and  C_4
REMARK    4  A    between atoms: C_4  and  C_5
REMARK    5  A    between atoms: C_5  and  C_7
REMARK    6  A    between atoms: C_5  and  C_8
REMARK    7  A    between atoms: C_12  and  C_21
REMARK    8  A    between atoms: N_23  and  C_24
REMARK    9  A    between atoms: C_24  and  C_25
REMARK   10  A    between atoms: C_25  and  C_27
REMARK   11  A    between atoms: C_25  and  N_33
REMARK                            x       y       z     vdW  Elec       q    Type
REMARK                         _______ _______ _______ _____ _____    ______ ____
ROOT
ATOM      1  C   UNL     1       1.524  -5.953  -2.215  0.00  0.00    +0.218 C 
ATOM      2  O   UNL     1       1.136  -6.760  -1.397  0.00  0.00    -0.275 OA
ATOM      3  N   UNL     1       2.308  -6.352  -3.236  0.00  0.00    -0.300 N 
ATOM      4  C   UNL     1       2.968  -5.506  -4.258  0.00  0.00    +0.121 C 
ATOM      5  C   UNL     1       4.357  -6.152  -4.461  0.00  0.00    +0.100 C 
ATOM      6  C   UNL     1       4.178  -7.615  -4.022  0.00  0.00    -0.004 C 
ATOM      7  C   UNL     1       2.711  -7.735  -3.585  0.00  0.00    +0.115 C 
ATOM      8  C   UNL     1       5.099  -7.931  -2.848  0.00  0.00    -0.010 C 
ATOM      9  C   UNL     1       4.945  -9.406  -2.467  0.00  0.00    -0.082 C 
ATOM     10  N   UNL     1       5.281 -10.249  -3.620  0.00  0.00    +0.379 N 
ATOM     11  C   UNL     1       4.333 -10.005  -4.713  0.00  0.00    -0.082 C 
ATOM     12  C   UNL     1       4.461  -8.556  -5.189  0.00  0.00    -0.010 C 
ATOM     13  H   UNL     1       6.216 -10.032  -3.933  0.00  0.00    -0.086 HD
ATOM     14  H   UNL     1       5.238 -11.220  -3.349  0.00  0.00    -0.086 HD
ENDROOT
BRANCH   5  15
ATOM     15  C   UNL     1       4.761  -6.083  -5.912  0.00  0.00    +0.218 C 
ATOM     16  O   UNL     1       3.917  -6.147  -6.780  0.00  0.00    -0.275 OA
ATOM     17  N   UNL     1       6.060  -5.949  -6.244  0.00  0.00    -0.313 N 
ATOM     18  H   UNL     1       6.735  -5.897  -5.549  0.00  0.00    +0.149 HD
BRANCH  17  19
ATOM     19  C   UNL     1       6.453  -5.882  -7.653  0.00  0.00    +0.127 C 
BRANCH  19  20
ATOM     20  C   UNL     1       7.972  -5.731  -7.753  0.00  0.00    +0.104 C 
BRANCH  20  21
ATOM     21  C   UNL     1       8.364  -5.539  -9.195  0.00  0.00    -0.029 A 
ATOM     22  C   UNL     1       9.405  -6.273  -9.733  0.00  0.00    +0.005 A 
ATOM     23  C   UNL     1       9.765  -6.096 -11.056  0.00  0.00    +0.000 A 
ATOM     24  C   UNL     1       9.083  -5.186 -11.841  0.00  0.00    +0.000 A 
ATOM     25  C   UNL     1       8.042  -4.452 -11.305  0.00  0.00    +0.000 A 
ATOM     26  C   UNL     1       7.679  -4.632  -9.983  0.00  0.00    +0.005 A 
ENDBRANCH  20  21
BRANCH  20  27
ATOM     27  N   UNL     1       8.401  -4.565  -6.969  0.00  0.00    -0.290 NA
ATOM     28  C   UNL     1       7.859  -3.321  -7.535  0.00  0.00    +0.113 C 
ATOM     29  C   UNL     1       8.281  -2.141  -6.656  0.00  0.00    +0.175 C 
ATOM     30  O   UNL     1       9.707  -2.114  -6.555  0.00  0.00    -0.377 OA
ATOM     31  C   UNL     1      10.268  -3.309  -6.007  0.00  0.00    +0.175 C 
ATOM     32  C   UNL     1       9.867  -4.502  -6.879  0.00  0.00    +0.113 C 
ENDBRANCH  20  27
ENDBRANCH  19  20
ENDBRANCH  17  19
ENDBRANCH   5  15
BRANCH   1  33
ATOM     33  C   UNL     1       1.129  -4.504  -2.090  0.00  0.00    +0.072 C 
ATOM     34  C   UNL     1       2.200  -3.750  -1.299  0.00  0.00    +0.017 C 
BRANCH  33  35
ATOM     35  C   UNL     1      -0.211  -4.402  -1.358  0.00  0.00    +0.012 C 
BRANCH  35  36
ATOM     36  C   UNL     1      -0.673  -2.944  -1.341  0.00  0.00    +0.000 C 
BRANCH  36  38
ATOM     37  C   UNL     1      -2.475  -1.383  -0.592  0.00  0.00    +0.004 C 
ATOM     38  C   UNL     1      -2.013  -2.842  -0.609  0.00  0.00    -0.003 C 
ENDBRANCH  36  38
ENDBRANCH  35  36
ENDBRANCH  33  35
ENDBRANCH   1  33
TORSDOF 9
