REMARK  Name = ZINC49397384
REMARK  5 active torsions:
REMARK  status: ('A' for Active; 'I' for Inactive)
REMARK    1  A    between atoms: C_1  and  C_2
REMARK    2  A    between atoms: C_5  and  C_19
REMARK    3  A    between atoms: C_6  and  O_8
REMARK    4  A    between atoms: O_8  and  C_9
REMARK    5  A    between atoms: C_9  and  C_11
REMARK                            x       y       z     vdW  Elec       q    Type
REMARK                         _______ _______ _______ _____ _____    ______ ____
ROOT
ATOM      1  C   UNL     1       0.282   1.486  -0.010  0.00  0.00    +0.044 C 
ATOM      2  C   UNL     1       0.145  -0.015  -0.009  0.00  0.00    -0.047 A 
ATOM      3  C   UNL     1       0.004  -0.694  -1.208  0.00  0.00    +0.004 A 
ATOM      4  C   UNL     1      -0.122  -2.066  -1.220  0.00  0.00    +0.017 A 
ATOM      5  C   UNL     1      -0.107  -2.777  -0.017  0.00  0.00    +0.079 A 
ATOM      6  C   UNL     1       0.035  -2.086   1.194  0.00  0.00    +0.144 A 
ATOM      7  C   UNL     1       0.167  -0.706   1.186  0.00  0.00    +0.050 A 
ENDROOT
BRANCH   5   8
ATOM      8  C   UNL     1      -0.242  -4.246  -0.022  0.00  0.00    +0.245 C 
ATOM      9  O   UNL     1      -0.230  -4.861   1.027  0.00  0.00    -0.270 OA
ATOM     10  N   UNL     1      -0.380  -4.907  -1.188  0.00  0.00    -0.325 N 
ATOM     11  H   UNL     1      -0.390  -4.416  -2.025  0.00  0.00    +0.145 HD
ATOM     12  H   UNL     1      -0.469  -5.873  -1.192  0.00  0.00    +0.145 HD
ENDBRANCH   5   8
BRANCH   6  13
ATOM     13  O   UNL     1       0.050  -2.766   2.368  0.00  0.00    -0.422 OA
BRANCH  13  14
ATOM     14  C   UNL     1       1.230  -3.251   2.804  0.00  0.00    +0.346 C 
ATOM     15  O   UNL     1       2.252  -2.996   2.199  0.00  0.00    -0.244 OA
BRANCH  14  16
ATOM     16  C   UNL     1       1.280  -4.093   4.014  0.00  0.00    +0.078 A 
ATOM     17  C   UNL     1       0.105  -4.394   4.709  0.00  0.00    +0.018 A 
ATOM     18  C   UNL     1       0.158  -5.181   5.839  0.00  0.00    +0.021 A 
ATOM     19  C   UNL     1       1.373  -5.674   6.288  0.00  0.00    +0.042 A 
ATOM     20  C   UNL     1       2.541  -5.381   5.606  0.00  0.00    +0.040 A 
ATOM     21  C   UNL     1       2.501  -4.598   4.469  0.00  0.00    +0.056 A 
ATOM     22 CL   UNL     1       3.966  -4.237   3.610  0.00  0.00    -0.083 Cl
ATOM     23 CL   UNL     1       1.430  -6.664   7.713  0.00  0.00    -0.083 Cl
ENDBRANCH  14  16
ENDBRANCH  13  14
ENDBRANCH   6  13
TORSDOF 4
