REMARK  Name = ZINC15973808
REMARK  5 active torsions:
REMARK  status: ('A' for Active; 'I' for Inactive)
REMARK    1  A    between atoms: C_3  and  N_8
REMARK    2  A    between atoms: C_14  and  C_16
REMARK    3  A    between atoms: C_19  and  C_22
REMARK    4  A    between atoms: C_22  and  S_23
REMARK    5  A    between atoms: S_23  and  C_24
REMARK                            x       y       z     vdW  Elec       q    Type
REMARK                         _______ _______ _______ _____ _____    ______ ____
ROOT
ATOM      1  C   UNL     1       8.215   3.255   1.158  0.00  0.00    +0.037 A 
ATOM      2  C   UNL     1       8.238   1.865   1.034  0.00  0.00    +0.013 A 
ATOM      3  C   UNL     1       9.445   1.197   1.014  0.00  0.00    +0.005 A 
ATOM      4  C   UNL     1      10.631   1.902   1.117  0.00  0.00    -0.037 A 
ATOM      5  C   UNL     1      10.616   3.280   1.240  0.00  0.00    +0.005 A 
ATOM      6  C   UNL     1       9.416   3.961   1.255  0.00  0.00    +0.013 A 
ENDROOT
BRANCH   1  13
ATOM      7  N   UNL     1       4.274   3.252   4.070  0.00  0.00    -0.327 N 
ATOM      8  C   UNL     1       5.594   2.610   4.135  0.00  0.00    +0.124 C 
ATOM      9  C   UNL     1       6.049   2.278   2.709  0.00  0.00    +0.127 C 
ATOM     10  N   UNL     1       5.884   3.476   1.873  0.00  0.00    -0.295 N 
ATOM     11  C   UNL     1       4.564   4.118   1.808  0.00  0.00    +0.127 C 
ATOM     12  C   UNL     1       4.107   4.446   3.231  0.00  0.00    +0.124 C 
ATOM     13  C   UNL     1       6.926   3.978   1.180  0.00  0.00    +0.247 C 
ATOM     14  O   UNL     1       6.804   5.023   0.572  0.00  0.00    -0.270 OA
BRANCH   7  17
ATOM     15  C   UNL     1       0.916   2.893   5.521  0.00  0.00    +0.003 A 
ATOM     16  C   UNL     1       1.982   3.409   4.810  0.00  0.00    +0.023 A 
ATOM     17  C   UNL     1       3.194   2.732   4.789  0.00  0.00    +0.031 A 
ATOM     18  C   UNL     1       3.331   1.537   5.483  0.00  0.00    +0.043 A 
ATOM     19  C   UNL     1       2.261   1.026   6.193  0.00  0.00    +0.043 A 
ATOM     20  C   UNL     1       1.054   1.704   6.212  0.00  0.00    +0.020 A 
ATOM     21 CL   UNL     1       2.430  -0.468   7.061  0.00  0.00    -0.083 Cl
ENDBRANCH   7  17
ENDBRANCH   1  13
BRANCH   4  22
ATOM     22  C   UNL     1      11.946   1.166   1.094  0.00  0.00    +0.112 C 
BRANCH  22  23
ATOM     23  S   UNL     1      12.530   1.023  -0.617  0.00  0.00    -0.085 S 
BRANCH  23  24
ATOM     24  C   UNL     1      14.054   0.151  -0.476  0.00  0.00    +0.145 A 
ATOM     25  N   UNL     1      15.111   0.353  -1.228  0.00  0.00    -0.334 N 
ATOM     26  H   UNL     1      13.703  -1.169   1.109  0.00  0.00    +0.168 HD
ATOM     27  C   UNL     1      16.104  -0.484  -0.851  0.00  0.00    +0.068 A 
ATOM     28  C   UNL     1      17.417  -0.710  -1.282  0.00  0.00    +0.047 A 
ATOM     29  C   UNL     1      18.162  -1.667  -0.652  0.00  0.00    +0.113 A 
ATOM     30  N   UNL     1      17.669  -2.378   0.348  0.00  0.00    -0.261 NA
ATOM     31  C   UNL     1      16.438  -2.208   0.795  0.00  0.00    +0.138 A 
ATOM     32  C   UNL     1      15.612  -1.260   0.217  0.00  0.00    +0.083 A 
ATOM     33  N   UNL     1      14.315  -0.832   0.436  0.00  0.00    -0.333 N 
ATOM     34  H   UNL     1      15.171   1.004  -1.945  0.00  0.00    +0.168 HD
ENDBRANCH  23  24
ENDBRANCH  22  23
ENDBRANCH   4  22
TORSDOF 5
