REMARK  Name = ZINC57293756
REMARK  10 active torsions:
REMARK  status: ('A' for Active; 'I' for Inactive)
REMARK    1  A    between atoms: C_1  and  C_2
REMARK    2  A    between atoms: C_2  and  C_3
REMARK    3  A    between atoms: C_6  and  C_9
REMARK    4  A    between atoms: C_11  and  C_27
REMARK    5  A    between atoms: C_13  and  C_26
REMARK    6  A    between atoms: N_15  and  C_18
REMARK    7  A    between atoms: N_29  and  C_30
REMARK    8  A    between atoms: C_30  and  C_32
REMARK    9  A    between atoms: C_30  and  C_33
REMARK   10  A    between atoms: C_33  and  C_34
REMARK                            x       y       z     vdW  Elec       q    Type
REMARK                         _______ _______ _______ _____ _____    ______ ____
ROOT
ATOM      1  C   UNL     1       2.747  -2.477   4.488  0.00  0.00    +0.074 A 
ATOM      2  C   UNL     1       2.016  -2.824   5.628  0.00  0.00    +0.042 A 
ATOM      3  C   UNL     1       2.689  -3.054   6.823  0.00  0.00    +0.051 A 
ATOM      4  C   UNL     1       4.097  -2.924   6.826  0.00  0.00    +0.054 A 
ATOM      5  C   UNL     1       5.088  -3.074   7.819  0.00  0.00    +0.070 A 
ATOM      6  N   UNL     1       6.252  -2.834   7.284  0.00  0.00    -0.174 NA
ATOM      7  N   UNL     1       6.094  -2.518   5.929  0.00  0.00    -0.241 N 
ATOM      8  C   UNL     1       4.756  -2.570   5.631  0.00  0.00    +0.160 A 
ATOM      9  N   UNL     1       4.064  -2.368   4.520  0.00  0.00    -0.228 NA
ATOM     10  C   UNL     1       4.842  -3.448   9.257  0.00  0.00    +0.068 C 
ENDROOT
BRANCH   7  11
ATOM     11  C   UNL     1       7.171  -2.188   4.992  0.00  0.00    +0.132 C 
ATOM     12  C   UNL     1       7.928  -0.950   5.500  0.00  0.00    +0.051 C 
ATOM     13  C   UNL     1       9.239  -0.811   4.674  0.00  0.00    +0.168 C 
ATOM     14  S   UNL     1       9.759  -2.576   4.568  0.00  0.00    -0.029 S 
ATOM     15  O   UNL     1      10.637  -2.865   5.647  0.00  0.00    -0.174 OA
ATOM     16  O   UNL     1      10.170  -2.857   3.237  0.00  0.00    -0.174 OA
ATOM     17  C   UNL     1       8.140  -3.389   4.881  0.00  0.00    +0.192 C 
ENDBRANCH   7  11
BRANCH   1  21
ATOM     18  C   UNL     1       0.690  -1.775   0.834  0.00  0.00    -0.048 A 
ATOM     19  C   UNL     1       2.068  -1.664   0.881  0.00  0.00    +0.004 A 
ATOM     20  C   UNL     1       2.741  -1.890   2.064  0.00  0.00    +0.010 A 
ATOM     21  C   UNL     1       2.029  -2.232   3.213  0.00  0.00    +0.000 A 
ATOM     22  C   UNL     1       0.641  -2.342   3.159  0.00  0.00    +0.010 A 
ATOM     23  C   UNL     1      -0.022  -2.108   1.972  0.00  0.00    +0.004 A 
BRANCH  18  25
ATOM     24  C   UNL     1      -0.404  -0.044  -0.565  0.00  0.00    +0.009 C 
ATOM     25  C   UNL     1      -0.039  -1.526  -0.462  0.00  0.00    +0.032 C 
ENDBRANCH  18  25
ENDBRANCH   1  21
BRANCH   3  26
ATOM     26  C   UNL     1       1.954  -3.422   8.053  0.00  0.00    +0.245 C 
ATOM     27  O   UNL     1       2.424  -4.241   8.818  0.00  0.00    -0.270 OA
ATOM     28  N   UNL     1       0.765  -2.850   8.324  0.00  0.00    -0.309 N 
ATOM     29  H   UNL     1       0.390  -2.196   7.713  0.00  0.00    +0.149 HD
BRANCH  28  30
ATOM     30  C   UNL     1       0.037  -3.215   9.542  0.00  0.00    +0.070 C 
ATOM     31  C   UNL     1       0.546  -2.370  10.712  0.00  0.00    +0.028 C 
BRANCH  30  32
ATOM     32  C   UNL     1      -1.457  -2.959   9.340  0.00  0.00    +0.018 C 
ATOM     33  C   UNL     1      -1.992  -3.894   8.253  0.00  0.00    +0.005 C 
ENDBRANCH  30  32
ENDBRANCH  28  30
ENDBRANCH   3  26
TORSDOF 6
