REMARK  Name = ZINC06281020
REMARK  6 active torsions:
REMARK  status: ('A' for Active; 'I' for Inactive)
REMARK    1  A    between atoms: C_1  and  C_2
REMARK    2  A    between atoms: C_9  and  C_11
REMARK    3  A    between atoms: C_12  and  C_36
REMARK    4  A    between atoms: C_16  and  C_18
REMARK    5  A    between atoms: C_21  and  O_24
REMARK    6  A    between atoms: C_28  and  C_31
REMARK                            x       y       z     vdW  Elec       q    Type
REMARK                         _______ _______ _______ _____ _____    ______ ____
ROOT
ATOM      1  C   UNL     1      -0.846   2.891   1.469  0.00  0.00    +0.043 C 
ATOM      2  C   UNL     1      -0.714   1.572   1.251  0.00  0.00    +0.014 C 
ATOM      3  N   UNL     1      -1.209   0.667   2.149  0.00  0.00    -0.321 N 
ATOM      4  C   UNL     1      -2.174   1.035   3.049  0.00  0.00    +0.016 C 
ATOM      5  C   UNL     1      -2.372   2.337   3.346  0.00  0.00    +0.024 C 
ATOM      6  C   UNL     1      -1.538   3.412   2.695  0.00  0.00    +0.090 C 
ATOM      7  C   UNL     1      -3.356   2.728   4.270  0.00  0.00    +0.162 C 
ATOM      8  O   UNL     1      -3.520   3.909   4.503  0.00  0.00    -0.292 OA
ATOM      9  C   UNL     1      -4.210   1.711   4.976  0.00  0.00    +0.091 C 
ATOM     10  C   UNL     1      -3.427   0.399   5.096  0.00  0.00    +0.068 C 
ATOM     11  C   UNL     1      -3.007  -0.045   3.693  0.00  0.00    +0.062 C 
ATOM     12  C   UNL     1      -0.009   1.086   0.010  0.00  0.00    +0.061 C 
ATOM     13  H   UNL     1      -0.833  -0.366   2.153  0.00  0.00    +0.152 HD
ENDROOT
BRANCH   1  22
ATOM     14  C   UNL     1       2.002   8.695  -2.861  0.00  0.00    +0.045 C 
ATOM     15  C   UNL     1       1.334   7.770  -1.877  0.00  0.00    -0.032 A 
ATOM     16  C   UNL     1       0.711   8.280  -0.746  0.00  0.00    +0.008 A 
ATOM     17  C   UNL     1       0.105   7.396   0.129  0.00  0.00    +0.044 A 
ATOM     18  C   UNL     1       0.148   6.034  -0.147  0.00  0.00    +0.125 A 
ATOM     19  N   UNL     1       0.752   5.587  -1.237  0.00  0.00    -0.240 NA
ATOM     20  C   UNL     1       1.334   6.406  -2.091  0.00  0.00    +0.116 A 
ATOM     21  N   UNL     1      -0.453   5.133   0.728  0.00  0.00    -0.267 N 
ATOM     22  C   UNL     1      -0.328   3.807   0.522  0.00  0.00    +0.248 C 
ATOM     23  O   UNL     1       0.232   3.397  -0.479  0.00  0.00    -0.270 OA
ATOM     24  H   UNL     1      -1.031   5.503   1.588  0.00  0.00    +0.157 HD
ENDBRANCH   1  22
BRANCH   6  25
ATOM     25  C   UNL     1      -0.500   3.894   3.676  0.00  0.00    -0.035 A 
ATOM     26  C   UNL     1       0.425   3.006   4.194  0.00  0.00    +0.008 A 
ATOM     27  C   UNL     1       1.381   3.447   5.089  0.00  0.00    +0.046 A 
ATOM     28  C   UNL     1       1.405   4.779   5.476  0.00  0.00    +0.117 A 
ATOM     29  C   UNL     1       0.472   5.666   4.959  0.00  0.00    +0.046 A 
ATOM     30  C   UNL     1      -0.478   5.222   4.060  0.00  0.00    +0.008 A 
BRANCH  28  31
ATOM     31  O   UNL     1       2.341   5.214   6.360  0.00  0.00    -0.507 OA
ATOM     32  H   UNL     1       2.359   6.270   6.667  0.00  0.00    +0.292 HD
ENDBRANCH  28  31
ENDBRANCH   6  25
BRANCH  10  33
ATOM     33  C   UNL     1      -4.299  -0.656   5.726  0.00  0.00    +0.109 A 
ATOM     34  C   UNL     1      -4.042  -1.307   6.875  0.00  0.00    +0.045 A 
ATOM     35  C   UNL     1      -5.116  -2.201   7.088  0.00  0.00    +0.041 A 
ATOM     36  C   UNL     1      -5.965  -2.043   6.057  0.00  0.00    +0.195 A 
ATOM     37  O   UNL     1      -5.468  -1.102   5.238  0.00  0.00    -0.468 OA
ENDBRANCH  10  33
TORSDOF 4
