REMARK  Name = ZINC16525914
REMARK  10 active torsions:
REMARK  status: ('A' for Active; 'I' for Inactive)
REMARK    1  A    between atoms: C_9  and  O_24
REMARK    2  A    between atoms: C_10  and  C_11
REMARK    3  A    between atoms: C_11  and  N_56
REMARK    4  A    between atoms: C_12  and  C_13
REMARK    5  A    between atoms: C_12  and  N_56
REMARK    6  A    between atoms: C_13  and  N_14
REMARK    7  A    between atoms: N_14  and  C_15
REMARK    8  A    between atoms: C_18  and  N_21
REMARK    9  A    between atoms: O_24  and  C_25
REMARK   10  A    between atoms: C_25  and  C_26
REMARK                            x       y       z     vdW  Elec       q    Type
REMARK                         _______ _______ _______ _____ _____    ______ ____
ROOT
ATOM      1  C   UNL     1      -0.013   1.076   0.008  0.00  0.00    +0.001 A 
ATOM      2  C   UNL     1      -1.235   1.746   0.017  0.00  0.00    +0.001 A 
ATOM      3  C   UNL     1      -1.288   3.105   0.030  0.00  0.00    +0.009 A 
ATOM      4  C   UNL     1      -0.095   3.849   0.023  0.00  0.00    -0.013 A 
ATOM      5  C   UNL     1       1.148   3.167   0.008  0.00  0.00    -0.017 A 
ATOM      6  C   UNL     1       1.163   1.762   0.000  0.00  0.00    +0.008 A 
ATOM      7  C   UNL     1       2.342   3.909  -0.001  0.00  0.00    +0.012 A 
ATOM      8  C   UNL     1       2.292   5.268   0.006  0.00  0.00    +0.046 A 
ATOM      9  C   UNL     1       1.067   5.942   0.021  0.00  0.00    +0.123 A 
ATOM     10  C   UNL     1      -0.112   5.253   0.029  0.00  0.00    -0.015 A 
ENDROOT
BRANCH  10  11
ATOM     11  C   UNL     1      -1.423   5.995   0.046  0.00  0.00    -0.042 C 
BRANCH  11  12
ATOM     12  N   UNL     1      -1.830   6.226   1.445  0.00  0.00    +0.383 N 
ATOM     13  H   UNL     1      -1.109   6.782   1.920  0.00  0.00    -0.085 HD
ATOM     14  H   UNL     1      -1.935   5.323   1.921  0.00  0.00    -0.085 HD
BRANCH  12  15
ATOM     15  C   UNL     1      -3.113   6.953   1.491  0.00  0.00    -0.063 C 
BRANCH  15  16
ATOM     16  C   UNL     1      -3.509   7.178   2.952  0.00  0.00    +0.082 C 
BRANCH  16  17
ATOM     17  N   UNL     1      -4.783   7.899   3.007  0.00  0.00    -0.346 N 
ATOM     18  H   UNL     1      -5.233   8.153   2.186  0.00  0.00    +0.146 HD
BRANCH  17  19
ATOM     19  C   UNL     1      -5.351   8.221   4.242  0.00  0.00    +0.027 A 
ATOM     20  C   UNL     1      -4.711   7.854   5.419  0.00  0.00    +0.025 A 
ATOM     21  C   UNL     1      -5.271   8.179   6.639  0.00  0.00    +0.034 A 
ATOM     22  C   UNL     1      -6.474   8.859   6.689  0.00  0.00    +0.126 A 
ATOM     23  C   UNL     1      -7.117   9.222   5.519  0.00  0.00    +0.034 A 
ATOM     24  C   UNL     1      -6.559   8.905   4.296  0.00  0.00    +0.025 A 
BRANCH  22  25
ATOM     25  N   UNL     1      -7.075   9.201   7.998  0.00  0.00    +0.056 N 
ATOM     26  O   UNL     1      -8.134   9.801   8.043  0.00  0.00    -0.126 OA
ATOM     27  O   UNL     1      -6.510   8.883   9.029  0.00  0.00    -0.126 OA
ENDBRANCH  22  25
ENDBRANCH  17  19
ENDBRANCH  16  17
ENDBRANCH  15  16
ENDBRANCH  12  15
ENDBRANCH  11  12
ENDBRANCH  10  11
BRANCH   9  28
ATOM     28  O   UNL     1       1.050   7.301   0.027  0.00  0.00    -0.487 OA
BRANCH  28  29
ATOM     29  C   UNL     1       2.315   7.966   0.018  0.00  0.00    +0.267 C 
BRANCH  29  30
ATOM     30  C   UNL     1       2.098   9.457   0.027  0.00  0.00    +0.025 A 
ATOM     31  C   UNL     1       0.814   9.969   0.035  0.00  0.00    +0.010 A 
ATOM     32  C   UNL     1       0.615  11.337   0.049  0.00  0.00    +0.001 A 
ATOM     33  C   UNL     1       1.700  12.195   0.043  0.00  0.00    +0.003 A 
ATOM     34  C   UNL     1       2.984  11.685   0.028  0.00  0.00    +0.039 A 
ATOM     35  C   UNL     1       3.185  10.315   0.021  0.00  0.00    +0.130 A 
ATOM     36  F   UNL     1       4.440   9.815   0.006  0.00  0.00    -0.205 F 
ENDBRANCH  29  30
ENDBRANCH  28  29
ENDBRANCH   9  28
TORSDOF 10
