REMARK  Name = ZINC09474424
REMARK  5 active torsions:
REMARK  status: ('A' for Active; 'I' for Inactive)
REMARK    1  A    between atoms: C_6  and  N_7
REMARK    2  A    between atoms: C_16  and  S_17
REMARK    3  A    between atoms: S_17  and  C_18
REMARK    4  A    between atoms: C_18  and  C_19
REMARK    5  A    between atoms: N_21  and  C_22
REMARK                            x       y       z     vdW  Elec       q    Type
REMARK                         _______ _______ _______ _____ _____    ______ ____
ROOT
ATOM      1  N   UNL     1       7.453   0.625   2.034  0.00  0.00    -0.255 N 
ATOM      2  C   UNL     1       8.449   1.507   2.290  0.00  0.00    +0.274 A 
ATOM      3  O   UNL     1       9.268   1.289   3.167  0.00  0.00    -0.266 OA
ATOM      4  C   UNL     1       8.512   2.669   1.525  0.00  0.00    +0.102 A 
ATOM      5  C   UNL     1       7.576   2.936   0.510  0.00  0.00    +0.086 A 
ATOM      6  C   UNL     1       7.761   4.143  -0.179  0.00  0.00    +0.036 A 
ATOM      7  C   UNL     1       8.785   4.961   0.146  0.00  0.00    +0.048 A 
ATOM      8  S   UNL     1       9.586   4.080   1.476  0.00  0.00    -0.090 S 
ATOM      9  N   UNL     1       6.610   1.989   0.319  0.00  0.00    -0.222 NA
ATOM     10  C   UNL     1       6.553   0.904   1.043  0.00  0.00    +0.177 A 
ENDROOT
BRANCH   1  16
ATOM     11  C   UNL     1       6.593  -0.584   3.942  0.00  0.00    +0.027 A 
ATOM     12  C   UNL     1       6.486  -1.753   4.669  0.00  0.00    +0.017 A 
ATOM     13  C   UNL     1       7.138  -2.897   4.242  0.00  0.00    +0.018 A 
ATOM     14  C   UNL     1       7.893  -2.873   3.082  0.00  0.00    +0.017 A 
ATOM     15  C   UNL     1       7.999  -1.708   2.349  0.00  0.00    +0.027 A 
ATOM     16  C   UNL     1       7.346  -0.559   2.776  0.00  0.00    +0.052 A 
ATOM     17 BR   UNL     1       6.995  -4.494   5.244  0.00  0.00    -0.050 Br
ENDBRANCH   1  16
BRANCH  10  18
ATOM     18  S   UNL     1       5.264  -0.255   0.724  0.00  0.00    -0.078 S 
BRANCH  18  19
ATOM     19  C   UNL     1       4.408   0.591  -0.628  0.00  0.00    +0.173 C 
BRANCH  19  20
ATOM     20  C   UNL     1       3.234  -0.240  -1.077  0.00  0.00    +0.224 C 
ATOM     21  O   UNL     1       2.999  -1.300  -0.536  0.00  0.00    -0.275 OA
ATOM     22  N   UNL     1       2.445   0.194  -2.080  0.00  0.00    -0.312 N 
ATOM     23  H   UNL     1       2.633   1.042  -2.513  0.00  0.00    +0.149 HD
BRANCH  22  24
ATOM     24  C   UNL     1       1.304  -0.614  -2.516  0.00  0.00    +0.073 C 
ATOM     25  C   UNL     1       0.095  -0.309  -1.630  0.00  0.00    +0.022 C 
ATOM     26  C   UNL     1      -1.097  -1.153  -2.085  0.00  0.00    +0.002 C 
ATOM     27  C   UNL     1      -1.434  -0.817  -3.540  0.00  0.00    +0.000 C 
ATOM     28  C   UNL     1      -0.225  -1.122  -4.426  0.00  0.00    +0.002 C 
ATOM     29  C   UNL     1       0.968  -0.278  -3.970  0.00  0.00    +0.022 C 
ENDBRANCH  22  24
ENDBRANCH  19  20
ENDBRANCH  18  19
ENDBRANCH  10  18
TORSDOF 5
