REMARK  Name = ZINC44714629
REMARK  7 active torsions:
REMARK  status: ('A' for Active; 'I' for Inactive)
REMARK    1  A    between atoms: C_1  and  C_2
REMARK    2  A    between atoms: C_3  and  C_14
REMARK    3  A    between atoms: C_6  and  C_12
REMARK    4  A    between atoms: C_14  and  C_15
REMARK    5  A    between atoms: C_15  and  N_16
REMARK    6  A    between atoms: C_17  and  C_19
REMARK    7  A    between atoms: C_30  and  C_32
REMARK                            x       y       z     vdW  Elec       q    Type
REMARK                         _______ _______ _______ _____ _____    ______ ____
ROOT
ATOM      1  C   UNL     1       2.715   1.047  -5.519  0.00  0.00    +0.100 C 
ATOM      2  C   UNL     1       1.971   2.245  -6.151  0.00  0.00    +0.121 C 
ATOM      3  N   UNL     1       2.956   3.352  -6.127  0.00  0.00    -0.300 N 
ATOM      4  C   UNL     1       4.245   2.706  -6.469  0.00  0.00    +0.115 C 
ATOM      5  C   UNL     1       4.207   1.352  -5.734  0.00  0.00    -0.004 C 
ATOM      6  C   UNL     1       4.850   0.267  -6.592  0.00  0.00    -0.010 C 
ATOM      7  C   UNL     1       6.346   0.560  -6.742  0.00  0.00    -0.082 C 
ATOM      8  N   UNL     1       6.974   0.600  -5.417  0.00  0.00    +0.379 N 
ATOM      9  C   UNL     1       6.415   1.706  -4.630  0.00  0.00    -0.082 C 
ATOM     10  C   UNL     1       4.923   1.461  -4.391  0.00  0.00    -0.010 C 
ATOM     11  C   UNL     1       2.730   4.653  -5.856  0.00  0.00    +0.219 C 
ATOM     12  O   UNL     1       1.625   5.019  -5.515  0.00  0.00    -0.275 OA
ATOM     13  H   UNL     1       6.802  -0.272  -4.938  0.00  0.00    -0.086 HD
ATOM     14  H   UNL     1       7.969   0.732  -5.521  0.00  0.00    -0.086 HD
ENDROOT
BRANCH  11  15
ATOM     15  C   UNL     1       3.851   5.653  -5.975  0.00  0.00    +0.079 C 
ATOM     16  C   UNL     1       3.570   6.854  -5.062  0.00  0.00    +0.017 C 
ATOM     17  C   UNL     1       4.800   7.764  -5.067  0.00  0.00    +0.027 C 
ATOM     18  C   UNL     1       5.236   8.036  -6.477  0.00  0.00    -0.031 C 
ATOM     19  C   UNL     1       4.866   7.333  -7.500  0.00  0.00    -0.030 C 
ATOM     20  C   UNL     1       3.945   6.150  -7.420  0.00  0.00    +0.039 C 
ENDBRANCH  11  15
BRANCH   1  22
ATOM     21  N   UNL     1       2.431  -0.243  -3.429  0.00  0.00    -0.315 N 
ATOM     22  C   UNL     1       2.405   0.953  -4.048  0.00  0.00    +0.218 C 
ATOM     23  O   UNL     1       2.132   1.955  -3.421  0.00  0.00    -0.275 OA
ATOM     24  H   UNL     1       2.650  -1.044  -3.930  0.00  0.00    +0.149 HD
BRANCH  21  25
ATOM     25  C   UNL     1       2.129  -0.335  -1.998  0.00  0.00    +0.109 C 
BRANCH  25  26
ATOM     26  C   UNL     1       2.228  -1.794  -1.548  0.00  0.00    +0.056 C 
BRANCH  26  29
ATOM     27  C   UNL     1      -0.577  -2.236  -0.295  0.00  0.00    +0.063 C 
ATOM     28  C   UNL     1       0.709  -2.079   0.475  0.00  0.00    +0.017 A 
ATOM     29  C   UNL     1       1.918  -1.888  -0.076  0.00  0.00    -0.018 A 
ATOM     30  C   UNL     1       2.879  -1.788   1.026  0.00  0.00    +0.004 A 
ATOM     31  C   UNL     1       4.256  -1.593   1.093  0.00  0.00    +0.029 A 
ATOM     32  C   UNL     1       4.880  -1.547   2.337  0.00  0.00    +0.052 A 
ATOM     33  C   UNL     1       4.123  -1.695   3.507  0.00  0.00    +0.021 A 
ATOM     34  C   UNL     1       2.774  -1.886   3.444  0.00  0.00    +0.027 A 
ATOM     35  C   UNL     1       2.130  -1.936   2.210  0.00  0.00    +0.047 A 
ATOM     36  N   UNL     1       0.817  -2.105   1.839  0.00  0.00    -0.358 N 
ATOM     37  H   UNL     1       0.076  -2.227   2.453  0.00  0.00    +0.166 HD
BRANCH  32  38
ATOM     38  C   UNL     1       6.295  -1.348   2.420  0.00  0.00    +0.099 C 
ATOM     39  N   UNL     1       7.419  -1.190   2.487  0.00  0.00    -0.191 NA
ENDBRANCH  32  38
ENDBRANCH  26  29
ENDBRANCH  25  26
ENDBRANCH  21  25
ENDBRANCH   1  22
TORSDOF 6
