REMARK  Name = ZINC62933082
REMARK  6 active torsions:
REMARK  status: ('A' for Active; 'I' for Inactive)
REMARK    1  A    between atoms: C_1  and  C_2
REMARK    2  A    between atoms: C_2  and  C_3
REMARK    3  A    between atoms: C_6  and  N_9
REMARK    4  A    between atoms: C_15  and  C_17
REMARK    5  A    between atoms: C_15  and  C_19
REMARK    6  A    between atoms: C_17  and  C_18
REMARK                            x       y       z     vdW  Elec       q    Type
REMARK                         _______ _______ _______ _____ _____    ______ ____
ROOT
ATOM      1  N   UNL     1       4.299  -2.530   1.638  0.00  0.00    -0.296 N 
ATOM      2  C   UNL     1       4.751  -3.799   1.577  0.00  0.00    +0.302 C 
ATOM      3  O   UNL     1       4.925  -4.432   2.600  0.00  0.00    -0.253 OA
ATOM      4  N   UNL     1       5.010  -4.365   0.382  0.00  0.00    -0.285 N 
ATOM      5  C   UNL     1       4.851  -3.712  -0.931  0.00  0.00    +0.110 C 
ATOM      6  C   UNL     1       5.815  -4.476  -1.873  0.00  0.00    +0.039 C 
ATOM      7  C   UNL     1       5.675  -5.930  -1.350  0.00  0.00    +0.089 C 
ATOM      8  C   UNL     1       5.505  -5.733   0.171  0.00  0.00    +0.127 C 
ATOM      9  H   UNL     1       4.161  -2.025   0.822  0.00  0.00    +0.151 HD
ENDROOT
BRANCH   1  13
ATOM     10  C   UNL     1       1.709  -0.257   2.227  0.00  0.00    -0.011 C 
ATOM     11  C   UNL     1       3.126   0.114   1.783  0.00  0.00    +0.005 C 
ATOM     12  C   UNL     1       4.133  -0.394   2.817  0.00  0.00    +0.022 C 
ATOM     13  C   UNL     1       4.018  -1.915   2.937  0.00  0.00    +0.074 C 
ATOM     14  C   UNL     1       2.601  -2.285   3.381  0.00  0.00    +0.022 C 
ATOM     15  C   UNL     1       1.594  -1.778   2.347  0.00  0.00    +0.005 C 
BRANCH  10  17
ATOM     16  C   UNL     1       0.729   1.780   1.163  0.00  0.00    +0.004 C 
ATOM     17  C   UNL     1       0.702   0.251   1.193  0.00  0.00    -0.000 C 
ENDBRANCH  10  17
ENDBRANCH   1  13
BRANCH   7  18
ATOM     18  C   UNL     1       4.462  -6.596  -1.946  0.00  0.00    +0.364 C 
ATOM     19  O   UNL     1       4.340  -7.808  -1.884  0.00  0.00    -0.246 OA
ATOM     20  O   UNL     1       3.603  -5.924  -2.490  0.00  0.00    -0.246 OA
ENDBRANCH   7  18
BRANCH   7  21
ATOM     21  C   UNL     1       6.940  -6.737  -1.650  0.00  0.00    +0.016 C 
ATOM     22  C   UNL     1       7.259  -6.649  -3.144  0.00  0.00    +0.005 C 
ENDBRANCH   7  21
TORSDOF 4
