REMARK  Name = ZINC35497436
REMARK  6 active torsions:
REMARK  status: ('A' for Active; 'I' for Inactive)
REMARK    1  A    between atoms: C_1  and  C_2
REMARK    2  A    between atoms: C_4  and  C_8
REMARK    3  A    between atoms: C_5  and  C_7
REMARK    4  A    between atoms: C_8  and  C_10
REMARK    5  A    between atoms: C_8  and  N_20
REMARK    6  A    between atoms: N_20  and  C_21
REMARK                            x       y       z     vdW  Elec       q    Type
REMARK                         _______ _______ _______ _____ _____    ______ ____
ROOT
ATOM      1  C   UNL     1      -1.912  -3.224  -0.008  0.00  0.00    -0.003 C 
ENDROOT
BRANCH   1   2
ATOM      2  C   UNL     1      -2.134  -3.733  -1.409  0.00  0.00    -0.019 A 
ATOM      3  C   UNL     1      -1.727  -4.894  -1.967  0.00  0.00    +0.013 A 
ATOM      4  C   UNL     1      -2.040  -5.182  -3.301  0.00  0.00    -0.037 A 
ATOM      5  C   UNL     1      -2.754  -4.242  -3.968  0.00  0.00    -0.007 A 
ATOM      6  S   UNL     1      -3.008  -2.963  -2.762  0.00  0.00    -0.099 S 
ATOM      7  C   UNL     1      -3.226  -4.261  -5.385  0.00  0.00    +0.043 C 
ATOM      8  C   UNL     1      -3.446  -5.714  -5.826  0.00  0.00    +0.005 C 
ATOM      9  C   UNL     1      -2.136  -6.248  -6.398  0.00  0.00    +0.001 C 
ATOM     10  C   UNL     1      -1.032  -6.212  -5.345  0.00  0.00    +0.005 C 
ATOM     11  C   UNL     1      -1.601  -6.487  -3.957  0.00  0.00    +0.036 C 
ENDBRANCH   1   2
BRANCH   1  15
ATOM     12  C   UNL     1      -0.018   1.503   0.010  0.00  0.00    +0.051 C 
ATOM     13  C   UNL     1       0.002  -0.004   0.002  0.00  0.00    -0.013 A 
ATOM     14  C   UNL     1      -1.039  -0.872   0.002  0.00  0.00    +0.013 A 
ATOM     15  C   UNL     1      -0.780  -2.230  -0.007  0.00  0.00    -0.047 A 
ATOM     16  C   UNL     1       0.507  -2.653  -0.016  0.00  0.00    -0.011 A 
ATOM     17  S   UNL     1       1.404  -1.109  -0.018  0.00  0.00    -0.098 S 
ATOM     18  C   UNL     1       1.043  -4.062  -0.027  0.00  0.00    +0.052 C 
ENDBRANCH   1  15
BRANCH   1  19
ATOM     19  N   UNL     1      -3.137  -2.572   0.475  0.00  0.00    +0.385 N 
ATOM     20  C   UNL     1      -4.210  -3.569   0.589  0.00  0.00    -0.099 C 
ATOM     21  H   UNL     1      -2.964  -2.160   1.380  0.00  0.00    -0.085 HD
ATOM     22  H   UNL     1      -3.414  -1.852  -0.175  0.00  0.00    -0.085 HD
ENDBRANCH   1  19
TORSDOF 3
