REMARK  Name = ZINC06381902
REMARK  8 active torsions:
REMARK  status: ('A' for Active; 'I' for Inactive)
REMARK    1  A    between atoms: C_1  and  C_2
REMARK    2  A    between atoms: C_10  and  C_22
REMARK    3  A    between atoms: C_12  and  C_18
REMARK    4  A    between atoms: C_12  and  C_20
REMARK    5  A    between atoms: C_13  and  N_17
REMARK    6  A    between atoms: C_14  and  C_15
REMARK    7  A    between atoms: C_22  and  C_23
REMARK    8  A    between atoms: C_22  and  C_24
REMARK                            x       y       z     vdW  Elec       q    Type
REMARK                         _______ _______ _______ _____ _____    ______ ____
ROOT
ATOM      1  C   UNL     1       0.562   1.829  -0.197  0.00  0.00    +0.008 C 
ATOM      2  C   UNL     1       0.381   0.313  -0.090  0.00  0.00    -0.010 C 
ATOM      3  C   UNL     1      -1.112  -0.021   0.037  0.00  0.00    +0.030 C 
ATOM      4  C   UNL     1      -1.241  -1.521   0.102  0.00  0.00    -0.022 C 
ATOM      5  C   UNL     1      -0.307  -2.257   0.672  0.00  0.00    -0.029 C 
ATOM      6  C   UNL     1       0.911  -1.691   1.339  0.00  0.00    +0.026 C 
ATOM      7  C   UNL     1       1.098  -0.204   1.155  0.00  0.00    +0.012 C 
ATOM      8  C   UNL     1       2.130  -2.488   0.870  0.00  0.00    +0.039 C 
ATOM      9  C   UNL     1       1.980  -3.938   1.332  0.00  0.00    +0.184 C 
ATOM     10  C   UNL     1       0.641  -4.502   0.965  0.00  0.00    +0.054 C 
ATOM     11  C   UNL     1      -0.440  -3.738   0.666  0.00  0.00    +0.074 C 
ENDROOT
BRANCH  10  12
ATOM     12  N   UNL     1       0.500  -5.861   0.929  0.00  0.00    -0.358 N 
ATOM     13  H   UNL     1       1.256  -6.432   1.139  0.00  0.00    +0.142 HD
ATOM     14  H   UNL     1      -0.355  -6.254   0.695  0.00  0.00    +0.142 HD
ENDBRANCH  10  12
BRANCH   8  15
ATOM     15  C   UNL     1       2.217  -2.440  -0.657  0.00  0.00    -0.011 C 
ATOM     16  C   UNL     1       3.653  -2.734  -1.095  0.00  0.00    +0.007 C 
ATOM     17  C   UNL     1       1.276  -3.489  -1.254  0.00  0.00    +0.007 C 
ENDBRANCH   8  15
BRANCH  11  18
ATOM     18  C   UNL     1      -1.695  -4.351   0.348  0.00  0.00    +0.101 C 
ATOM     19  N   UNL     1      -2.690  -4.837   0.096  0.00  0.00    -0.191 NA
ENDBRANCH  11  18
BRANCH   9  20
ATOM     20  C   UNL     1       2.140  -3.994   2.795  0.00  0.00    +0.091 C 
ATOM     21  N   UNL     1       2.263  -4.038   3.923  0.00  0.00    -0.195 NA
ENDBRANCH   9  20
BRANCH   9  22
ATOM     22  C   UNL     1       3.033  -4.753   0.704  0.00  0.00    +0.091 C 
ATOM     23  N   UNL     1       3.845  -5.382   0.220  0.00  0.00    -0.195 NA
ENDBRANCH   9  22
TORSDOF 5
