REMARK  Name = ZINC01121557
REMARK  5 active torsions:
REMARK  status: ('A' for Active; 'I' for Inactive)
REMARK    1  A    between atoms: C_5  and  C_7
REMARK    2  A    between atoms: C_7  and  S_8
REMARK    3  A    between atoms: S_8  and  C_9
REMARK    4  A    between atoms: C_22  and  C_25
REMARK    5  A    between atoms: C_26  and  C_27
REMARK                            x       y       z     vdW  Elec       q    Type
REMARK                         _______ _______ _______ _____ _____    ______ ____
ROOT
ATOM      1  C   UNL     1       4.447   5.150  -1.428  0.00  0.00    +0.213 A 
ATOM      2  N   UNL     1       5.155   5.585  -2.467  0.00  0.00    -0.184 NA
ATOM      3  C   UNL     1       6.276   6.252  -2.251  0.00  0.00    +0.248 A 
ATOM      4  C   UNL     1       6.681   6.487  -0.918  0.00  0.00    +0.156 A 
ATOM      5  N   UNL     1       5.932   6.024   0.071  0.00  0.00    -0.141 NA
ATOM      6  N   UNL     1       4.846   5.381  -0.183  0.00  0.00    -0.122 NA
ATOM      7  C   UNL     1       7.924   7.242  -0.655  0.00  0.00    +0.028 A 
ATOM      8  C   UNL     1       8.874   6.788   0.251  0.00  0.00    +0.012 A 
ATOM      9  C   UNL     1      10.017   7.531   0.477  0.00  0.00    +0.001 A 
ATOM     10  C   UNL     1      10.220   8.726  -0.192  0.00  0.00    +0.002 A 
ATOM     11  C   UNL     1       9.284   9.187  -1.100  0.00  0.00    +0.024 A 
ATOM     12  C   UNL     1       8.139   8.452  -1.343  0.00  0.00    +0.039 A 
ATOM     13  N   UNL     1       7.189   8.870  -2.280  0.00  0.00    -0.306 N 
ATOM     14  C   UNL     1       7.039   8.109  -3.517  0.00  0.00    +0.287 C 
ATOM     15  O   UNL     1       7.035   6.706  -3.277  0.00  0.00    -0.449 OA
ATOM     16  H   UNL     1       6.641   9.652  -2.112  0.00  0.00    +0.150 HD
ENDROOT
BRANCH  14  17
ATOM     17  C   UNL     1       8.180   8.445  -4.442  0.00  0.00    +0.041 C 
ATOM     18  C   UNL     1       7.934   8.975  -5.636  0.00  0.00    +0.047 C 
BRANCH  18  19
ATOM     19  C   UNL     1       9.047   9.303  -6.540  0.00  0.00    +0.128 A 
ATOM     20  C   UNL     1       8.934   9.842  -7.786  0.00  0.00    +0.049 A 
ATOM     21  C   UNL     1      10.243   9.989  -8.284  0.00  0.00    +0.042 A 
ATOM     22  C   UNL     1      11.082   9.532  -7.333  0.00  0.00    +0.195 A 
ATOM     23  O   UNL     1      10.357   9.118  -6.281  0.00  0.00    -0.464 OA
ENDBRANCH  18  19
ENDBRANCH  14  17
BRANCH   1  24
ATOM     24  S   UNL     1       2.953   4.261  -1.709  0.00  0.00    -0.080 S 
BRANCH  24  25
ATOM     25  C   UNL     1       2.450   3.942   0.000  0.00  0.00    +0.115 C 
BRANCH  25  30
ATOM     26  C   UNL     1      -1.237   3.133   0.031  0.00  0.00    +0.000 A 
ATOM     27  C   UNL     1      -1.218   1.751   0.017  0.00  0.00    +0.003 A 
ATOM     28  C   UNL     1      -0.013   1.076   0.008  0.00  0.00    +0.038 A 
ATOM     29  C   UNL     1       1.177   1.785   0.000  0.00  0.00    +0.127 A 
ATOM     30  C   UNL     1       1.157   3.169   0.008  0.00  0.00    -0.002 A 
ATOM     31  C   UNL     1      -0.051   3.842   0.023  0.00  0.00    +0.007 A 
ATOM     32  F   UNL     1       2.356   1.126  -0.014  0.00  0.00    -0.205 F 
ENDBRANCH  25  30
ENDBRANCH  24  25
ENDBRANCH   1  24
TORSDOF 5
