REMARK  Name = ZINC20708008
REMARK  3 active torsions:
REMARK  status: ('A' for Active; 'I' for Inactive)
REMARK    1  A    between atoms: C_1  and  C_2
REMARK    2  A    between atoms: C_5  and  O_28
REMARK    3  A    between atoms: C_15  and  C_18
REMARK                            x       y       z     vdW  Elec       q    Type
REMARK                         _______ _______ _______ _____ _____    ______ ____
ROOT
ATOM      1  C   UNL     1       3.705  -0.712  -0.029  0.00  0.00    +0.044 C 
ATOM      2  C   UNL     1       2.392   0.027  -0.013  0.00  0.00    -0.045 A 
ATOM      3  C   UNL     1       1.220  -0.664   0.230  0.00  0.00    +0.007 A 
ATOM      4  C   UNL     1       0.016   0.015   0.245  0.00  0.00    +0.047 A 
ATOM      5  C   UNL     1      -0.017   1.376   0.011  0.00  0.00    +0.138 A 
ATOM      6  C   UNL     1       1.162   2.086  -0.244  0.00  0.00    +0.074 A 
ATOM      7  C   UNL     1       2.370   1.388  -0.240  0.00  0.00    -0.013 A 
ATOM      8  C   UNL     1       3.613   2.159  -0.465  0.00  0.00    +0.049 C 
ATOM      9  C   UNL     1       4.825   1.561  -1.076  0.00  0.00    -0.023 C 
ATOM     10  C   UNL     1       5.461   2.504  -1.764  0.00  0.00    -0.030 C 
ATOM     11  C   UNL     1       4.680   3.819  -1.689  0.00  0.00    +0.033 C 
ATOM     12  C   UNL     1       3.253   3.313  -1.452  0.00  0.00    +0.029 C 
ATOM     13  C   UNL     1       2.305   4.201  -0.673  0.00  0.00    +0.105 C 
ATOM     14  N   UNL     1       1.048   3.453  -0.508  0.00  0.00    -0.334 N 
ATOM     15  H   UNL     1       0.083   3.973  -0.594  0.00  0.00    +0.147 HD
ENDROOT
BRANCH  13  16
ATOM     16  C   UNL     1       2.048   5.474  -1.437  0.00  0.00    -0.026 A 
ATOM     17  C   UNL     1       1.170   5.460  -2.519  0.00  0.00    +0.006 A 
ATOM     18  C   UNL     1       0.912   6.593  -3.227  0.00  0.00    +0.009 A 
ATOM     19  C   UNL     1       1.548   7.795  -2.871  0.00  0.00    -0.018 A 
ATOM     20  C   UNL     1       1.311   8.984  -3.582  0.00  0.00    +0.008 A 
ATOM     21  C   UNL     1       1.944  10.129  -3.209  0.00  0.00    +0.001 A 
ATOM     22  C   UNL     1       2.827  10.142  -2.131  0.00  0.00    +0.001 A 
ATOM     23  C   UNL     1       3.081   9.010  -1.419  0.00  0.00    +0.008 A 
ATOM     24  C   UNL     1       2.445   7.808  -1.775  0.00  0.00    -0.018 A 
ATOM     25  C   UNL     1       2.682   6.619  -1.064  0.00  0.00    +0.014 A 
ENDBRANCH  13  16
BRANCH   5  26
ATOM     26  O   UNL     1      -1.209   2.031   0.022  0.00  0.00    -0.505 OA
ATOM     27  H   UNL     1      -1.242   3.115  -0.163  0.00  0.00    +0.292 HD
ENDBRANCH   5  26
TORSDOF 2
