REMARK  Name = ZINC03312019
REMARK  5 active torsions:
REMARK  status: ('A' for Active; 'I' for Inactive)
REMARK    1  A    between atoms: N_12  and  C_16
REMARK    2  A    between atoms: C_16  and  C_17
REMARK    3  A    between atoms: N_19  and  C_20
REMARK    4  A    between atoms: C_20  and  C_21
REMARK    5  A    between atoms: C_21  and  C_22
REMARK                            x       y       z     vdW  Elec       q    Type
REMARK                         _______ _______ _______ _____ _____    ______ ____
ROOT
ATOM      1  C   UNL     1       2.481  -5.450  -9.673  0.00  0.00    +0.000 A 
ATOM      2  C   UNL     1       2.189  -4.666  -8.573  0.00  0.00    +0.000 A 
ATOM      3  C   UNL     1       1.812  -5.259  -7.385  0.00  0.00    +0.006 A 
ATOM      4  C   UNL     1       1.723  -6.638  -7.288  0.00  0.00    -0.012 A 
ATOM      5  C   UNL     1       2.016  -7.423  -8.391  0.00  0.00    -0.042 A 
ATOM      6  C   UNL     1       2.394  -6.825  -9.581  0.00  0.00    +0.004 A 
ATOM      7  C   UNL     1       1.847  -8.886  -8.039  0.00  0.00    +0.038 C 
ATOM      8  C   UNL     1       1.833  -8.932  -6.494  0.00  0.00    +0.045 C 
ATOM      9  C   UNL     1       1.343  -7.524  -6.133  0.00  0.00    +0.138 C 
ATOM     10  C   UNL     1       1.954  -7.048  -4.841  0.00  0.00    +0.251 C 
ATOM     11  O   UNL     1       3.132  -6.905  -4.593  0.00  0.00    -0.272 OA
ATOM     12  N   UNL     1       0.908  -6.813  -4.019  0.00  0.00    -0.215 N 
ATOM     13  C   UNL     1      -0.260  -7.082  -4.618  0.00  0.00    +0.310 C 
ATOM     14  O   UNL     1      -1.341  -6.954  -4.080  0.00  0.00    -0.252 OA
ATOM     15  N   UNL     1      -0.099  -7.508  -5.888  0.00  0.00    -0.281 N 
ATOM     16  H   UNL     1      -0.799  -7.758  -6.511  0.00  0.00    +0.152 HD
ENDROOT
BRANCH  12  17
ATOM     17  C   UNL     1       1.035  -6.330  -2.642  0.00  0.00    +0.213 C 
BRANCH  17  18
ATOM     18  C   UNL     1       1.014  -4.824  -2.633  0.00  0.00    +0.231 C 
ATOM     19  O   UNL     1       0.904  -4.213  -3.675  0.00  0.00    -0.274 OA
ATOM     20  N   UNL     1       1.118  -4.155  -1.468  0.00  0.00    -0.314 N 
ATOM     21  H   UNL     1       1.206  -4.643  -0.635  0.00  0.00    +0.149 HD
BRANCH  20  22
ATOM     22  C   UNL     1       1.098  -2.690  -1.460  0.00  0.00    +0.109 C 
BRANCH  22  23
ATOM     23  C   UNL     1       1.230  -2.186  -0.021  0.00  0.00    +0.055 C 
BRANCH  23  24
ATOM     24  C   UNL     1       1.210  -0.679  -0.013  0.00  0.00    -0.027 A 
ATOM     25  C   UNL     1       2.397   0.028  -0.021  0.00  0.00    +0.006 A 
ATOM     26  C   UNL     1       2.379   1.410  -0.014  0.00  0.00    +0.020 A 
ATOM     27  C   UNL     1       1.172   2.087   0.002  0.00  0.00    +0.042 A 
ATOM     28  C   UNL     1      -0.017   1.379   0.010  0.00  0.00    +0.040 A 
ATOM     29  C   UNL     1       0.002  -0.004   0.002  0.00  0.00    +0.046 A 
ATOM     30 CL   UNL     1      -1.489  -0.893   0.011  0.00  0.00    -0.083 Cl
ATOM     31 CL   UNL     1       1.149   3.822   0.011  0.00  0.00    -0.083 Cl
ENDBRANCH  23  24
ENDBRANCH  22  23
ENDBRANCH  20  22
ENDBRANCH  17  18
ENDBRANCH  12  17
TORSDOF 5
