REMARK  Name = ZINC39665703
REMARK  10 active torsions:
REMARK  status: ('A' for Active; 'I' for Inactive)
REMARK    1  A    between atoms: C_1  and  C_2
REMARK    2  A    between atoms: C_6  and  C_9
REMARK    3  A    between atoms: C_13  and  C_22
REMARK    4  A    between atoms: N_24  and  C_25
REMARK    5  A    between atoms: C_25  and  C_26
REMARK    6  A    between atoms: C_26  and  C_28
REMARK    7  A    between atoms: C_26  and  O_29
REMARK    8  A    between atoms: O_29  and  C_30
REMARK    9  A    between atoms: C_33  and  O_36
REMARK   10  A    between atoms: O_36  and  C_37
REMARK                            x       y       z     vdW  Elec       q    Type
REMARK                         _______ _______ _______ _____ _____    ______ ____
ROOT
ATOM      1  C   UNL     1      -0.278  -1.947   0.866  0.00  0.00    +0.251 C 
ATOM      2  O   UNL     1       0.814  -2.001   1.398  0.00  0.00    -0.270 OA
ATOM      3  N   UNL     1      -1.390  -2.206   1.582  0.00  0.00    -0.296 N 
ATOM      4  C   UNL     1      -2.795  -2.197   1.112  0.00  0.00    +0.121 C 
ATOM      5  C   UNL     1      -3.453  -3.400   1.825  0.00  0.00    +0.100 C 
ATOM      6  C   UNL     1      -2.589  -3.636   3.075  0.00  0.00    -0.004 C 
ATOM      7  C   UNL     1      -1.483  -2.572   3.015  0.00  0.00    +0.115 C 
ATOM      8  C   UNL     1      -1.973  -5.031   3.036  0.00  0.00    -0.010 C 
ATOM      9  C   UNL     1      -1.165  -5.263   4.316  0.00  0.00    -0.082 C 
ATOM     10  N   UNL     1      -2.044  -5.127   5.483  0.00  0.00    +0.379 N 
ATOM     11  C   UNL     1      -2.559  -3.754   5.565  0.00  0.00    -0.082 C 
ATOM     12  C   UNL     1      -3.426  -3.458   4.338  0.00  0.00    -0.010 C 
ATOM     13  H   UNL     1      -2.817  -5.770   5.398  0.00  0.00    -0.086 HD
ATOM     14  H   UNL     1      -1.524  -5.340   6.321  0.00  0.00    -0.086 HD
ENDROOT
BRANCH   1  20
ATOM     15  C   UNL     1      -0.771   1.499  -2.715  0.00  0.00    +0.047 C 
ATOM     16  C   UNL     1      -0.623   0.060  -2.293  0.00  0.00    -0.014 A 
ATOM     17  C   UNL     1      -0.589  -0.939  -3.249  0.00  0.00    +0.007 A 
ATOM     18  C   UNL     1      -0.454  -2.263  -2.873  0.00  0.00    +0.021 A 
ATOM     19  C   UNL     1      -0.352  -2.599  -1.538  0.00  0.00    +0.056 A 
ATOM     20  C   UNL     1      -0.386  -1.596  -0.564  0.00  0.00    +0.091 A 
ATOM     21  C   UNL     1      -0.517  -0.259  -0.952  0.00  0.00    +0.140 A 
ATOM     22  F   UNL     1      -0.545   0.718  -0.019  0.00  0.00    -0.204 F 
ATOM     23 CL   UNL     1      -0.184  -4.262  -1.069  0.00  0.00    -0.083 Cl
ENDBRANCH   1  20
BRANCH   5  24
ATOM     24  C   UNL     1      -3.433  -4.614   0.933  0.00  0.00    +0.218 C 
ATOM     25  O   UNL     1      -2.589  -4.716   0.067  0.00  0.00    -0.275 OA
ATOM     26  N   UNL     1      -4.351  -5.586   1.097  0.00  0.00    -0.312 N 
ATOM     27  H   UNL     1      -5.026  -5.504   1.789  0.00  0.00    +0.149 HD
BRANCH  26  28
ATOM     28  C   UNL     1      -4.331  -6.767   0.230  0.00  0.00    +0.148 C 
BRANCH  28  29
ATOM     29  C   UNL     1      -5.471  -7.708   0.623  0.00  0.00    +0.187 C 
ATOM     30  C   UNL     1      -5.376  -8.996  -0.197  0.00  0.00    +0.053 C 
BRANCH  29  31
ATOM     31  O   UNL     1      -6.725  -7.072   0.367  0.00  0.00    -0.488 OA
BRANCH  31  32
ATOM     32  C   UNL     1      -7.791  -7.490   1.100  0.00  0.00    +0.121 A 
ATOM     33  C   UNL     1      -9.012  -6.844   0.979  0.00  0.00    +0.049 A 
ATOM     34  C   UNL     1     -10.095  -7.269   1.724  0.00  0.00    +0.049 A 
ATOM     35  C   UNL     1      -9.961  -8.342   2.592  0.00  0.00    +0.120 A 
ATOM     36  C   UNL     1      -8.741  -8.989   2.712  0.00  0.00    +0.049 A 
ATOM     37  C   UNL     1      -7.659  -8.567   1.964  0.00  0.00    +0.049 A 
BRANCH  35  38
ATOM     38  O   UNL     1     -11.027  -8.760   3.326  0.00  0.00    -0.495 OA
ATOM     39  C   UNL     1     -10.818  -9.871   4.199  0.00  0.00    +0.277 C 
ENDBRANCH  35  38
ENDBRANCH  31  32
ENDBRANCH  29  31
ENDBRANCH  28  29
ENDBRANCH  26  28
ENDBRANCH   5  24
TORSDOF 7
