REMARK  Name = ZINC62725630
REMARK  5 active torsions:
REMARK  status: ('A' for Active; 'I' for Inactive)
REMARK    1  A    between atoms: C_1  and  C_2
REMARK    2  A    between atoms: C_3  and  N_17
REMARK    3  A    between atoms: C_7  and  S_8
REMARK    4  A    between atoms: S_8  and  C_9
REMARK    5  A    between atoms: N_15  and  C_16
REMARK                            x       y       z     vdW  Elec       q    Type
REMARK                         _______ _______ _______ _____ _____    ______ ____
ROOT
ATOM      1  C   UNL     1      -0.044   1.948   0.280  0.00  0.00    +0.047 C 
ATOM      2  C   UNL     1      -0.069   0.465   0.015  0.00  0.00    -0.016 A 
ATOM      3  C   UNL     1      -0.115  -0.009  -1.289  0.00  0.00    +0.029 A 
ATOM      4  C   UNL     1      -0.138  -1.377  -1.529  0.00  0.00    +0.023 A 
ATOM      5  C   UNL     1      -0.115  -2.267  -0.472  0.00  0.00    +0.003 A 
ATOM      6  C   UNL     1      -0.070  -1.799   0.827  0.00  0.00    +0.015 A 
ATOM      7  C   UNL     1      -0.040  -0.431   1.075  0.00  0.00    +0.020 A 
ENDROOT
BRANCH   3   8
ATOM      8  N   UNL     1      -0.139   0.890  -2.358  0.00  0.00    -0.358 N 
ATOM      9  H   UNL     1      -0.123   1.845  -2.189  0.00  0.00    +0.142 HD
ATOM     10  H   UNL     1      -0.172   0.559  -3.269  0.00  0.00    +0.142 HD
ENDBRANCH   3   8
BRANCH   7  11
ATOM     11  S   UNL     1       0.026   0.164   2.732  0.00  0.00    -0.050 S 
BRANCH  11  12
ATOM     12  C   UNL     1       1.707   0.647   2.944  0.00  0.00    +0.196 A 
ATOM     13  N   UNL     1       2.662   0.476   2.075  0.00  0.00    -0.144 NA
ATOM     14  N   UNL     1       3.844   0.996   2.622  0.00  0.00    -0.226 N 
ATOM     15  H   UNL     1       4.716   1.006   2.198  0.00  0.00    +0.194 HD
ATOM     16  C   UNL     1       3.545   1.479   3.845  0.00  0.00    +0.345 A 
ATOM     17  O   UNL     1       4.322   2.008   4.620  0.00  0.00    -0.245 OA
ATOM     18  N   UNL     1       2.228   1.275   4.053  0.00  0.00    -0.274 N 
ATOM     19  C   UNL     1       1.481   1.654   5.254  0.00  0.00    +0.156 C 
ENDBRANCH  11  12
ENDBRANCH   7  11
TORSDOF 3
