REMARK  Name = ZINC14023326
REMARK  6 active torsions:
REMARK  status: ('A' for Active; 'I' for Inactive)
REMARK    1  A    between atoms: C_1  and  N_57
REMARK    2  A    between atoms: C_7  and  N_12
REMARK    3  A    between atoms: C_8  and  C_9
REMARK    4  A    between atoms: C_13  and  C_15
REMARK    5  A    between atoms: N_20  and  S_22
REMARK    6  A    between atoms: S_22  and  C_25
REMARK                            x       y       z     vdW  Elec       q    Type
REMARK                         _______ _______ _______ _____ _____    ______ ____
ROOT
ATOM      1  N   UNL     1      -1.475   3.382   5.621  0.00  0.00    -0.279 N 
ATOM      2  C   UNL     1      -1.295   3.998   4.436  0.00  0.00    +0.222 C 
ATOM      3  O   UNL     1      -2.119   4.790   4.032  0.00  0.00    -0.275 OA
ATOM      4  H   UNL     1      -0.815   2.749   5.944  0.00  0.00    +0.155 HD
ENDROOT
BRANCH   1  11
ATOM      5  C   UNL     1      -8.004   5.004   9.448  0.00  0.00    -0.096 C 
ATOM      6  C   UNL     1      -5.818   4.120  10.000  0.00  0.00    -0.074 C 
ATOM      7  C   UNL     1      -4.757   3.115   9.541  0.00  0.00    +0.018 C 
ATOM      8  C   UNL     1      -4.208   3.584   8.198  0.00  0.00    -0.027 A 
ATOM      9  C   UNL     1      -4.895   4.489   7.464  0.00  0.00    -0.021 A 
ATOM     10  S   UNL     1      -3.909   4.737   6.017  0.00  0.00    -0.079 S 
ATOM     11  C   UNL     1      -2.604   3.655   6.379  0.00  0.00    +0.084 A 
ATOM     12  C   UNL     1      -2.966   3.123   7.610  0.00  0.00    +0.068 A 
ATOM     13  C   UNL     1      -6.202   5.120   7.827  0.00  0.00    -0.036 C 
ATOM     14  N   UNL     1      -6.805   4.318   8.919  0.00  0.00    +0.381 N 
ATOM     15  H   UNL     1      -7.082   3.402   8.547  0.00  0.00    -0.082 HD
BRANCH  12  16
ATOM     16  C   UNL     1      -2.121   2.136   8.290  0.00  0.00    +0.244 C 
ATOM     17  O   UNL     1      -1.255   2.505   9.061  0.00  0.00    -0.270 OA
ATOM     18  N   UNL     1      -2.304   0.820   8.062  0.00  0.00    -0.325 N 
ATOM     19  H   UNL     1      -2.995   0.526   7.447  0.00  0.00    +0.145 HD
ATOM     20  H   UNL     1      -1.746   0.168   8.512  0.00  0.00    +0.145 HD
ENDBRANCH  12  16
ENDBRANCH   1  11
BRANCH   2  21
ATOM     21  C   UNL     1      -0.068   3.702   3.612  0.00  0.00    +0.091 C 
ATOM     22  C   UNL     1       1.185   4.066   4.412  0.00  0.00    +0.015 C 
ATOM     23  C   UNL     1       2.432   3.735   3.589  0.00  0.00    +0.018 C 
ATOM     24  C   UNL     1       2.423   4.564   2.300  0.00  0.00    +0.109 C 
ATOM     25  N   UNL     1       1.155   4.329   1.596  0.00  0.00    -0.176 NA
ATOM     26  C   UNL     1      -0.105   4.535   2.322  0.00  0.00    +0.122 C 
BRANCH  25  27
ATOM     27  S   UNL     1       1.147   3.847   0.011  0.00  0.00    +0.061 S 
ATOM     28  O   UNL     1       2.382   4.273  -0.549  0.00  0.00    -0.153 OA
ATOM     29  O   UNL     1      -0.109   4.239  -0.526  0.00  0.00    -0.153 OA
BRANCH  27  30
ATOM     30  C   UNL     1       1.171   2.086   0.002  0.00  0.00    +0.105 A 
ATOM     31  C   UNL     1      -0.017   1.378   0.010  0.00  0.00    +0.028 A 
ATOM     32  C   UNL     1       0.002  -0.004   0.002  0.00  0.00    +0.002 A 
ATOM     33  C   UNL     1       1.208  -0.679  -0.014  0.00  0.00    +0.000 A 
ATOM     34  C   UNL     1       2.396   0.029  -0.021  0.00  0.00    +0.002 A 
ATOM     35  C   UNL     1       2.377   1.411  -0.014  0.00  0.00    +0.028 A 
ENDBRANCH  27  30
ENDBRANCH  25  27
ENDBRANCH   2  21
TORSDOF 5
