REMARK  Name = ZINC43236576
REMARK  9 active torsions:
REMARK  status: ('A' for Active; 'I' for Inactive)
REMARK    1  A    between atoms: C_1  and  C_2
REMARK    2  A    between atoms: C_2  and  C_3
REMARK    3  A    between atoms: C_3  and  C_5
REMARK    4  A    between atoms: C_3  and  N_6
REMARK    5  A    between atoms: C_7  and  C_9
REMARK    6  A    between atoms: C_9  and  N_10
REMARK    7  A    between atoms: N_18  and  C_19
REMARK    8  A    between atoms: C_19  and  C_21
REMARK    9  A    between atoms: C_19  and  C_22
REMARK                            x       y       z     vdW  Elec       q    Type
REMARK                         _______ _______ _______ _____ _____    ______ ____
ROOT
ATOM      1  N   UNL     1       1.373   0.141  -6.065  0.00  0.00    -0.291 NA
ATOM      2  C   UNL     1       2.281   1.288  -5.931  0.00  0.00    +0.104 C 
ATOM      3  C   UNL     1       3.190   1.363  -7.163  0.00  0.00    +0.124 C 
ATOM      4  N   UNL     1       2.344   1.376  -8.367  0.00  0.00    -0.283 N 
ATOM      5  C   UNL     1       1.315   0.335  -8.506  0.00  0.00    +0.124 C 
ATOM      6  C   UNL     1       0.481   0.300  -7.221  0.00  0.00    +0.104 C 
ATOM      7  C   UNL     1       2.509   2.317  -9.317  0.00  0.00    +0.303 C 
ATOM      8  O   UNL     1       3.292   3.230  -9.139  0.00  0.00    -0.253 OA
ATOM      9  N   UNL     1       1.805   2.247 -10.464  0.00  0.00    -0.293 N 
ATOM     10  H   UNL     1       1.128   1.562 -10.576  0.00  0.00    +0.151 HD
ENDROOT
BRANCH   9  11
ATOM     11  C   UNL     1       2.063   3.205 -11.542  0.00  0.00    +0.102 C 
ATOM     12  C   UNL     1       1.288   4.497 -11.273  0.00  0.00    +0.033 C 
BRANCH  11  13
ATOM     13  C   UNL     1       1.617   2.616 -12.855  0.00  0.00    -0.020 A 
ATOM     14  C   UNL     1       0.613   1.698 -12.887  0.00  0.00    +0.006 A 
ATOM     15  C   UNL     1       0.186   1.142 -14.092  0.00  0.00    +0.001 A 
ATOM     16  C   UNL     1       0.762   1.502 -15.272  0.00  0.00    +0.008 A 
ATOM     17  C   UNL     1       1.802   2.447 -15.279  0.00  0.00    -0.018 A 
ATOM     18  C   UNL     1       2.231   3.017 -14.054  0.00  0.00    -0.013 A 
ATOM     19  C   UNL     1       3.267   3.967 -14.062  0.00  0.00    +0.009 A 
ATOM     20  C   UNL     1       3.838   4.330 -15.242  0.00  0.00    +0.001 A 
ATOM     21  C   UNL     1       3.412   3.775 -16.447  0.00  0.00    +0.001 A 
ATOM     22  C   UNL     1       2.421   2.842 -16.477  0.00  0.00    +0.008 A 
ENDBRANCH  11  13
ENDBRANCH   9  11
BRANCH   1  23
ATOM     23  C   UNL     1       0.605  -0.069  -4.831  0.00  0.00    +0.180 C 
BRANCH  23  25
ATOM     24  N   UNL     1       1.054  -0.717  -2.487  0.00  0.00    -0.312 N 
ATOM     25  C   UNL     1       1.539  -0.471  -3.719  0.00  0.00    +0.227 C 
ATOM     26  O   UNL     1       2.729  -0.572  -3.934  0.00  0.00    -0.274 OA
ATOM     27  H   UNL     1       0.102  -0.636  -2.315  0.00  0.00    +0.149 HD
BRANCH  24  28
ATOM     28  C   UNL     1       1.962  -1.107  -1.406  0.00  0.00    +0.070 C 
ATOM     29  C   UNL     1       2.195  -2.619  -1.456  0.00  0.00    +0.028 C 
BRANCH  28  31
ATOM     30  C   UNL     1       1.224   0.790   0.042  0.00  0.00    +0.005 C 
ATOM     31  C   UNL     1       1.343  -0.732  -0.058  0.00  0.00    +0.018 C 
ENDBRANCH  28  31
ENDBRANCH  24  28
ENDBRANCH  23  25
ENDBRANCH   1  23
TORSDOF 6
