REMARK  Name = ZINC22018594
REMARK  5 active torsions:
REMARK  status: ('A' for Active; 'I' for Inactive)
REMARK    1  A    between atoms: C_9  and  S_11
REMARK    2  A    between atoms: S_11  and  C_12
REMARK    3  A    between atoms: C_12  and  C_13
REMARK    4  A    between atoms: C_13  and  C_15
REMARK    5  A    between atoms: C_19  and  N_21
REMARK                            x       y       z     vdW  Elec       q    Type
REMARK                         _______ _______ _______ _____ _____    ______ ____
ROOT
ATOM      1  C   UNL     1       1.756   2.096  -0.004  0.00  0.00    +0.156 C 
ENDROOT
BRANCH   1   2
ATOM      2  C   UNL     1       1.984   3.586   0.002  0.00  0.00    +0.173 C 
ATOM      3  O   UNL     1       1.038   4.344   0.015  0.00  0.00    -0.291 OA
BRANCH   2   4
ATOM      4  C   UNL     1       3.355   4.121  -0.008  0.00  0.00    +0.020 A 
ATOM      5  C   UNL     1       4.449   3.249  -0.017  0.00  0.00    +0.012 A 
ATOM      6  C   UNL     1       5.730   3.757  -0.032  0.00  0.00    +0.017 A 
ATOM      7  C   UNL     1       5.935   5.127  -0.026  0.00  0.00    +0.044 A 
ATOM      8  C   UNL     1       4.857   5.996  -0.012  0.00  0.00    +0.140 A 
ATOM      9  C   UNL     1       3.570   5.503  -0.003  0.00  0.00    +0.045 A 
ATOM     10  I   UNL     1       7.887   5.889  -0.041  0.00  0.00    -0.041 I 
BRANCH   8  11
ATOM     11  N   UNL     1       5.087   7.458  -0.006  0.00  0.00    +0.057 N 
ATOM     12  O   UNL     1       4.140   8.224   0.006  0.00  0.00    -0.126 OA
ATOM     13  O   UNL     1       6.224   7.896  -0.015  0.00  0.00    -0.126 OA
ENDBRANCH   8  11
ENDBRANCH   2   4
ENDBRANCH   1   2
BRANCH   1  14
ATOM     14  S   UNL     1      -0.022   1.758   0.012  0.00  0.00    -0.080 S 
BRANCH  14  23
ATOM     15  C   UNL     1      -0.559  -4.509  -0.018  0.00  0.00    +0.002 A 
ATOM     16  C   UNL     1       0.827  -4.455  -0.031  0.00  0.00    +0.002 A 
ATOM     17  C   UNL     1       1.480  -3.243  -0.030  0.00  0.00    +0.030 A 
ATOM     18  C   UNL     1       0.740  -2.057  -0.016  0.00  0.00    +0.090 A 
ATOM     19  C   UNL     1      -0.663  -2.117  -0.003  0.00  0.00    +0.067 A 
ATOM     20  C   UNL     1      -1.303  -3.347  -0.004  0.00  0.00    +0.028 A 
ATOM     21  N   UNL     1      -1.105  -0.804   0.008  0.00  0.00    -0.333 N 
ATOM     22  H   UNL     1      -2.184  -0.588   0.020  0.00  0.00    +0.168 HD
ATOM     23  C   UNL     1       0.002  -0.004   0.002  0.00  0.00    +0.168 A 
ATOM     24  N   UNL     1       1.085  -0.743  -0.018  0.00  0.00    -0.222 NA
ENDBRANCH  14  23
ENDBRANCH   1  14
TORSDOF 5
