REMARK  Name = ZINC05082308
REMARK  7 active torsions:
REMARK  status: ('A' for Active; 'I' for Inactive)
REMARK    1  A    between atoms: C_3  and  C_23
REMARK    2  A    between atoms: C_6  and  C_7
REMARK    3  A    between atoms: N_9  and  C_10
REMARK    4  A    between atoms: C_11  and  N_22
REMARK    5  A    between atoms: C_13  and  S_18
REMARK    6  A    between atoms: S_18  and  C_19
REMARK    7  A    between atoms: C_19  and  C_20
REMARK                            x       y       z     vdW  Elec       q    Type
REMARK                         _______ _______ _______ _____ _____    ______ ____
ROOT
ATOM      1  C   UNL     1       1.239  -0.663  -0.019  0.00  0.00    +0.139 A 
ATOM      2  C   UNL     1       1.908   0.077   0.950  0.00  0.00    +0.146 A 
ATOM      3  N   UNL     1       1.832   1.413   0.934  0.00  0.00    -0.207 NA
ATOM      4  C   UNL     1       1.135   2.045   0.014  0.00  0.00    +0.172 A 
ATOM      5  N   UNL     1       0.462   1.368  -0.958  0.00  0.00    -0.300 N 
ATOM      6  H   UNL     1      -0.061   1.872  -1.646  0.00  0.00    +0.171 HD
ATOM      7  C   UNL     1       0.499   0.020  -0.995  0.00  0.00    +0.275 A 
ATOM      8  O   UNL     1      -0.102  -0.595  -1.863  0.00  0.00    -0.266 OA
ENDROOT
BRANCH   1  11
ATOM      9  C   UNL     1       0.175  -2.797   0.088  0.00  0.00    +0.248 C 
ATOM     10  O   UNL     1      -0.907  -2.242   0.102  0.00  0.00    -0.270 OA
ATOM     11  N   UNL     1       1.305  -2.070  -0.021  0.00  0.00    -0.274 N 
ATOM     12  H   UNL     1       2.163  -2.516  -0.101  0.00  0.00    +0.155 HD
BRANCH   9  18
ATOM     13  C   UNL     1       1.491  -4.911   0.170  0.00  0.00    +0.013 A 
ATOM     14  C   UNL     1       1.555  -6.285   0.272  0.00  0.00    +0.013 A 
ATOM     15  C   UNL     1       0.394  -7.029   0.384  0.00  0.00    +0.055 A 
ATOM     16  C   UNL     1      -0.839  -6.400   0.400  0.00  0.00    +0.013 A 
ATOM     17  C   UNL     1      -0.917  -5.026   0.304  0.00  0.00    +0.013 A 
ATOM     18  C   UNL     1       0.251  -4.270   0.191  0.00  0.00    +0.037 A 
BRANCH  15  19
ATOM     19  C   UNL     1       0.471  -8.530   0.489  0.00  0.00    +0.417 C 
ATOM     20  F   UNL     1       0.429  -9.090  -0.792  0.00  0.00    -0.166 F 
ATOM     21  F   UNL     1       1.667  -8.892   1.118  0.00  0.00    -0.166 F 
ATOM     22  F   UNL     1      -0.611  -9.001   1.240  0.00  0.00    -0.166 F 
ENDBRANCH  15  19
ENDBRANCH   9  18
ENDBRANCH   1  11
BRANCH   2  23
ATOM     23  N   UNL     1       2.647  -0.565   1.927  0.00  0.00    -0.341 N 
ATOM     24  H   UNL     1       2.700  -1.533   1.938  0.00  0.00    +0.144 HD
ATOM     25  H   UNL     1       3.112  -0.046   2.602  0.00  0.00    +0.144 HD
ENDBRANCH   2  23
BRANCH   4  26
ATOM     26  S   UNL     1       1.070   3.806   0.040  0.00  0.00    -0.073 S 
BRANCH  26  27
ATOM     27  C   UNL     1       2.105   4.137   1.488  0.00  0.00    +0.195 C 
BRANCH  27  28
ATOM     28  C   UNL     1       2.194   5.590   1.705  0.00  0.00    +0.074 C 
ATOM     29  N   UNL     1       2.262   6.711   1.873  0.00  0.00    -0.196 NA
ENDBRANCH  27  28
ENDBRANCH  26  27
ENDBRANCH   4  26
TORSDOF 7
