REMARK  Name = ZINC44868783
REMARK  9 active torsions:
REMARK  status: ('A' for Active; 'I' for Inactive)
REMARK    1  A    between atoms: C_1  and  C_2
REMARK    2  A    between atoms: C_3  and  N_9
REMARK    3  A    between atoms: C_4  and  C_8
REMARK    4  A    between atoms: C_10  and  C_12
REMARK    5  A    between atoms: C_12  and  C_14
REMARK    6  A    between atoms: C_12  and  C_17
REMARK    7  A    between atoms: C_14  and  C_15
REMARK    8  A    between atoms: C_14  and  C_16
REMARK    9  A    between atoms: N_18  and  O_19
REMARK                            x       y       z     vdW  Elec       q    Type
REMARK                         _______ _______ _______ _____ _____    ______ ____
ROOT
ATOM      1  N   UNL     1       0.515   0.257  -2.647  0.00  0.00    -0.282 N 
ATOM      2  C   UNL     1       0.460  -0.782  -3.504  0.00  0.00    +0.228 C 
ATOM      3  O   UNL     1       0.533  -1.918  -3.086  0.00  0.00    -0.275 OA
ATOM      4  H   UNL     1       0.382   1.161  -2.972  0.00  0.00    +0.155 HD
ENDROOT
BRANCH   1   7
ATOM      5  C   UNL     1       2.468   1.903  -0.929  0.00  0.00    +0.067 C 
ATOM      6  C   UNL     1       1.618   0.736  -0.496  0.00  0.00    +0.054 A 
ATOM      7  C   UNL     1       0.765   0.030  -1.281  0.00  0.00    +0.077 A 
ATOM      8  C   UNL     1       0.177  -0.966  -0.488  0.00  0.00    +0.081 A 
ATOM      9  N   UNL     1       0.656  -0.864   0.725  0.00  0.00    -0.177 NA
ATOM     10  N   UNL     1       1.571   0.196   0.749  0.00  0.00    -0.280 N 
ATOM     11  H   UNL     1       2.080   0.494   1.520  0.00  0.00    +0.189 HD
ATOM     12  C   UNL     1      -0.835  -1.981  -0.954  0.00  0.00    +0.069 C 
ENDBRANCH   1   7
BRANCH   2  13
ATOM     13  C   UNL     1       0.308  -0.532  -4.983  0.00  0.00    +0.144 C 
BRANCH  13  14
ATOM     14  C   UNL     1       0.854  -1.709  -5.750  0.00  0.00    +0.144 C 
ATOM     15  N   UNL     1       0.059  -2.650  -6.140  0.00  0.00    -0.076 NA
ATOM     16  N   UNL     1       2.199  -1.782  -6.034  0.00  0.00    -0.343 N 
ATOM     17  H   UNL     1       2.796  -1.075  -5.741  0.00  0.00    +0.144 HD
ATOM     18  H   UNL     1       2.550  -2.539  -6.528  0.00  0.00    +0.144 HD
BRANCH  15  19
ATOM     19  O   UNL     1       0.571  -3.756  -6.861  0.00  0.00    -0.408 OA
ATOM     20  H   UNL     1      -0.098  -4.407  -7.110  0.00  0.00    +0.328 HD
ENDBRANCH  15  19
ENDBRANCH  13  14
BRANCH  13  21
ATOM     21  C   UNL     1      -1.173  -0.346  -5.319  0.00  0.00    +0.002 C 
ATOM     22  C   UNL     1      -1.741   0.811  -4.495  0.00  0.00    +0.008 C 
ATOM     23  C   UNL     1      -1.322  -0.032  -6.809  0.00  0.00    +0.008 C 
ENDBRANCH  13  21
ENDBRANCH   2  13
TORSDOF 5
