REMARK  Name = ZINC06442425
REMARK  15 active torsions:
REMARK  status: ('A' for Active; 'I' for Inactive)
REMARK    1  A    between atoms: C_1  and  C_2
REMARK    2  A    between atoms: C_7  and  C_15
REMARK    3  A    between atoms: C_13  and  C_14
REMARK    4  A    between atoms: C_15  and  C_17
REMARK    5  A    between atoms: C_15  and  N_73
REMARK    6  A    between atoms: N_21  and  C_22
REMARK    7  A    between atoms: C_22  and  C_23
REMARK    8  A    between atoms: C_22  and  C_24
REMARK    9  A    between atoms: C_22  and  C_25
REMARK   10  A    between atoms: C_26  and  C_27
REMARK   11  A    between atoms: C_26  and  N_73
REMARK   12  A    between atoms: C_30  and  O_33
REMARK   13  A    between atoms: O_33  and  C_34
REMARK   14  A    between atoms: C_35  and  C_36
REMARK   15  A    between atoms: C_35  and  N_73
REMARK                            x       y       z     vdW  Elec       q    Type
REMARK                         _______ _______ _______ _____ _____    ______ ____
ROOT
ATOM      1  C   UNL     1       3.430   0.646  -0.196  0.00  0.00    +0.040 C 
ENDROOT
BRANCH   1   8
ATOM      2  C   UNL     1       3.800   0.061  -8.142  0.00  0.00    +0.044 C 
ATOM      3  C   UNL     1       3.515   0.081  -6.662  0.00  0.00    -0.046 A 
ATOM      4  C   UNL     1       2.296  -0.386  -6.190  0.00  0.00    +0.004 A 
ATOM      5  C   UNL     1       2.018  -0.377  -4.853  0.00  0.00    +0.010 A 
ATOM      6  C   UNL     1       2.971   0.106  -3.950  0.00  0.00    -0.001 A 
ATOM      7  C   UNL     1       2.709   0.124  -2.510  0.00  0.00    +0.017 A 
ATOM      8  C   UNL     1       3.669   0.609  -1.683  0.00  0.00    +0.011 A 
ATOM      9  C   UNL     1       4.893   1.072  -2.210  0.00  0.00    +0.251 A 
ATOM     10  O   UNL     1       5.744   1.499  -1.449  0.00  0.00    -0.268 OA
ATOM     11  N   UNL     1       5.145   1.055  -3.531  0.00  0.00    -0.322 N 
ATOM     12  H   UNL     1       5.997   1.381  -3.859  0.00  0.00    +0.169 HD
ATOM     13  C   UNL     1       4.209   0.581  -4.425  0.00  0.00    +0.052 A 
ATOM     14  C   UNL     1       4.469   0.562  -5.791  0.00  0.00    -0.024 A 
ATOM     15  C   UNL     1       5.788   1.066  -6.317  0.00  0.00    +0.046 C 
ENDBRANCH   1   8
BRANCH   1  16
ATOM     16  C   UNL     1       1.995   0.283   0.092  0.00  0.00    +0.143 A 
ATOM     17  N   UNL     1       0.928   0.909  -0.342  0.00  0.00    -0.115 NA
ATOM     18  N   UNL     1      -0.107   0.297   0.120  0.00  0.00    -0.023 NA
ATOM     19  N   UNL     1       0.272  -0.704   0.836  0.00  0.00    -0.043 NA
ATOM     20  N   UNL     1       1.561  -0.745   0.843  0.00  0.00    -0.225 N 
BRANCH  20  21
ATOM     21  C   UNL     1       2.396  -1.728   1.539  0.00  0.00    +0.059 C 
ATOM     22  C   UNL     1       1.502  -2.764   2.223  0.00  0.00    +0.036 C 
ATOM     23  C   UNL     1       3.308  -2.428   0.530  0.00  0.00    +0.036 C 
ATOM     24  C   UNL     1       3.251  -1.017   2.591  0.00  0.00    +0.036 C 
ENDBRANCH  20  21
ENDBRANCH   1  16
BRANCH   1  25
ATOM     25  N   UNL     1       3.730   2.005   0.301  0.00  0.00    +0.397 N 
ATOM     26  H   UNL     1       4.637   2.305  -0.075  0.00  0.00    -0.079 HD
BRANCH  25  27
ATOM     27  C   UNL     1       3.800   2.000   1.777  0.00  0.00    -0.041 C 
BRANCH  27  28
ATOM     28  C   UNL     1       4.271   3.352   2.247  0.00  0.00    -0.064 A 
ATOM     29  C   UNL     1       5.623   3.642   2.269  0.00  0.00    +0.005 A 
ATOM     30  C   UNL     1       6.057   4.883   2.694  0.00  0.00    +0.046 A 
ATOM     31  C   UNL     1       5.136   5.834   3.109  0.00  0.00    +0.120 A 
ATOM     32  C   UNL     1       3.781   5.538   3.091  0.00  0.00    +0.046 A 
ATOM     33  C   UNL     1       3.352   4.298   2.660  0.00  0.00    +0.005 A 
BRANCH  31  34
ATOM     34  O   UNL     1       5.562   7.054   3.532  0.00  0.00    -0.495 OA
ATOM     35  C   UNL     1       6.971   7.288   3.524  0.00  0.00    +0.277 C 
ENDBRANCH  31  34
ENDBRANCH  27  28
ENDBRANCH  25  27
BRANCH  25  36
ATOM     36  C   UNL     1       2.687   2.950  -0.152  0.00  0.00    -0.001 C 
BRANCH  36  37
ATOM     37  C   UNL     1       2.966   3.325  -1.585  0.00  0.00    +0.089 A 
ATOM     38  C   UNL     1       2.350   2.813  -2.666  0.00  0.00    +0.042 A 
ATOM     39  C   UNL     1       2.918   3.443  -3.798  0.00  0.00    +0.041 A 
ATOM     40  C   UNL     1       3.846   4.302  -3.340  0.00  0.00    +0.195 A 
ATOM     41  O   UNL     1       3.867   4.230  -1.999  0.00  0.00    -0.470 OA
ENDBRANCH  36  37
ENDBRANCH  25  36
ENDBRANCH   1  25
TORSDOF 9
