REMARK  Name = ZINC09809740
REMARK  12 active torsions:
REMARK  status: ('A' for Active; 'I' for Inactive)
REMARK    1  A    between atoms: C_1  and  C_2
REMARK    2  A    between atoms: C_2  and  O_3
REMARK    3  A    between atoms: O_3  and  C_4
REMARK    4  A    between atoms: C_4  and  C_6
REMARK    5  A    between atoms: C_6  and  N_7
REMARK    6  A    between atoms: C_11  and  S_28
REMARK    7  A    between atoms: N_16  and  C_17
REMARK    8  A    between atoms: C_17  and  C_19
REMARK    9  A    between atoms: C_19  and  C_20
REMARK   10  A    between atoms: C_20  and  S_21
REMARK   11  A    between atoms: S_21  and  C_22
REMARK   12  A    between atoms: S_28  and  N_31
REMARK                            x       y       z     vdW  Elec       q    Type
REMARK                         _______ _______ _______ _____ _____    ______ ____
ROOT
ATOM      1  N   UNL     1      -5.246  -5.098   0.176  0.00  0.00    -0.310 N 
ATOM      2  C   UNL     1      -6.530  -4.987   0.676  0.00  0.00    +0.058 A 
ATOM      3  C   UNL     1      -7.404  -6.012   1.068  0.00  0.00    +0.029 A 
ATOM      4  C   UNL     1      -8.661  -5.722   1.543  0.00  0.00    +0.030 A 
ATOM      5  C   UNL     1      -9.103  -4.413   1.649  0.00  0.00    +0.106 A 
ATOM      6  C   UNL     1      -8.262  -3.383   1.270  0.00  0.00    +0.045 A 
ATOM      7  C   UNL     1      -7.005  -3.672   0.795  0.00  0.00    +0.041 A 
ATOM      8  S   UNL     1      -5.642  -2.693   0.215  0.00  0.00    -0.052 S 
ATOM      9  C   UNL     1      -4.541  -3.982  -0.149  0.00  0.00    +0.167 A 
ATOM     10  N   UNL     1      -3.304  -3.899  -0.634  0.00  0.00    -0.156 NA
ENDROOT
BRANCH   5  11
ATOM     11  S   UNL     1     -10.719  -4.066   2.261  0.00  0.00    +0.056 S 
ATOM     12  O   UNL     1     -11.082  -2.792   1.747  0.00  0.00    -0.153 OA
ATOM     13  O   UNL     1     -11.499  -5.231   2.032  0.00  0.00    -0.153 OA
BRANCH  11  14
ATOM     14  N   UNL     1     -10.594  -3.896   3.904  0.00  0.00    -0.204 NA
ATOM     15  H   UNL     1      -9.732  -3.992   4.337  0.00  0.00    +0.144 HD
ATOM     16  H   UNL     1     -11.383  -3.699   4.432  0.00  0.00    +0.144 HD
ENDBRANCH  11  14
ENDBRANCH   5  11
BRANCH  10  17
ATOM     17  C   UNL     1      -2.773  -2.710  -0.901  0.00  0.00    +0.239 C 
ATOM     18  O   UNL     1      -3.417  -1.698  -0.700  0.00  0.00    -0.274 OA
BRANCH  17  19
ATOM     19  C   UNL     1      -1.374  -2.616  -1.451  0.00  0.00    +0.109 C 
BRANCH  19  20
ATOM     20  C   UNL     1      -1.008  -1.146  -1.666  0.00  0.00    +0.083 C 
BRANCH  20  21
ATOM     21  S   UNL     1       0.677  -1.032  -2.329  0.00  0.00    -0.125 S 
BRANCH  21  22
ATOM     22  C   UNL     1       0.944   0.699  -2.519  0.00  0.00    +0.008 A 
ATOM     23  C   UNL     1      -0.058   1.600  -2.180  0.00  0.00    +0.015 A 
ATOM     24  C   UNL     1       0.157   2.956  -2.326  0.00  0.00    +0.001 A 
ATOM     25  C   UNL     1       1.364   3.417  -2.820  0.00  0.00    +0.000 A 
ATOM     26  C   UNL     1       2.361   2.523  -3.163  0.00  0.00    +0.001 A 
ATOM     27  C   UNL     1       2.156   1.166  -3.014  0.00  0.00    +0.015 A 
ENDBRANCH  21  22
ENDBRANCH  20  21
ENDBRANCH  19  20
ENDBRANCH  17  19
ENDBRANCH  10  17
BRANCH   1  28
ATOM     28  C   UNL     1      -4.642  -6.421  -0.000  0.00  0.00    +0.244 C 
BRANCH  28  29
ATOM     29  C   UNL     1      -3.874  -6.455  -1.296  0.00  0.00    +0.327 C 
ATOM     30  O   UNL     1      -3.969  -5.539  -2.079  0.00  0.00    -0.249 OA
BRANCH  29  31
ATOM     31  O   UNL     1      -3.084  -7.502  -1.582  0.00  0.00    -0.464 OA
BRANCH  31  33
ATOM     32  C   UNL     1      -1.532  -8.735  -2.997  0.00  0.00    +0.048 C 
ATOM     33  C   UNL     1      -2.375  -7.466  -2.848  0.00  0.00    +0.229 C 
ENDBRANCH  31  33
ENDBRANCH  29  31
ENDBRANCH  28  29
ENDBRANCH   1  28
TORSDOF 11
