REMARK  Name = ZINC04764421
REMARK  15 active torsions:
REMARK  status: ('A' for Active; 'I' for Inactive)
REMARK    1  A    between atoms: C_1  and  C_2
REMARK    2  A    between atoms: C_2  and  O_3
REMARK    3  A    between atoms: O_3  and  C_4
REMARK    4  A    between atoms: C_6  and  C_12
REMARK    5  A    between atoms: C_9  and  O_10
REMARK    6  A    between atoms: C_17  and  C_27
REMARK    7  A    between atoms: C_19  and  C_23
REMARK    8  A    between atoms: C_23  and  O_25
REMARK    9  A    between atoms: O_25  and  C_26
REMARK   10  A    between atoms: C_29  and  C_37
REMARK   11  A    between atoms: C_30  and  C_31
REMARK   12  A    between atoms: C_31  and  O_33
REMARK   13  A    between atoms: O_33  and  C_34
REMARK   14  A    between atoms: C_34  and  C_35
REMARK   15  A    between atoms: C_34  and  C_36
REMARK                            x       y       z     vdW  Elec       q    Type
REMARK                         _______ _______ _______ _____ _____    ______ ____
ROOT
ATOM      1  C   UNL     1       2.486   1.128   0.011  0.00  0.00    +0.092 C 
ATOM      2  C   UNL     1       1.201   1.918   0.001  0.00  0.00    +0.025 C 
ATOM      3  C   UNL     1       1.222   3.268  -0.011  0.00  0.00    +0.016 C 
ATOM      4  C   UNL     1      -0.059   4.064  -0.022  0.00  0.00    +0.055 C 
ATOM      5  C   UNL     1      -1.153   3.288   0.714  0.00  0.00    +0.013 C 
ATOM      6  C   UNL     1      -1.335   1.932   0.019  0.00  0.00    +0.171 C 
ATOM      7  C   UNL     1      -0.014   1.211   0.009  0.00  0.00    +0.176 C 
ATOM      8  O   UNL     1       0.002  -0.004   0.002  0.00  0.00    -0.291 OA
ATOM      9  C   UNL     1      -0.741   3.078   2.173  0.00  0.00    +0.009 C 
ATOM     10  N   UNL     1       2.412   3.944  -0.018  0.00  0.00    -0.321 N 
ATOM     11  C   UNL     1       3.564   3.322  -0.408  0.00  0.00    +0.016 C 
ATOM     12  C   UNL     1       3.645   1.980  -0.415  0.00  0.00    +0.065 C 
ATOM     13  C   UNL     1       4.752   4.145  -0.835  0.00  0.00    +0.061 C 
ATOM     14  H   UNL     1       2.447   4.999   0.294  0.00  0.00    +0.152 HD
ENDROOT
BRANCH   1  17
ATOM     15  C   UNL     1       3.060  -1.230   2.907  0.00  0.00    +0.163 A 
ATOM     16  C   UNL     1       2.828  -0.751   1.627  0.00  0.00    +0.054 A 
ATOM     17  C   UNL     1       2.737   0.610   1.403  0.00  0.00    -0.030 A 
ATOM     18  C   UNL     1       2.882   1.497   2.454  0.00  0.00    +0.028 A 
ATOM     19  C   UNL     1       3.108   1.026   3.735  0.00  0.00    +0.086 A 
ATOM     20  C   UNL     1       3.200  -0.338   3.965  0.00  0.00    +0.177 A 
ATOM     21 CL   UNL     1       3.283   2.143   5.052  0.00  0.00    -0.080 Cl
BRANCH  20  22
ATOM     22  O   UNL     1       3.428  -0.803   5.223  0.00  0.00    -0.502 OA
ATOM     23  H   UNL     1       3.538  -0.097   6.059  0.00  0.00    +0.292 HD
ENDBRANCH  20  22
BRANCH  15  24
ATOM     24  O   UNL     1       3.151  -2.569   3.127  0.00  0.00    -0.489 OA
BRANCH  24  26
ATOM     25  C   UNL     1       3.129  -4.884   2.435  0.00  0.00    +0.048 C 
ATOM     26  C   UNL     1       2.997  -3.425   1.994  0.00  0.00    +0.226 C 
ENDBRANCH  24  26
ENDBRANCH  15  24
ENDBRANCH   1  17
BRANCH   6  27
ATOM     27  C   UNL     1      -2.351   1.112   0.772  0.00  0.00    +0.318 C 
ATOM     28  O   UNL     1      -2.887   1.568   1.754  0.00  0.00    -0.250 OA
BRANCH  27  29
ATOM     29  O   UNL     1      -2.661  -0.124   0.351  0.00  0.00    -0.467 OA
ATOM     30  C   UNL     1      -3.648  -0.856   1.125  0.00  0.00    +0.280 C 
ENDBRANCH  27  29
ENDBRANCH   6  27
BRANCH  12  31
ATOM     31  C   UNL     1       4.846   1.359  -0.832  0.00  0.00    +0.338 C 
ATOM     32  O   UNL     1       5.793   2.039  -1.180  0.00  0.00    -0.245 OA
BRANCH  31  33
ATOM     33  O   UNL     1       4.941   0.013  -0.844  0.00  0.00    -0.459 OA
BRANCH  33  34
ATOM     34  C   UNL     1       6.183  -0.545  -1.277  0.00  0.00    +0.171 C 
ATOM     35  C   UNL     1       7.109  -0.723  -0.072  0.00  0.00    +0.052 C 
ATOM     36  C   UNL     1       5.930  -1.906  -1.930  0.00  0.00    +0.052 C 
ENDBRANCH  33  34
ENDBRANCH  31  33
ENDBRANCH  12  31
TORSDOF 9
