REMARK  Name = ZINC39372016
REMARK  7 active torsions:
REMARK  status: ('A' for Active; 'I' for Inactive)
REMARK    1  A    between atoms: C_4  and  C_7
REMARK    2  A    between atoms: C_7  and  C_8
REMARK    3  A    between atoms: C_8  and  C_9
REMARK    4  A    between atoms: C_9  and  C_16
REMARK    5  A    between atoms: N_19  and  C_22
REMARK    6  A    between atoms: C_22  and  C_23
REMARK    7  A    between atoms: C_28  and  C_29
REMARK                            x       y       z     vdW  Elec       q    Type
REMARK                         _______ _______ _______ _____ _____    ______ ____
ROOT
ATOM      1  C   UNL     1       6.199  -2.301   2.556  0.00  0.00    +0.018 C 
ATOM      2  C   UNL     1       5.078  -3.055   3.278  0.00  0.00    -0.013 C 
ATOM      3  C   UNL     1       5.509  -3.342   4.718  0.00  0.00    -0.078 C 
ATOM      4  N   UNL     1       6.727  -4.162   4.713  0.00  0.00    +0.380 N 
ATOM      5  C   UNL     1       7.825  -3.417   4.086  0.00  0.00    -0.078 C 
ATOM      6  C   UNL     1       7.484  -3.132   2.622  0.00  0.00    -0.013 C 
ATOM      7  H   UNL     1       6.558  -5.011   4.194  0.00  0.00    -0.082 HD
ENDROOT
BRANCH   1   8
ATOM      8  C   UNL     1       5.807  -2.080   1.094  0.00  0.00    +0.115 C 
ATOM      9  C   UNL     1       6.933  -1.408   0.333  0.00  0.00    +0.244 C 
ATOM     10  O   UNL     1       7.415  -0.317   0.551  0.00  0.00    -0.273 OA
ATOM     11  N   UNL     1       7.287  -2.275  -0.636  0.00  0.00    -0.238 N 
ATOM     12  C   UNL     1       6.549  -3.391  -0.593  0.00  0.00    +0.307 C 
ATOM     13  O   UNL     1       6.684  -4.319  -1.365  0.00  0.00    -0.252 OA
ATOM     14  N   UNL     1       5.642  -3.369   0.401  0.00  0.00    -0.285 N 
ATOM     15  H   UNL     1       7.989  -2.111  -1.284  0.00  0.00    +0.159 HD
ATOM     16  H   UNL     1       5.005  -4.067   0.618  0.00  0.00    +0.151 HD
BRANCH   8  17
ATOM     17  C   UNL     1       4.525  -1.251   1.001  0.00  0.00    +0.040 C 
BRANCH  17  18
ATOM     18  C   UNL     1       4.117  -1.105  -0.466  0.00  0.00    +0.038 C 
BRANCH  18  22
ATOM     19  C   UNL     1       0.536   1.209  -0.727  0.00  0.00    +0.000 A 
ATOM     20  C   UNL     1       1.768   1.835  -0.766  0.00  0.00    +0.000 A 
ATOM     21  C   UNL     1       2.926   1.086  -0.681  0.00  0.00    +0.003 A 
ATOM     22  C   UNL     1       2.853  -0.288  -0.557  0.00  0.00    -0.047 A 
ATOM     23  C   UNL     1       1.621  -0.914  -0.518  0.00  0.00    +0.003 A 
ATOM     24  C   UNL     1       0.463  -0.166  -0.604  0.00  0.00    +0.000 A 
ENDBRANCH  18  22
ENDBRANCH  17  18
ENDBRANCH   8  17
ENDBRANCH   1   8
BRANCH   4  25
ATOM     25  C   UNL     1       7.093  -4.500   6.095  0.00  0.00    -0.063 C 
BRANCH  25  26
ATOM     26  C   UNL     1       6.024  -5.417   6.695  0.00  0.00    +0.066 C 
ATOM     27  C   UNL     1       6.043  -6.774   6.020  0.00  0.00    +0.115 C 
ATOM     28  N   UNL     1       6.325  -7.631   6.946  0.00  0.00    -0.161 NA
ATOM     29  N   UNL     1       6.504  -7.034   8.189  0.00  0.00    -0.153 NA
ATOM     30  C   UNL     1       6.346  -5.736   8.142  0.00  0.00    +0.077 C 
BRANCH  30  31
ATOM     31  C   UNL     1       6.458  -4.783   9.257  0.00  0.00    -0.001 A 
ATOM     32  C   UNL     1       6.254  -3.417   9.037  0.00  0.00    +0.012 A 
ATOM     33  C   UNL     1       6.360  -2.530  10.086  0.00  0.00    +0.039 A 
ATOM     34  C   UNL     1       6.668  -2.989  11.358  0.00  0.00    +0.123 A 
ATOM     35  C   UNL     1       6.872  -4.342  11.583  0.00  0.00    +0.039 A 
ATOM     36  C   UNL     1       6.763  -5.240  10.544  0.00  0.00    +0.012 A 
ATOM     37  F   UNL     1       6.772  -2.113  12.382  0.00  0.00    -0.205 F 
ENDBRANCH  30  31
ENDBRANCH  25  26
ENDBRANCH   4  25
TORSDOF 7
