REMARK  Name = ZINC54689922
REMARK  6 active torsions:
REMARK  status: ('A' for Active; 'I' for Inactive)
REMARK    1  A    between atoms: C_1  and  C_2
REMARK    2  A    between atoms: C_7  and  S_10
REMARK    3  A    between atoms: S_10  and  C_11
REMARK    4  A    between atoms: C_11  and  C_12
REMARK    5  A    between atoms: N_14  and  C_15
REMARK    6  A    between atoms: C_18  and  N_22
REMARK                            x       y       z     vdW  Elec       q    Type
REMARK                         _______ _______ _______ _____ _____    ______ ____
ROOT
ATOM      1  C   UNL     1       5.692   1.149   4.029  0.00  0.00    +0.227 C 
ATOM      2  O   UNL     1       5.324   1.558   5.110  0.00  0.00    -0.275 OA
ATOM      3  N   UNL     1       6.752   0.321   3.946  0.00  0.00    -0.282 N 
ATOM      4  H   UNL     1       7.002  -0.064   3.092  0.00  0.00    +0.155 HD
ENDROOT
BRANCH   3   5
ATOM      5  C   UNL     1       7.495   0.016   5.096  0.00  0.00    +0.071 A 
ATOM      6  C   UNL     1       7.159  -1.090   5.867  0.00  0.00    +0.065 A 
ATOM      7  C   UNL     1       7.890  -1.391   7.000  0.00  0.00    +0.044 A 
ATOM      8  C   UNL     1       8.961  -0.587   7.369  0.00  0.00    +0.027 A 
ATOM      9  C   UNL     1       9.297   0.519   6.599  0.00  0.00    +0.044 A 
ATOM     10  C   UNL     1       8.569   0.816   5.462  0.00  0.00    +0.065 A 
ATOM     11 CL   UNL     1       8.994   2.194   4.495  0.00  0.00    -0.082 Cl
ATOM     12 CL   UNL     1       5.819  -2.095   5.407  0.00  0.00    -0.082 Cl
BRANCH   8  13
ATOM     13  N   UNL     1       9.702  -0.891   8.516  0.00  0.00    -0.358 N 
ATOM     14  H   UNL     1       9.467  -1.664   9.054  0.00  0.00    +0.142 HD
ATOM     15  H   UNL     1      10.450  -0.330   8.773  0.00  0.00    +0.142 HD
ENDBRANCH   8  13
ENDBRANCH   3   5
BRANCH   1  16
ATOM     16  C   UNL     1       4.964   1.567   2.777  0.00  0.00    +0.165 C 
BRANCH  16  17
ATOM     17  S   UNL     1       3.595   2.674   3.216  0.00  0.00    -0.148 S 
BRANCH  17  23
ATOM     18  C   UNL     1       2.143   5.030  -0.454  0.00  0.00    +0.007 C 
ATOM     19  C   UNL     1       1.082   4.459   0.489  0.00  0.00    -0.013 C 
ATOM     20  C   UNL     1       0.481   3.193  -0.125  0.00  0.00    +0.003 C 
ATOM     21  C   UNL     1       1.586   2.156  -0.338  0.00  0.00    +0.001 C 
ATOM     22  C   UNL     1       2.231   1.814   1.007  0.00  0.00    +0.014 C 
ATOM     23  C   UNL     1       2.831   3.080   1.621  0.00  0.00    +0.047 C 
ATOM     24  C   UNL     1       1.727   4.117   1.834  0.00  0.00    +0.017 C 
ENDBRANCH  17  23
ENDBRANCH  16  17
ENDBRANCH   1  16
TORSDOF 5
