REMARK  Name = ZINC39663779
REMARK  14 active torsions:
REMARK  status: ('A' for Active; 'I' for Inactive)
REMARK    1  A    between atoms: C_1  and  C_2
REMARK    2  A    between atoms: C_2  and  C_3
REMARK    3  A    between atoms: C_3  and  C_4
REMARK    4  A    between atoms: C_3  and  C_6
REMARK    5  A    between atoms: C_4  and  C_5
REMARK    6  A    between atoms: C_10  and  C_19
REMARK    7  A    between atoms: N_21  and  C_22
REMARK    8  A    between atoms: C_22  and  C_23
REMARK    9  A    between atoms: C_23  and  C_25
REMARK   10  A    between atoms: C_23  and  N_33
REMARK   11  A    between atoms: C_28  and  O_31
REMARK   12  A    between atoms: O_31  and  C_32
REMARK   13  A    between atoms: N_33  and  C_34
REMARK   14  A    between atoms: N_33  and  C_35
REMARK                            x       y       z     vdW  Elec       q    Type
REMARK                         _______ _______ _______ _____ _____    ______ ____
ROOT
ATOM      1  C   UNL     1      -1.615  -2.643   0.523  0.00  0.00    +0.219 C 
ATOM      2  O   UNL     1      -2.147  -3.481  -0.174  0.00  0.00    -0.275 OA
ATOM      3  N   UNL     1      -0.910  -3.017   1.609  0.00  0.00    -0.300 N 
ATOM      4  C   UNL     1      -0.202  -2.147   2.577  0.00  0.00    +0.121 C 
ATOM      5  C   UNL     1      -0.464  -2.799   3.953  0.00  0.00    +0.100 C 
ATOM      6  C   UNL     1      -0.769  -4.272   3.638  0.00  0.00    -0.004 C 
ATOM      7  C   UNL     1      -0.675  -4.393   2.110  0.00  0.00    +0.115 C 
ATOM      8  C   UNL     1      -2.176  -4.633   4.104  0.00  0.00    -0.010 C 
ATOM      9  C   UNL     1      -2.435  -6.117   3.831  0.00  0.00    -0.082 C 
ATOM     10  N   UNL     1      -1.440  -6.928   4.543  0.00  0.00    +0.379 N 
ATOM     11  C   UNL     1      -0.097  -6.642   4.024  0.00  0.00    -0.082 C 
ATOM     12  C   UNL     1       0.261  -5.180   4.304  0.00  0.00    -0.010 C 
ATOM     13  H   UNL     1      -1.471  -6.709   5.528  0.00  0.00    -0.086 HD
ATOM     14  H   UNL     1      -1.648  -7.906   4.412  0.00  0.00    -0.086 HD
ENDROOT
BRANCH   5  15
ATOM     15  C   UNL     1       0.758  -2.688   4.827  0.00  0.00    +0.218 C 
ATOM     16  O   UNL     1       1.857  -2.587   4.324  0.00  0.00    -0.275 OA
ATOM     17  N   UNL     1       0.631  -2.702   6.169  0.00  0.00    -0.316 N 
ATOM     18  H   UNL     1      -0.248  -2.783   6.572  0.00  0.00    +0.149 HD
BRANCH  17  19
ATOM     19  C   UNL     1       1.819  -2.595   7.019  0.00  0.00    +0.093 C 
BRANCH  19  20
ATOM     20  C   UNL     1       1.414  -2.761   8.485  0.00  0.00    -0.021 C 
BRANCH  20  21
ATOM     21  C   UNL     1       0.889  -4.156   8.706  0.00  0.00    -0.059 A 
ATOM     22  C   UNL     1       1.771  -5.208   8.872  0.00  0.00    +0.005 A 
ATOM     23  C   UNL     1       1.292  -6.487   9.074  0.00  0.00    +0.046 A 
ATOM     24  C   UNL     1      -0.075  -6.717   9.112  0.00  0.00    +0.120 A 
ATOM     25  C   UNL     1      -0.959  -5.660   8.946  0.00  0.00    +0.046 A 
ATOM     26  C   UNL     1      -0.474  -4.381   8.749  0.00  0.00    +0.005 A 
BRANCH  24  27
ATOM     27  O   UNL     1      -0.549  -7.975   9.310  0.00  0.00    -0.495 OA
ATOM     28  C   UNL     1      -1.969  -8.137   9.337  0.00  0.00    +0.277 C 
ENDBRANCH  24  27
ENDBRANCH  20  21
BRANCH  20  29
ATOM     29  N   UNL     1       2.584  -2.536   9.345  0.00  0.00    +0.382 N 
ATOM     30  C   UNL     1       3.029  -1.143   9.211  0.00  0.00    -0.096 C 
ATOM     31  C   UNL     1       2.223  -2.804  10.743  0.00  0.00    -0.096 C 
ATOM     32  H   UNL     1       3.330  -3.156   9.066  0.00  0.00    -0.082 HD
ENDBRANCH  20  29
ENDBRANCH  19  20
ENDBRANCH  17  19
ENDBRANCH   5  15
BRANCH   1  33
ATOM     33  C   UNL     1      -1.742  -1.182   0.174  0.00  0.00    +0.075 C 
BRANCH  33  35
ATOM     34  C   UNL     1      -0.467   0.917  -0.284  0.00  0.00    +0.004 C 
ATOM     35  C   UNL     1      -0.350  -0.593  -0.066  0.00  0.00    +0.009 C 
ENDBRANCH  33  35
BRANCH  33  36
ATOM     36  C   UNL     1      -2.585  -1.032  -1.094  0.00  0.00    +0.009 C 
ATOM     37  C   UNL     1      -4.024  -1.465  -0.804  0.00  0.00    +0.004 C 
ENDBRANCH  33  36
ENDBRANCH   1  33
TORSDOF 9
