REMARK  Name = ZINC55332873
REMARK  4 active torsions:
REMARK  status: ('A' for Active; 'I' for Inactive)
REMARK    1  A    between atoms: C_1  and  C_2
REMARK    2  A    between atoms: C_5  and  C_8
REMARK    3  A    between atoms: C_9  and  C_14
REMARK    4  A    between atoms: C_12  and  N_13
REMARK                            x       y       z     vdW  Elec       q    Type
REMARK                         _______ _______ _______ _____ _____    ______ ____
ROOT
ATOM      1  C   UNL     1       0.061  -4.254  -0.021  0.00  0.00    +0.071 A 
ATOM      2  C   UNL     1      -0.992  -5.146   0.470  0.00  0.00    +0.126 A 
ATOM      3  N   UNL     1      -0.578  -6.375   0.278  0.00  0.00    -0.075 NA
ATOM      4  O   UNL     1       0.702  -6.339  -0.319  0.00  0.00    -0.339 OA
ATOM      5  C   UNL     1       1.073  -5.062  -0.499  0.00  0.00    +0.224 A 
ENDROOT
BRANCH   2   6
ATOM      6  C   UNL     1      -2.284  -4.735   1.073  0.00  0.00    +0.041 A 
ATOM      7  C   UNL     1      -2.594  -3.383   1.210  0.00  0.00    +0.028 A 
ATOM      8  C   UNL     1      -3.798  -3.007   1.771  0.00  0.00    +0.019 A 
ATOM      9  C   UNL     1      -4.697  -3.969   2.198  0.00  0.00    +0.018 A 
ATOM     10  C   UNL     1      -4.397  -5.312   2.065  0.00  0.00    +0.040 A 
ATOM     11  C   UNL     1      -3.196  -5.701   1.499  0.00  0.00    +0.133 A 
ATOM     12  F   UNL     1      -2.906  -7.014   1.364  0.00  0.00    -0.205 F 
ATOM     13 BR   UNL     1      -4.219  -1.173   1.957  0.00  0.00    -0.050 Br
ENDBRANCH   2   6
BRANCH   1  18
ATOM     14  C   UNL     1      -0.018   1.503   0.010  0.00  0.00    +0.044 C 
ATOM     15  C   UNL     1       0.002  -0.004   0.002  0.00  0.00    -0.050 A 
ATOM     16  C   UNL     1       0.006  -0.686  -1.201  0.00  0.00    +0.004 A 
ATOM     17  C   UNL     1       0.025  -2.066  -1.216  0.00  0.00    +0.009 A 
ATOM     18  C   UNL     1       0.041  -2.773  -0.013  0.00  0.00    -0.011 A 
ATOM     19  C   UNL     1       0.037  -2.079   1.197  0.00  0.00    +0.009 A 
ATOM     20  C   UNL     1       0.023  -0.699   1.198  0.00  0.00    +0.004 A 
ENDBRANCH   1  18
BRANCH   5  21
ATOM     21  N   UNL     1       2.257  -4.633  -1.060  0.00  0.00    -0.327 N 
ATOM     22  H   UNL     1       2.437  -3.683  -1.146  0.00  0.00    +0.145 HD
ATOM     23  H   UNL     1       2.911  -5.280  -1.369  0.00  0.00    +0.145 HD
ENDBRANCH   5  21
TORSDOF 3
