REMARK  Name = ZINC11377520
REMARK  13 active torsions:
REMARK  status: ('A' for Active; 'I' for Inactive)
REMARK    1  A    between atoms: C_1  and  C_2
REMARK    2  A    between atoms: C_2  and  C_3
REMARK    3  A    between atoms: C_3  and  C_4
REMARK    4  A    between atoms: C_4  and  N_5
REMARK    5  A    between atoms: N_5  and  C_6
REMARK    6  A    between atoms: C_7  and  N_18
REMARK    7  A    between atoms: N_8  and  C_15
REMARK    8  A    between atoms: C_15  and  C_16
REMARK    9  A    between atoms: C_16  and  C_17
REMARK   10  A    between atoms: C_19  and  C_21
REMARK   11  A    between atoms: C_21  and  S_22
REMARK   12  A    between atoms: S_22  and  C_23
REMARK   13  A    between atoms: N_27  and  C_28
REMARK                            x       y       z     vdW  Elec       q    Type
REMARK                         _______ _______ _______ _____ _____    ______ ____
ROOT
ATOM      1  N   UNL     1      -0.160  -5.512   0.337  0.00  0.00    -0.264 N 
ATOM      2  C   UNL     1       0.861  -4.638   0.459  0.00  0.00    +0.230 C 
ATOM      3  O   UNL     1       1.988  -5.045   0.654  0.00  0.00    -0.274 OA
ENDROOT
BRANCH   1   4
ATOM      4  C   UNL     1       0.096  -6.900   0.338  0.00  0.00    +0.140 A 
ATOM      5  C   UNL     1       0.863  -7.473  -0.656  0.00  0.00    +0.127 A 
ATOM      6  N   UNL     1       1.094  -8.829  -0.628  0.00  0.00    -0.280 N 
ATOM      7  C   UNL     1       0.578  -9.587   0.356  0.00  0.00    +0.331 A 
ATOM      8  O   UNL     1       0.794 -10.784   0.363  0.00  0.00    -0.246 OA
ATOM      9  N   UNL     1      -0.172  -9.046   1.332  0.00  0.00    -0.273 N 
ATOM     10  H   UNL     1      -0.547  -9.633   2.050  0.00  0.00    +0.173 HD
ATOM     11  C   UNL     1      -0.424  -7.723   1.355  0.00  0.00    +0.277 A 
ATOM     12  O   UNL     1      -1.101  -7.242   2.247  0.00  0.00    -0.266 OA
BRANCH   5  13
ATOM     13  N   UNL     1       1.390  -6.698  -1.661  0.00  0.00    -0.343 N 
ATOM     14  H   UNL     1       1.132  -5.766  -1.742  0.00  0.00    +0.144 HD
ATOM     15  H   UNL     1       2.020  -7.083  -2.291  0.00  0.00    +0.144 HD
ENDBRANCH   5  13
BRANCH   6  16
ATOM     16  C   UNL     1       1.908  -9.450  -1.676  0.00  0.00    +0.128 C 
BRANCH  16  17
ATOM     17  C   UNL     1       3.377  -9.448  -1.249  0.00  0.00    +0.018 C 
ATOM     18  C   UNL     1       4.227 -10.097  -2.344  0.00  0.00    +0.005 C 
ENDBRANCH  16  17
ENDBRANCH   6  16
ENDBRANCH   1   4
BRANCH   1  19
ATOM     19  C   UNL     1      -1.533  -5.020   0.203  0.00  0.00    +0.114 C 
BRANCH  19  20
ATOM     20  C   UNL     1      -1.869  -4.842  -1.279  0.00  0.00    +0.019 C 
BRANCH  20  22
ATOM     21  C   UNL     1      -3.640  -4.151  -2.900  0.00  0.00    +0.004 C 
ATOM     22  C   UNL     1      -3.304  -4.329  -1.418  0.00  0.00    -0.002 C 
ENDBRANCH  20  22
ENDBRANCH  19  20
ENDBRANCH   1  19
BRANCH   2  23
ATOM     23  C   UNL     1       0.602  -3.158   0.353  0.00  0.00    +0.173 C 
BRANCH  23  24
ATOM     24  S   UNL     1       2.162  -2.255   0.558  0.00  0.00    -0.077 S 
BRANCH  24  25
ATOM     25  C   UNL     1       1.697  -0.562   0.410  0.00  0.00    +0.194 A 
ATOM     26  N   UNL     1       0.485  -0.111   0.199  0.00  0.00    -0.121 NA
ATOM     27  N   UNL     1       0.546   1.288   0.146  0.00  0.00    -0.112 NA
ATOM     28  C   UNL     1       1.794   1.646   0.327  0.00  0.00    +0.221 A 
ATOM     29  N   UNL     1       2.538   0.513   0.495  0.00  0.00    -0.287 N 
ATOM     30  N   UNL     1       2.274   2.949   0.345  0.00  0.00    -0.300 N 
ATOM     31  C   UNL     1       3.240   3.175  -0.761  0.00  0.00    +0.108 C 
ATOM     32  C   UNL     1       3.250   4.717  -0.913  0.00  0.00    +0.020 C 
ATOM     33  C   UNL     1       1.772   5.098  -0.667  0.00  0.00    +0.020 C 
ATOM     34  C   UNL     1       1.180   3.920   0.130  0.00  0.00    +0.108 C 
BRANCH  29  35
ATOM     35  C   UNL     1       3.984   0.459   0.725  0.00  0.00    +0.093 C 
ATOM     36  C   UNL     1       4.688  -0.878   0.484  0.00  0.00    +0.027 C 
ATOM     37  C   UNL     1       4.480  -0.368   1.912  0.00  0.00    +0.027 C 
ENDBRANCH  29  35
ENDBRANCH  24  25
ENDBRANCH  23  24
ENDBRANCH   2  23
TORSDOF 11
