REMARK  Name = ZINC41813445
REMARK  7 active torsions:
REMARK  status: ('A' for Active; 'I' for Inactive)
REMARK    1  A    between atoms: C_1  and  C_2
REMARK    2  A    between atoms: C_3  and  S_21
REMARK    3  A    between atoms: C_8  and  C_10
REMARK    4  A    between atoms: C_11  and  C_12
REMARK    5  A    between atoms: C_15  and  N_18
REMARK    6  A    between atoms: S_21  and  C_22
REMARK    7  A    between atoms: C_22  and  C_23
REMARK                            x       y       z     vdW  Elec       q    Type
REMARK                         _______ _______ _______ _____ _____    ______ ____
ROOT
ATOM      1  C   UNL     1      -0.018   1.503   0.010  0.00  0.00    +0.067 C 
ATOM      2  C   UNL     1       0.002  -0.004   0.002  0.00  0.00    +0.061 A 
ATOM      3  C   UNL     1       0.006  -0.784  -1.280  0.00  0.00    +0.070 A 
ATOM      4  S   UNL     1       0.033  -2.455  -0.643  0.00  0.00    -0.045 S 
ATOM      5  C   UNL     1       0.036  -2.040   1.095  0.00  0.00    +0.166 A 
ATOM      6  N   UNL     1       0.022  -0.679   1.085  0.00  0.00    -0.229 NA
ATOM      7  N   UNL     1       0.053  -2.869   2.154  0.00  0.00    -0.261 N 
ATOM      8  C   UNL     1       0.070  -4.204   1.964  0.00  0.00    +0.243 C 
ATOM      9  O   UNL     1       0.071  -4.658   0.836  0.00  0.00    -0.270 OA
ATOM     10  H   UNL     1       0.052  -2.507   3.054  0.00  0.00    +0.157 HD
ENDROOT
BRANCH   8  11
ATOM     11  C   UNL     1       0.088  -5.105   3.115  0.00  0.00    +0.068 C 
ATOM     12  C   UNL     1       0.106  -6.442   2.925  0.00  0.00    +0.013 C 
BRANCH  12  13
ATOM     13  C   UNL     1       0.124  -7.349   4.083  0.00  0.00    -0.025 A 
ATOM     14  C   UNL     1       0.117  -6.831   5.383  0.00  0.00    +0.010 A 
ATOM     15  C   UNL     1       0.135  -7.688   6.463  0.00  0.00    +0.033 A 
ATOM     16  C   UNL     1       0.159  -9.058   6.264  0.00  0.00    +0.126 A 
ATOM     17  C   UNL     1       0.166  -9.578   4.981  0.00  0.00    +0.033 A 
ATOM     18  C   UNL     1       0.142  -8.735   3.891  0.00  0.00    +0.010 A 
BRANCH  16  19
ATOM     19  N   UNL     1       0.178  -9.970   7.429  0.00  0.00    +0.056 N 
ATOM     20  O   UNL     1       0.172  -9.479   8.651  0.00  0.00    -0.126 OA
ATOM     21  O   UNL     1       0.201 -11.274   7.244  0.00  0.00    -0.126 OA
ENDBRANCH  16  19
ENDBRANCH  12  13
ENDBRANCH   8  11
BRANCH   3  22
ATOM     22  S   UNL     1      -0.010  -0.246  -2.851  0.00  0.00    -0.107 S 
BRANCH  22  23
ATOM     23  C   UNL     1       0.007  -1.768  -3.837  0.00  0.00    +0.170 C 
BRANCH  23  24
ATOM     24  C   UNL     1      -0.006  -1.418  -5.302  0.00  0.00    +0.221 C 
ATOM     25  O   UNL     1      -0.025  -0.256  -5.648  0.00  0.00    -0.275 OA
ATOM     26  N   UNL     1       0.003  -2.397  -6.229  0.00  0.00    -0.329 N 
ATOM     27  H   UNL     1       0.018  -3.326  -5.953  0.00  0.00    +0.145 HD
ATOM     28  H   UNL     1      -0.006  -2.171  -7.172  0.00  0.00    +0.145 HD
ENDBRANCH  23  24
ENDBRANCH  22  23
ENDBRANCH   3  22
TORSDOF 6
