REMARK  Name = ZINC05407987
REMARK  5 active torsions:
REMARK  status: ('A' for Active; 'I' for Inactive)
REMARK    1  A    between atoms: C_1  and  C_2
REMARK    2  A    between atoms: C_2  and  C_22
REMARK    3  A    between atoms: N_3  and  N_4
REMARK    4  A    between atoms: C_9  and  N_54
REMARK    5  A    between atoms: C_27  and  O_28
REMARK                            x       y       z     vdW  Elec       q    Type
REMARK                         _______ _______ _______ _____ _____    ______ ____
ROOT
ATOM      1  N   UNL     1      -1.745   7.814  -2.686  0.00  0.00    -0.259 N 
ATOM      2  C   UNL     1      -2.071   6.422  -2.340  0.00  0.00    +0.107 C 
ATOM      3  C   UNL     1      -1.416   6.089  -0.995  0.00  0.00    -0.057 C 
ATOM      4  C   UNL     1       0.252   7.825  -1.287  0.00  0.00    -0.057 C 
ATOM      5  C   UNL     1      -0.335   8.229  -2.644  0.00  0.00    +0.107 C 
ATOM      6  N   UNL     1       0.032   6.376  -1.088  0.00  0.00    +0.389 N 
ATOM      7  H   UNL     1       0.422   5.867  -1.890  0.00  0.00    -0.080 HD
ENDROOT
BRANCH   6   8
ATOM      8  C   UNL     1       0.715   5.928   0.143  0.00  0.00    -0.005 C 
ATOM      9  C   UNL     1      -0.014   6.402   1.377  0.00  0.00    -0.049 A 
ATOM     10  C   UNL     1      -0.309   7.662   1.850  0.00  0.00    +0.003 A 
ATOM     11  C   UNL     1      -1.010   7.811   3.034  0.00  0.00    +0.000 A 
ATOM     12  C   UNL     1      -1.407   6.696   3.750  0.00  0.00    +0.001 A 
ATOM     13  C   UNL     1      -1.116   5.431   3.283  0.00  0.00    +0.009 A 
ATOM     14  C   UNL     1      -0.414   5.273   2.087  0.00  0.00    -0.016 A 
ATOM     15  C   UNL     1       0.026   4.053   1.365  0.00  0.00    -0.016 A 
ATOM     16  C   UNL     1       0.701   4.420   0.204  0.00  0.00    -0.049 A 
ATOM     17  C   UNL     1       1.207   3.454  -0.640  0.00  0.00    +0.003 A 
ATOM     18  C   UNL     1       1.047   2.114  -0.335  0.00  0.00    +0.000 A 
ATOM     19  C   UNL     1       0.378   1.740   0.817  0.00  0.00    +0.001 A 
ATOM     20  C   UNL     1      -0.132   2.699   1.667  0.00  0.00    +0.009 A 
ENDBRANCH   6   8
BRANCH   1  23
ATOM     21  C   UNL     1      -3.792  10.269  -4.604  0.00  0.00    +0.068 C 
ATOM     22  C   UNL     1      -2.792   9.197  -4.252  0.00  0.00    +0.067 C 
ATOM     23  N   UNL     1      -2.752   8.719  -3.047  0.00  0.00    -0.189 NA
BRANCH  22  24
ATOM     24  C   UNL     1      -1.861   8.692  -5.278  0.00  0.00    +0.039 A 
ATOM     25  C   UNL     1      -1.942   7.367  -5.708  0.00  0.00    +0.013 A 
ATOM     26  C   UNL     1      -1.068   6.901  -6.668  0.00  0.00    +0.001 A 
ATOM     27  C   UNL     1      -0.110   7.742  -7.207  0.00  0.00    +0.004 A 
ATOM     28  C   UNL     1      -0.020   9.057  -6.789  0.00  0.00    +0.046 A 
ATOM     29  C   UNL     1      -0.893   9.542  -5.830  0.00  0.00    +0.126 A 
BRANCH  29  30
ATOM     30  O   UNL     1      -0.808  10.835  -5.422  0.00  0.00    -0.506 OA
ATOM     31  H   UNL     1      -0.158  10.985  -4.722  0.00  0.00    +0.292 HD
ENDBRANCH  29  30
ENDBRANCH  22  24
ENDBRANCH   1  23
TORSDOF 4
