REMARK  Name = ZINC51729831
REMARK  5 active torsions:
REMARK  status: ('A' for Active; 'I' for Inactive)
REMARK    1  A    between atoms: C_1  and  C_2
REMARK    2  A    between atoms: N_6  and  S_11
REMARK    3  A    between atoms: C_7  and  C_10
REMARK    4  A    between atoms: S_11  and  C_14
REMARK    5  A    between atoms: C_15  and  N_22
REMARK                            x       y       z     vdW  Elec       q    Type
REMARK                         _______ _______ _______ _____ _____    ______ ____
ROOT
ATOM      1  S   UNL     1       2.872  -4.047  -0.029  0.00  0.00    +0.064 S 
ATOM      2  O   UNL     1       2.928  -4.698   1.233  0.00  0.00    -0.153 OA
ATOM      3  O   UNL     1       2.952  -4.759  -1.256  0.00  0.00    -0.153 OA
ENDROOT
BRANCH   1   8
ATOM      4  C   UNL     1      -0.544   0.556  -0.174  0.00  0.00    +0.007 C 
ATOM      5  C   UNL     1      -0.256  -0.946  -0.135  0.00  0.00    -0.011 C 
ATOM      6  C   UNL     1       0.560  -1.341  -1.368  0.00  0.00    +0.020 C 
ATOM      7  C   UNL     1       0.817  -2.851  -1.343  0.00  0.00    +0.110 C 
ATOM      8  N   UNL     1       1.448  -3.202  -0.063  0.00  0.00    -0.174 NA
ATOM      9  C   UNL     1       0.793  -2.789   1.185  0.00  0.00    +0.077 C 
ATOM     10  C   UNL     1       0.536  -1.280   1.131  0.00  0.00    +0.023 C 
ATOM     11  C   UNL     1      -0.536  -3.533   1.337  0.00  0.00    +0.026 C 
ENDBRANCH   1   8
BRANCH   1  12
ATOM     12  C   UNL     1       4.180  -2.866  -0.045  0.00  0.00    +0.144 A 
ATOM     13  C   UNL     1       4.663  -2.381  -1.254  0.00  0.00    +0.054 A 
ATOM     14  C   UNL     1       5.694  -1.450  -1.263  0.00  0.00    +0.044 A 
ATOM     15  C   UNL     1       6.235  -1.009  -0.070  0.00  0.00    +0.044 A 
ATOM     16  C   UNL     1       5.752  -1.494   1.132  0.00  0.00    +0.042 A 
ATOM     17  C   UNL     1       4.721  -2.418   1.144  0.00  0.00    +0.070 A 
ATOM     18 CL   UNL     1       4.112  -3.018   2.655  0.00  0.00    -0.081 Cl
ATOM     19 CL   UNL     1       7.524   0.155  -0.081  0.00  0.00    -0.083 Cl
BRANCH  13  20
ATOM     20  N   UNL     1       4.115  -2.830  -2.458  0.00  0.00    -0.356 N 
ATOM     21  H   UNL     1       3.256  -3.281  -2.461  0.00  0.00    +0.142 HD
ATOM     22  H   UNL     1       4.592  -2.689  -3.290  0.00  0.00    +0.142 HD
ENDBRANCH  13  20
ENDBRANCH   1  12
TORSDOF 3
