REMARK  Name = ZINC08769425
REMARK  10 active torsions:
REMARK  status: ('A' for Active; 'I' for Inactive)
REMARK    1  A    between atoms: C_1  and  C_2
REMARK    2  A    between atoms: C_5  and  C_8
REMARK    3  A    between atoms: C_8  and  C_9
REMARK    4  A    between atoms: N_15  and  C_18
REMARK    5  A    between atoms: C_23  and  C_24
REMARK    6  A    between atoms: N_28  and  C_29
REMARK    7  A    between atoms: C_29  and  C_30
REMARK    8  A    between atoms: C_30  and  C_31
REMARK    9  A    between atoms: C_38  and  O_41
REMARK   10  A    between atoms: O_41  and  C_42
REMARK                            x       y       z     vdW  Elec       q    Type
REMARK                         _______ _______ _______ _____ _____    ______ ____
ROOT
ATOM      1  C   UNL     1      -2.706   2.939   4.739  0.00  0.00    +0.064 C 
ATOM      2  N   UNL     1      -1.936   3.293   5.809  0.00  0.00    -0.286 NA
ENDROOT
BRANCH   1   3
ATOM      3  C   UNL     1      -4.084   3.168   4.764  0.00  0.00    +0.210 C 
ATOM      4  C   UNL     1      -4.762   3.635   5.983  0.00  0.00    +0.238 C 
ATOM      5  O   UNL     1      -4.136   3.836   7.008  0.00  0.00    -0.274 OA
ATOM      6  N   UNL     1      -6.094   3.841   5.934  0.00  0.00    -0.238 N 
ATOM      7  C   UNL     1      -6.796   3.619   4.814  0.00  0.00    +0.319 C 
ATOM      8  O   UNL     1      -7.995   3.818   4.836  0.00  0.00    -0.251 OA
ATOM      9  N   UNL     1      -6.244   3.188   3.671  0.00  0.00    -0.192 N 
ATOM     10  C   UNL     1      -4.920   2.947   3.575  0.00  0.00    +0.245 C 
ATOM     11  O   UNL     1      -4.430   2.557   2.532  0.00  0.00    -0.274 OA
ATOM     12  H   UNL     1      -6.555   4.153   6.729  0.00  0.00    +0.159 HD
BRANCH   9  13
ATOM     13  C   UNL     1      -7.060   2.984   2.550  0.00  0.00    +0.057 A 
ATOM     14  C   UNL     1      -7.647   1.744   2.334  0.00  0.00    +0.024 A 
ATOM     15  C   UNL     1      -8.451   1.546   1.228  0.00  0.00    +0.002 A 
ATOM     16  C   UNL     1      -8.671   2.581   0.337  0.00  0.00    +0.001 A 
ATOM     17  C   UNL     1      -8.088   3.816   0.550  0.00  0.00    +0.014 A 
ATOM     18  C   UNL     1      -7.287   4.022   1.657  0.00  0.00    +0.077 A 
BRANCH  18  19
ATOM     19  C   UNL     1      -6.656   5.370   1.891  0.00  0.00    +0.419 C 
ATOM     20  F   UNL     1      -7.029   6.245   0.865  0.00  0.00    -0.166 F 
ATOM     21  F   UNL     1      -7.090   5.881   3.119  0.00  0.00    -0.166 F 
ATOM     22  F   UNL     1      -5.264   5.238   1.908  0.00  0.00    -0.166 F 
ENDBRANCH  18  19
ENDBRANCH   9  13
ENDBRANCH   1   3
BRANCH   1  27
ATOM     23  C   UNL     1      -0.280   0.506   0.128  0.00  0.00    +0.044 C 
ATOM     24  C   UNL     1      -0.916   1.144   1.336  0.00  0.00    -0.050 A 
ATOM     25  C   UNL     1      -0.508   2.402   1.746  0.00  0.00    +0.004 A 
ATOM     26  C   UNL     1      -1.089   2.994   2.847  0.00  0.00    +0.010 A 
ATOM     27  C   UNL     1      -2.084   2.316   3.558  0.00  0.00    -0.003 A 
ATOM     28  C   UNL     1      -2.486   1.043   3.141  0.00  0.00    +0.010 A 
ATOM     29  C   UNL     1      -1.900   0.466   2.034  0.00  0.00    +0.004 A 
ENDBRANCH   1  27
BRANCH   2  30
ATOM     30  C   UNL     1      -0.491   3.053   5.783  0.00  0.00    +0.146 C 
BRANCH  30  31
ATOM     31  C   UNL     1       0.147   3.647   7.040  0.00  0.00    +0.060 C 
BRANCH  31  32
ATOM     32  C   UNL     1       1.633   3.400   7.013  0.00  0.00    -0.021 A 
ATOM     33  C   UNL     1       2.284   2.380   7.596  0.00  0.00    +0.087 A 
ATOM     34  N   UNL     1       3.627   2.486   7.357  0.00  0.00    -0.360 N 
ATOM     35  H   UNL     1       4.300   1.865   7.677  0.00  0.00    +0.165 HD
ATOM     36  C   UNL     1       3.880   3.606   6.594  0.00  0.00    +0.047 A 
ATOM     37  C   UNL     1       2.641   4.223   6.341  0.00  0.00    +0.006 A 
ATOM     38  C   UNL     1       2.588   5.399   5.589  0.00  0.00    +0.056 A 
ATOM     39  C   UNL     1       3.755   5.941   5.088  0.00  0.00    +0.121 A 
ATOM     40  C   UNL     1       4.978   5.325   5.334  0.00  0.00    +0.047 A 
ATOM     41  C   UNL     1       5.043   4.169   6.080  0.00  0.00    +0.030 A 
BRANCH  39  42
ATOM     42  O   UNL     1       3.708   7.082   4.350  0.00  0.00    -0.495 OA
ATOM     43  C   UNL     1       4.951   7.590   3.861  0.00  0.00    +0.277 C 
ENDBRANCH  39  42
ENDBRANCH  31  32
ENDBRANCH  30  31
ENDBRANCH   2  30
TORSDOF 8
