REMARK  Name = ZINC12554536
REMARK  7 active torsions:
REMARK  status: ('A' for Active; 'I' for Inactive)
REMARK    1  A    between atoms: C_4  and  N_7
REMARK    2  A    between atoms: N_10  and  S_13
REMARK    3  A    between atoms: S_13  and  C_16
REMARK    4  A    between atoms: C_20  and  C_22
REMARK    5  A    between atoms: N_24  and  C_25
REMARK    6  A    between atoms: C_25  and  C_26
REMARK    7  A    between atoms: C_26  and  C_27
REMARK                            x       y       z     vdW  Elec       q    Type
REMARK                         _______ _______ _______ _____ _____    ______ ____
ROOT
ATOM      1  C   UNL     1      -6.376  -4.393  -3.752  0.00  0.00    +0.106 A 
ATOM      2  C   UNL     1      -6.848  -4.900  -2.555  0.00  0.00    +0.028 A 
ATOM      3  C   UNL     1      -6.224  -4.573  -1.364  0.00  0.00    +0.003 A 
ATOM      4  C   UNL     1      -5.123  -3.741  -1.364  0.00  0.00    +0.013 A 
ATOM      5  C   UNL     1      -4.645  -3.222  -2.568  0.00  0.00    +0.039 A 
ATOM      6  C   UNL     1      -5.279  -3.556  -3.766  0.00  0.00    +0.041 A 
ENDROOT
BRANCH   5   7
ATOM      7  C   UNL     1      -3.469  -2.326  -2.575  0.00  0.00    +0.244 C 
ATOM      8  O   UNL     1      -3.051  -1.880  -3.626  0.00  0.00    -0.270 OA
ATOM      9  N   UNL     1      -2.859  -2.005  -1.417  0.00  0.00    -0.311 N 
ATOM     10  H   UNL     1      -3.192  -2.362  -0.578  0.00  0.00    +0.149 HD
BRANCH   9  11
ATOM     11  C   UNL     1      -1.694  -1.118  -1.424  0.00  0.00    +0.109 C 
BRANCH  11  12
ATOM     12  C   UNL     1      -1.197  -0.917   0.009  0.00  0.00    +0.056 C 
BRANCH  12  13
ATOM     13  C   UNL     1       0.002  -0.004   0.002  0.00  0.00    -0.021 A 
ATOM     14  C   UNL     1       1.291  -0.379  -0.012  0.00  0.00    +0.087 A 
ATOM     15  N   UNL     1       2.098   0.726  -0.014  0.00  0.00    -0.360 N 
ATOM     16  H   UNL     1       3.068   0.707  -0.023  0.00  0.00    +0.165 HD
ATOM     17  C   UNL     1       1.329   1.868  -0.001  0.00  0.00    +0.047 A 
ATOM     18  C   UNL     1      -0.018   1.461   0.010  0.00  0.00    +0.003 A 
ATOM     19  C   UNL     1      -1.034   2.417   0.030  0.00  0.00    +0.010 A 
ATOM     20  C   UNL     1      -0.716   3.746   0.030  0.00  0.00    +0.001 A 
ATOM     21  C   UNL     1       0.611   4.153   0.019  0.00  0.00    +0.002 A 
ATOM     22  C   UNL     1       1.631   3.225   0.004  0.00  0.00    +0.026 A 
ENDBRANCH  12  13
ENDBRANCH  11  12
ENDBRANCH   9  11
ENDBRANCH   5   7
BRANCH   1  23
ATOM     23  S   UNL     1      -7.177  -4.816  -5.263  0.00  0.00    +0.061 S 
ATOM     24  O   UNL     1      -8.510  -5.177  -4.929  0.00  0.00    -0.153 OA
ATOM     25  O   UNL     1      -6.877  -3.779  -6.187  0.00  0.00    -0.153 OA
BRANCH  23  29
ATOM     26  N   UNL     1      -4.689  -8.346  -5.957  0.00  0.00    -0.327 N 
ATOM     27  C   UNL     1      -5.759  -8.351  -4.950  0.00  0.00    +0.122 C 
ATOM     28  C   UNL     1      -6.941  -7.520  -5.462  0.00  0.00    +0.128 C 
ATOM     29  N   UNL     1      -6.446  -6.187  -5.838  0.00  0.00    -0.174 NA
ATOM     30  C   UNL     1      -5.289  -6.103  -6.742  0.00  0.00    +0.128 C 
ATOM     31  C   UNL     1      -4.169  -6.990  -6.175  0.00  0.00    +0.122 C 
BRANCH  26  35
ATOM     32  C   UNL     1      -1.629 -10.962  -4.893  0.00  0.00    +0.000 A 
ATOM     33  C   UNL     1      -1.539 -10.236  -6.066  0.00  0.00    +0.002 A 
ATOM     34  C   UNL     1      -2.552  -9.367  -6.422  0.00  0.00    +0.023 A 
ATOM     35  C   UNL     1      -3.663  -9.224  -5.600  0.00  0.00    +0.030 A 
ATOM     36  C   UNL     1      -3.748  -9.951  -4.420  0.00  0.00    +0.023 A 
ATOM     37  C   UNL     1      -2.733 -10.822  -4.072  0.00  0.00    +0.002 A 
ENDBRANCH  26  35
ENDBRANCH  23  29
ENDBRANCH   1  23
TORSDOF 7
