REMARK  Name = ZINC57476322
REMARK  3 active torsions:
REMARK  status: ('A' for Active; 'I' for Inactive)
REMARK    1  A    between atoms: C_3  and  C_9
REMARK    2  A    between atoms: C_9  and  N_10
REMARK    3  A    between atoms: C_12  and  N_17
REMARK                            x       y       z     vdW  Elec       q    Type
REMARK                         _______ _______ _______ _____ _____    ______ ____
ROOT
ATOM      1  N   UNL     1       4.287   2.124   1.306  0.00  0.00    -0.309 N 
ATOM      2  C   UNL     1       3.983   3.069   2.232  0.00  0.00    +0.122 A 
ATOM      3  C   UNL     1       4.539   3.032   3.466  0.00  0.00    +0.142 A 
ATOM      4  C   UNL     1       5.439   2.009   3.797  0.00  0.00    +0.039 A 
ATOM      5  C   UNL     1       5.743   1.060   2.865  0.00  0.00    +0.072 A 
ATOM      6  C   UNL     1       5.143   1.126   1.596  0.00  0.00    +0.252 A 
ATOM      7  O   UNL     1       5.402   0.281   0.754  0.00  0.00    -0.268 OA
ENDROOT
BRANCH   3   8
ATOM      8  N   UNL     1       4.198   4.070   4.463  0.00  0.00    +0.058 N 
ATOM      9  O   UNL     1       3.422   4.952   4.177  0.00  0.00    -0.126 OA
ATOM     10  O   UNL     1       4.695   4.037   5.565  0.00  0.00    -0.126 OA
ENDBRANCH   3   8
BRANCH   1  11
ATOM     11  C   UNL     1       3.671   2.187  -0.022  0.00  0.00    +0.163 C 
BRANCH  11  14
ATOM     12  C   UNL     1      -0.017   1.379   0.010  0.00  0.00    +0.016 A 
ATOM     13  C   UNL     1       1.171   2.087   0.002  0.00  0.00    +0.009 A 
ATOM     14  C   UNL     1       2.377   1.414  -0.013  0.00  0.00    +0.008 A 
ATOM     15  C   UNL     1       2.398   0.030  -0.021  0.00  0.00    +0.129 A 
ATOM     16  C   UNL     1       1.209  -0.679  -0.013  0.00  0.00    +0.054 A 
ATOM     17  C   UNL     1       0.002  -0.004   0.002  0.00  0.00    +0.021 A 
ATOM     18 BR   UNL     1      -1.623  -0.972   0.012  0.00  0.00    -0.050 Br
ATOM     19  F   UNL     1       3.577  -0.629  -0.036  0.00  0.00    -0.205 F 
ENDBRANCH  11  14
ENDBRANCH   1  11
TORSDOF 3
