REMARK  Name = ZINC23265177
REMARK  9 active torsions:
REMARK  status: ('A' for Active; 'I' for Inactive)
REMARK    1  A    between atoms: C_1  and  N_2
REMARK    2  A    between atoms: N_9  and  C_14
REMARK    3  A    between atoms: N_12  and  C_13
REMARK    4  A    between atoms: C_14  and  C_15
REMARK    5  A    between atoms: C_15  and  C_16
REMARK    6  A    between atoms: C_16  and  S_17
REMARK    7  A    between atoms: S_17  and  C_18
REMARK    8  A    between atoms: C_21  and  C_29
REMARK    9  A    between atoms: C_29  and  N_30
REMARK                            x       y       z     vdW  Elec       q    Type
REMARK                         _______ _______ _______ _____ _____    ______ ____
ROOT
ATOM      1  C   UNL     1      -2.851  -2.120  -2.595  0.00  0.00    +0.197 A 
ATOM      2  N   UNL     1      -3.485  -1.000  -2.334  0.00  0.00    -0.122 NA
ATOM      3  N   UNL     1      -2.904  -0.382  -1.369  0.00  0.00    -0.131 NA
ATOM      4  C   UNL     1      -1.867  -1.058  -0.962  0.00  0.00    +0.157 A 
ATOM      5  N   UNL     1      -1.796  -2.193  -1.726  0.00  0.00    -0.257 N 
ATOM      6  C   UNL     1      -0.843  -3.213  -1.637  0.00  0.00    +0.141 A 
ATOM      7  C   UNL     1      -0.226  -3.681  -2.790  0.00  0.00    +0.047 A 
ATOM      8  C   UNL     1       0.719  -4.687  -2.687  0.00  0.00    +0.005 A 
ATOM      9  C   UNL     1       1.006  -5.200  -1.430  0.00  0.00    +0.020 A 
ATOM     10  C   UNL     1       0.349  -4.691  -0.327  0.00  0.00    +0.113 A 
ATOM     11  N   UNL     1      -0.543  -3.728  -0.456  0.00  0.00    -0.237 NA
ENDROOT
BRANCH   1  12
ATOM     12  S   UNL     1      -3.277  -3.303  -3.829  0.00  0.00    -0.086 S 
BRANCH  12  13
ATOM     13  C   UNL     1      -4.743  -2.509  -4.533  0.00  0.00    +0.079 C 
BRANCH  13  14
ATOM     14  C   UNL     1      -5.304  -3.381  -5.658  0.00  0.00    +0.033 C 
BRANCH  14  15
ATOM     15  C   UNL     1      -6.544  -2.709  -6.253  0.00  0.00    +0.131 C 
BRANCH  15  24
ATOM     16  C   UNL     1     -10.193  -6.885  -7.039  0.00  0.00    +0.150 C 
ATOM     17  N   UNL     1      -9.439  -6.313  -8.157  0.00  0.00    -0.328 N 
ATOM     18  C   UNL     1      -9.512  -6.689  -9.449  0.00  0.00    +0.202 A 
ATOM     19  N   UNL     1      -8.696  -5.960 -10.167  0.00  0.00    -0.218 NA
ATOM     20  C   UNL     1      -8.061  -5.085  -9.383  0.00  0.00    +0.168 A 
ATOM     21  C   UNL     1      -8.517  -5.287  -8.087  0.00  0.00    +0.151 A 
ATOM     22  C   UNL     1      -8.003  -4.487  -7.044  0.00  0.00    +0.282 A 
ATOM     23  O   UNL     1      -8.387  -4.645  -5.899  0.00  0.00    -0.265 OA
ATOM     24  N   UNL     1      -7.081  -3.544  -7.330  0.00  0.00    -0.259 N 
ATOM     25  C   UNL     1      -6.653  -3.355  -8.591  0.00  0.00    +0.333 A 
ATOM     26  O   UNL     1      -5.825  -2.492  -8.812  0.00  0.00    -0.246 OA
ATOM     27  N   UNL     1      -7.114  -4.100  -9.613  0.00  0.00    -0.280 N 
ATOM     28  C   UNL     1      -6.617  -3.866 -10.971  0.00  0.00    +0.155 C 
ENDBRANCH  15  24
ENDBRANCH  14  15
ENDBRANCH  13  14
ENDBRANCH  12  13
ENDBRANCH   1  12
BRANCH   4  29
ATOM     29  C   UNL     1      -0.925  -0.666   0.147  0.00  0.00    +0.184 C 
BRANCH  29  30
ATOM     30  N   UNL     1       0.178   0.124  -0.406  0.00  0.00    -0.294 N 
ATOM     31  C   UNL     1       0.165   1.586  -0.535  0.00  0.00    +0.109 C 
ATOM     32  C   UNL     1       1.641   1.995  -0.739  0.00  0.00    +0.028 C 
ATOM     33  C   UNL     1       2.244   0.708  -1.347  0.00  0.00    +0.097 C 
ATOM     34  C   UNL     1       1.331  -0.396  -0.859  0.00  0.00    +0.216 C 
ATOM     35  O   UNL     1       1.601  -1.578  -0.875  0.00  0.00    -0.276 OA
ENDBRANCH  29  30
ENDBRANCH   4  29
TORSDOF 7
