REMARK  Name = ZINC36603067
REMARK  14 active torsions:
REMARK  status: ('A' for Active; 'I' for Inactive)
REMARK    1  A    between atoms: C_1  and  C_2
REMARK    2  A    between atoms: C_2  and  C_3
REMARK    3  A    between atoms: C_3  and  C_4
REMARK    4  A    between atoms: C_4  and  N_5
REMARK    5  A    between atoms: C_6  and  C_8
REMARK    6  A    between atoms: C_8  and  C_10
REMARK    7  A    between atoms: C_8  and  N_22
REMARK    8  A    between atoms: C_19  and  O_20
REMARK    9  A    between atoms: O_20  and  C_21
REMARK   10  A    between atoms: N_22  and  C_23
REMARK   11  A    between atoms: C_23  and  C_24
REMARK   12  A    between atoms: C_27  and  C_29
REMARK   13  A    between atoms: C_30  and  C_32
REMARK   14  A    between atoms: C_35  and  N_38
REMARK                            x       y       z     vdW  Elec       q    Type
REMARK                         _______ _______ _______ _____ _____    ______ ____
ROOT
ATOM      1  C   UNL     1       2.462  -4.393  -4.162  0.00  0.00    +0.197 C 
ENDROOT
BRANCH   1   2
ATOM      2  C   UNL     1       3.884  -3.944  -3.943  0.00  0.00    +0.031 A 
ATOM      3  C   UNL     1       4.521  -3.126  -4.892  0.00  0.00    -0.009 A 
ATOM      4  C   UNL     1       3.856  -2.709  -6.058  0.00  0.00    +0.009 A 
ATOM      5  C   UNL     1       4.504  -1.917  -6.955  0.00  0.00    +0.001 A 
ATOM      6  C   UNL     1       5.819  -1.512  -6.736  0.00  0.00    +0.001 A 
ATOM      7  C   UNL     1       6.494  -1.896  -5.619  0.00  0.00    +0.008 A 
ATOM      8  C   UNL     1       5.859  -2.713  -4.669  0.00  0.00    -0.017 A 
ATOM      9  C   UNL     1       6.525  -3.129  -3.503  0.00  0.00    +0.012 A 
ATOM     10  C   UNL     1       5.881  -3.920  -2.604  0.00  0.00    +0.046 A 
ATOM     11  C   UNL     1       4.559  -4.325  -2.819  0.00  0.00    +0.126 A 
BRANCH  11  12
ATOM     12  O   UNL     1       3.941  -5.111  -1.899  0.00  0.00    -0.495 OA
ATOM     13  C   UNL     1       4.727  -5.558  -0.793  0.00  0.00    +0.277 C 
ENDBRANCH  11  12
ENDBRANCH   1   2
BRANCH   1  15
ATOM     14  N   UNL     1       1.140  -2.380  -3.596  0.00  0.00    -0.313 N 
ATOM     15  C   UNL     1       1.545  -3.618  -3.251  0.00  0.00    +0.238 C 
ATOM     16  O   UNL     1       1.172  -4.109  -2.207  0.00  0.00    -0.273 OA
ATOM     17  H   UNL     1       1.439  -1.987  -4.432  0.00  0.00    +0.149 HD
BRANCH  14  18
ATOM     18  C   UNL     1       0.249  -1.627  -2.711  0.00  0.00    +0.104 C 
BRANCH  18  19
ATOM     19  C   UNL     1      -0.055  -0.263  -3.333  0.00  0.00    +0.018 C 
BRANCH  19  21
ATOM     20  C   UNL     1      -1.290   1.888  -3.030  0.00  0.00    +0.004 C 
ATOM     21  C   UNL     1      -0.987   0.523  -2.408  0.00  0.00    -0.002 C 
ENDBRANCH  19  21
ENDBRANCH  18  19
ENDBRANCH  14  18
ENDBRANCH   1  15
BRANCH   1  22
ATOM     22  N   UNL     1       2.351  -5.823  -3.867  0.00  0.00    -0.274 N 
ATOM     23  C   UNL     1       1.154  -6.353  -3.544  0.00  0.00    +0.248 C 
ATOM     24  O   UNL     1       1.083  -7.504  -3.160  0.00  0.00    -0.270 OA
BRANCH  23  25
ATOM     25  C   UNL     1      -0.072  -5.535  -3.658  0.00  0.00    +0.037 A 
ATOM     26  C   UNL     1      -0.068  -4.369  -4.425  0.00  0.00    +0.015 A 
ATOM     27  C   UNL     1      -1.215  -3.610  -4.527  0.00  0.00    +0.033 A 
ATOM     28  C   UNL     1      -2.368  -4.002  -3.871  0.00  0.00    +0.126 A 
ATOM     29  C   UNL     1      -2.379  -5.156  -3.108  0.00  0.00    +0.033 A 
ATOM     30  C   UNL     1      -1.240  -5.927  -3.002  0.00  0.00    +0.015 A 
BRANCH  28  31
ATOM     31  N   UNL     1      -3.595  -3.182  -3.984  0.00  0.00    +0.056 N 
ATOM     32  O   UNL     1      -3.589  -2.173  -4.650  0.00  0.00    -0.126 OA
ATOM     33  O   UNL     1      -4.604  -3.522  -3.412  0.00  0.00    -0.126 OA
ENDBRANCH  28  31
ENDBRANCH  23  25
BRANCH  22  34
ATOM     34  C   UNL     1       3.540  -6.677  -3.921  0.00  0.00    +0.183 C 
BRANCH  34  35
ATOM     35  C   UNL     1       3.841  -7.027  -5.356  0.00  0.00    +0.122 A 
ATOM     36  C   UNL     1       4.689  -6.367  -6.165  0.00  0.00    +0.046 A 
ATOM     37  C   UNL     1       4.667  -7.032  -7.412  0.00  0.00    +0.045 A 
ATOM     38  C   UNL     1       3.806  -8.059  -7.291  0.00  0.00    +0.102 A 
ATOM     39  O   UNL     1       3.313  -8.054  -6.041  0.00  0.00    -0.463 OA
ATOM     40  C   UNL     1       3.457  -9.050  -8.372  0.00  0.00    +0.086 C 
ENDBRANCH  34  35
ENDBRANCH  22  34
ENDBRANCH   1  22
TORSDOF 11
