REMARK  Name = ZINC00136148
REMARK  15 active torsions:
REMARK  status: ('A' for Active; 'I' for Inactive)
REMARK    1  A    between atoms: C_1  and  C_2
REMARK    2  A    between atoms: C_2  and  C_3
REMARK    3  A    between atoms: C_2  and  C_4
REMARK    4  A    between atoms: C_2  and  C_5
REMARK    5  A    between atoms: C_7  and  C_16
REMARK    6  A    between atoms: C_9  and  C_12
REMARK    7  A    between atoms: C_10  and  O_11
REMARK    8  A    between atoms: C_12  and  C_13
REMARK    9  A    between atoms: C_12  and  C_14
REMARK   10  A    between atoms: C_12  and  C_15
REMARK   11  A    between atoms: C_16  and  C_18
REMARK   12  A    between atoms: C_18  and  C_19
REMARK   13  A    between atoms: C_18  and  C_20
REMARK   14  A    between atoms: C_18  and  N_21
REMARK   15  A    between atoms: N_21  and  O_22
REMARK                            x       y       z     vdW  Elec       q    Type
REMARK                         _______ _______ _______ _____ _____    ______ ____
ROOT
ATOM      1  C   UNL     1      -0.111   0.918   2.508  0.00  0.00    +0.000 A 
ATOM      2  C   UNL     1       1.005   0.133   2.367  0.00  0.00    +0.019 A 
ATOM      3  C   UNL     1       1.809  -0.142   3.480  0.00  0.00    +0.020 A 
ATOM      4  C   UNL     1       1.470   0.386   4.731  0.00  0.00    +0.019 A 
ATOM      5  C   UNL     1       0.352   1.170   4.861  0.00  0.00    +0.000 A 
ATOM      6  C   UNL     1      -0.441   1.445   3.752  0.00  0.00    +0.124 A 
ENDROOT
BRANCH   1   8
ATOM      7  C   UNL     1      -0.394   0.527   0.075  0.00  0.00    +0.015 C 
ATOM      8  C   UNL     1      -0.977   1.215   1.311  0.00  0.00    -0.009 C 
ATOM      9  C   UNL     1      -1.024   2.727   1.079  0.00  0.00    +0.015 C 
ATOM     10  C   UNL     1      -2.393   0.694   1.565  0.00  0.00    +0.015 C 
ENDBRANCH   1   8
BRANCH   5  11
ATOM     11  C   UNL     1      -0.014   1.740   6.207  0.00  0.00    -0.009 C 
ATOM     12  C   UNL     1       1.016   1.296   7.247  0.00  0.00    +0.015 C 
ATOM     13  C   UNL     1      -0.031   3.268   6.127  0.00  0.00    +0.015 C 
ATOM     14  C   UNL     1      -1.400   1.235   6.615  0.00  0.00    +0.015 C 
ENDBRANCH   5  11
BRANCH   6  15
ATOM     15  O   UNL     1      -1.542   2.225   3.885  0.00  0.00    -0.506 OA
ATOM     16  H   UNL     1      -2.348   1.735   4.098  0.00  0.00    +0.292 HD
ENDBRANCH   6  15
BRANCH   3  17
ATOM     17  C   UNL     1       3.005  -0.983   3.335  0.00  0.00    +0.185 C 
ATOM     18  O   UNL     1       3.634  -1.318   4.316  0.00  0.00    -0.290 OA
BRANCH  17  19
ATOM     19  C   UNL     1       3.450  -1.430   1.966  0.00  0.00    +0.100 C 
ATOM     20  C   UNL     1       4.928  -1.824   2.014  0.00  0.00    +0.038 C 
ATOM     21  C   UNL     1       2.615  -2.634   1.526  0.00  0.00    +0.038 C 
BRANCH  19  22
ATOM     22  N   UNL     1       3.268  -0.331   1.009  0.00  0.00    -0.191 NA
ATOM     23  H   UNL     1       3.758   0.497   1.311  0.00  0.00    +0.155 HD
BRANCH  22  24
ATOM     24  O   UNL     1       3.691  -0.730  -0.334  0.00  0.00    -0.314 OA
ATOM     25  H   UNL     1       3.589  -0.036  -1.000  0.00  0.00    +0.236 HD
ENDBRANCH  22  24
ENDBRANCH  19  22
ENDBRANCH  17  19
ENDBRANCH   3  17
TORSDOF 7
