REMARK  Name = ZINC13496966
REMARK  10 active torsions:
REMARK  status: ('A' for Active; 'I' for Inactive)
REMARK    1  A    between atoms: C_4  and  N_7
REMARK    2  A    between atoms: C_8  and  C_10
REMARK    3  A    between atoms: C_10  and  N_11
REMARK    4  A    between atoms: N_11  and  C_12
REMARK    5  A    between atoms: N_11  and  S_19
REMARK    6  A    between atoms: C_12  and  C_13
REMARK    7  A    between atoms: S_19  and  C_22
REMARK    8  A    between atoms: C_25  and  S_28
REMARK    9  A    between atoms: S_28  and  N_31
REMARK   10  A    between atoms: N_31  and  C_32
REMARK                            x       y       z     vdW  Elec       q    Type
REMARK                         _______ _______ _______ _____ _____    ______ ____
ROOT
ATOM      1  S   UNL     1       3.775  -3.037  -0.268  0.00  0.00    +0.061 S 
ATOM      2  O   UNL     1       4.982  -3.548   0.280  0.00  0.00    -0.153 OA
ATOM      3  O   UNL     1       2.678  -3.875  -0.606  0.00  0.00    -0.153 OA
ENDROOT
BRANCH   1   4
ATOM      4  C   UNL     1       4.215  -2.167  -1.735  0.00  0.00    +0.106 A 
ATOM      5  C   UNL     1       3.281  -1.988  -2.739  0.00  0.00    +0.030 A 
ATOM      6  C   UNL     1       3.626  -1.301  -3.888  0.00  0.00    +0.030 A 
ATOM      7  C   UNL     1       4.906  -0.802  -4.038  0.00  0.00    +0.105 A 
ATOM      8  C   UNL     1       5.841  -0.986  -3.036  0.00  0.00    +0.030 A 
ATOM      9  C   UNL     1       5.495  -1.668  -1.885  0.00  0.00    +0.030 A 
BRANCH   7  10
ATOM     10  S   UNL     1       5.346   0.069  -5.505  0.00  0.00    +0.059 S 
ATOM     11  O   UNL     1       4.138   0.579  -6.053  0.00  0.00    -0.153 OA
ATOM     12  O   UNL     1       6.443   0.906  -5.167  0.00  0.00    -0.153 OA
BRANCH  10  13
ATOM     13  N   UNL     1       5.920  -1.049  -6.584  0.00  0.00    -0.187 NA
ATOM     14  H   UNL     1       6.847  -1.019  -6.867  0.00  0.00    +0.148 HD
BRANCH  13  15
ATOM     15  C   UNL     1       5.027  -2.084  -7.111  0.00  0.00    +0.077 C 
ATOM     16  C   UNL     1       5.213  -3.396  -6.321  0.00  0.00    +0.020 C 
ATOM     17  C   UNL     1       5.073  -4.507  -7.391  0.00  0.00    +0.002 C 
ATOM     18  C   UNL     1       5.781  -3.888  -8.621  0.00  0.00    +0.002 C 
ATOM     19  C   UNL     1       5.387  -2.397  -8.574  0.00  0.00    +0.020 C 
ENDBRANCH  13  15
ENDBRANCH  10  13
ENDBRANCH   7  10
ENDBRANCH   1   4
BRANCH   1  20
ATOM     20  N   UNL     1       3.201  -1.920   0.811  0.00  0.00    -0.165 NA
BRANCH  20  21
ATOM     21  C   UNL     1       4.122  -1.258   1.740  0.00  0.00    +0.205 C 
BRANCH  21  23
ATOM     22  N   UNL     1       4.902  -1.564   4.067  0.00  0.00    -0.284 N 
ATOM     23  C   UNL     1       4.124  -1.995   3.054  0.00  0.00    +0.233 C 
ATOM     24  O   UNL     1       3.426  -2.976   3.201  0.00  0.00    -0.274 OA
ATOM     25  H   UNL     1       5.510  -0.821   3.929  0.00  0.00    +0.155 HD
BRANCH  22  29
ATOM     26  C   UNL     1       4.697  -3.423   7.789  0.00  0.00    +0.000 A 
ATOM     27  C   UNL     1       4.543  -4.170   6.636  0.00  0.00    +0.002 A 
ATOM     28  C   UNL     1       4.610  -3.557   5.400  0.00  0.00    +0.023 A 
ATOM     29  C   UNL     1       4.833  -2.188   5.317  0.00  0.00    +0.033 A 
ATOM     30  C   UNL     1       4.993  -1.442   6.477  0.00  0.00    +0.023 A 
ATOM     31  C   UNL     1       4.919  -2.061   7.710  0.00  0.00    +0.002 A 
ENDBRANCH  22  29
ENDBRANCH  21  23
ENDBRANCH  20  21
BRANCH  20  32
ATOM     32  C   UNL     1       1.774  -1.592   0.837  0.00  0.00    +0.141 C 
BRANCH  32  33
ATOM     33  C   UNL     1       1.519  -0.353  -0.024  0.00  0.00    +0.134 C 
ATOM     34  C   UNL     1       0.018   0.012  -0.011  0.00  0.00    +0.035 C 
ATOM     35  C   UNL     1       0.007   1.557  -0.008  0.00  0.00    +0.031 C 
ATOM     36  C   UNL     1       1.502   1.943  -0.019  0.00  0.00    +0.160 C 
ATOM     37  O   UNL     1       2.183   0.799   0.540  0.00  0.00    -0.375 OA
ENDBRANCH  32  33
ENDBRANCH  20  32
ENDBRANCH   1  20
TORSDOF 10
