REMARK  Name = ZINC63625230
REMARK  6 active torsions:
REMARK  status: ('A' for Active; 'I' for Inactive)
REMARK    1  A    between atoms: C_1  and  C_2
REMARK    2  A    between atoms: C_2  and  C_3
REMARK    3  A    between atoms: C_8  and  S_9
REMARK    4  A    between atoms: S_9  and  N_12
REMARK    5  A    between atoms: N_12  and  C_13
REMARK    6  A    between atoms: C_17  and  C_19
REMARK                            x       y       z     vdW  Elec       q    Type
REMARK                         _______ _______ _______ _____ _____    ______ ____
ROOT
ATOM      1  C   UNL     1      -1.038   1.800   0.699  0.00  0.00    +0.048 A 
ATOM      2  C   UNL     1       0.182   1.311   0.249  0.00  0.00    +0.024 A 
ATOM      3  C   UNL     1       0.709   1.764  -0.944  0.00  0.00    +0.002 A 
ATOM      4  C   UNL     1       0.023   2.704  -1.692  0.00  0.00    +0.006 A 
ATOM      5  C   UNL     1      -1.192   3.192  -1.248  0.00  0.00    -0.020 A 
ATOM      6  C   UNL     1      -1.728   2.739  -0.058  0.00  0.00    +0.030 A 
ENDROOT
BRANCH   5   7
ATOM      7  C   UNL     1      -1.936   4.217  -2.066  0.00  0.00    +0.133 C 
ATOM      8  C   UNL     1      -1.314   5.583  -1.880  0.00  0.00    +0.012 C 
ATOM      9  C   UNL     1      -0.894   5.973  -3.106  0.00  0.00    -0.004 A 
ATOM     10  C   UNL     1      -0.220   7.185  -3.587  0.00  0.00    +0.010 A 
ATOM     11  C   UNL     1       0.080   7.290  -4.901  0.00  0.00    +0.001 A 
ATOM     12  C   UNL     1      -0.236   6.274  -5.814  0.00  0.00    +0.002 A 
ATOM     13  C   UNL     1      -0.855   5.132  -5.447  0.00  0.00    +0.026 A 
ATOM     14  C   UNL     1      -1.216   4.914  -4.089  0.00  0.00    +0.043 A 
ATOM     15  N   UNL     1      -1.814   3.908  -3.495  0.00  0.00    -0.374 N 
ATOM     16  H   UNL     1      -2.123   3.096  -3.927  0.00  0.00    +0.161 HD
ENDBRANCH   5   7
BRANCH   1  17
ATOM     17  N   UNL     1      -1.574   1.343   1.905  0.00  0.00    -0.216 N 
ATOM     18  H   UNL     1      -1.950   1.974   2.538  0.00  0.00    +0.174 HD
BRANCH  17  19
ATOM     19  S   UNL     1      -1.568  -0.276   2.254  0.00  0.00    +0.073 S 
ATOM     20  O   UNL     1      -2.043  -0.943   1.092  0.00  0.00    -0.150 OA
ATOM     21  O   UNL     1      -2.190  -0.420   3.523  0.00  0.00    -0.150 OA
BRANCH  19  27
ATOM     22  C   UNL     1       0.865  -0.225   3.490  0.00  0.00    -0.021 A 
ATOM     23  C   UNL     1       2.183  -0.608   3.654  0.00  0.00    +0.005 A 
ATOM     24  C   UNL     1       2.752  -1.520   2.785  0.00  0.00    +0.000 A 
ATOM     25  C   UNL     1       2.002  -2.049   1.750  0.00  0.00    +0.002 A 
ATOM     26  C   UNL     1       0.684  -1.667   1.587  0.00  0.00    +0.029 A 
ATOM     27  C   UNL     1       0.114  -0.758   2.459  0.00  0.00    +0.112 A 
BRANCH  22  29
ATOM     28  C   UNL     1      -0.353   0.027   5.634  0.00  0.00    +0.009 C 
ATOM     29  C   UNL     1       0.245   0.769   4.438  0.00  0.00    +0.034 C 
ENDBRANCH  22  29
ENDBRANCH  19  27
ENDBRANCH  17  19
ENDBRANCH   1  17
TORSDOF 5
