REMARK  Name = ZINC05943007
REMARK  10 active torsions:
REMARK  status: ('A' for Active; 'I' for Inactive)
REMARK    1  A    between atoms: C_1  and  C_2
REMARK    2  A    between atoms: C_6  and  N_9
REMARK    3  A    between atoms: C_7  and  C_8
REMARK    4  A    between atoms: C_10  and  C_12
REMARK    5  A    between atoms: C_13  and  C_30
REMARK    6  A    between atoms: C_18  and  C_20
REMARK    7  A    between atoms: C_24  and  O_28
REMARK    8  A    between atoms: C_25  and  O_26
REMARK    9  A    between atoms: O_26  and  C_27
REMARK   10  A    between atoms: O_28  and  C_29
REMARK                            x       y       z     vdW  Elec       q    Type
REMARK                         _______ _______ _______ _____ _____    ______ ____
ROOT
ATOM      1  C   UNL     1       4.621  -0.042  -1.609  0.00  0.00    +0.056 C 
ATOM      2  C   UNL     1       5.763   0.675  -1.549  0.00  0.00    +0.019 C 
ATOM      3  N   UNL     1       6.328   1.003  -0.349  0.00  0.00    -0.273 N 
ATOM      4  C   UNL     1       5.811   0.653   0.835  0.00  0.00    +0.304 C 
ATOM      5  O   UNL     1       6.386   0.992   1.851  0.00  0.00    -0.252 OA
ATOM      6  N   UNL     1       4.675  -0.065   0.937  0.00  0.00    -0.288 N 
ATOM      7  C   UNL     1       3.987  -0.469  -0.301  0.00  0.00    +0.145 C 
ATOM      8  C   UNL     1       6.426   1.120  -2.827  0.00  0.00    +0.061 C 
ATOM      9  H   UNL     1       7.149   1.520  -0.356  0.00  0.00    +0.156 HD
ATOM     10  H   UNL     1       4.317  -0.308   1.806  0.00  0.00    +0.151 HD
ENDROOT
BRANCH   7  11
ATOM     11  C   UNL     1       2.588   0.088  -0.258  0.00  0.00    +0.023 A 
ATOM     12  C   UNL     1       2.228   1.119  -1.107  0.00  0.00    +0.009 A 
ATOM     13  C   UNL     1       0.946   1.632  -1.072  0.00  0.00    +0.004 A 
ATOM     14  C   UNL     1       0.016   1.117  -0.187  0.00  0.00    +0.049 A 
ATOM     15  C   UNL     1       0.370   0.085   0.666  0.00  0.00    +0.162 A 
ATOM     16  C   UNL     1       1.662  -0.432   0.630  0.00  0.00    +0.167 A 
BRANCH  16  17
ATOM     17  O   UNL     1       2.014  -1.446   1.466  0.00  0.00    -0.491 OA
ATOM     18  C   UNL     1       1.713  -2.775   1.035  0.00  0.00    +0.277 C 
ENDBRANCH  16  17
BRANCH  15  19
ATOM     19  O   UNL     1      -0.543  -0.422   1.538  0.00  0.00    -0.491 OA
ATOM     20  C   UNL     1      -1.849   0.157   1.519  0.00  0.00    +0.277 C 
ENDBRANCH  15  19
ENDBRANCH   7  11
BRANCH   1  22
ATOM     21  N   UNL     1       2.960  -1.196  -2.890  0.00  0.00    -0.281 N 
ATOM     22  C   UNL     1       4.035  -0.383  -2.853  0.00  0.00    +0.248 C 
ATOM     23  O   UNL     1       4.502   0.057  -3.887  0.00  0.00    -0.270 OA
ATOM     24  H   UNL     1       2.544  -1.488  -2.064  0.00  0.00    +0.155 HD
BRANCH  21  30
ATOM     25  C   UNL     1      -0.783  -3.001  -5.516  0.00  0.00    +0.044 C 
ATOM     26  C   UNL     1       0.634  -2.497  -5.422  0.00  0.00    -0.046 A 
ATOM     27  C   UNL     1       1.427  -2.451  -6.554  0.00  0.00    +0.004 A 
ATOM     28  C   UNL     1       2.728  -1.990  -6.472  0.00  0.00    +0.002 A 
ATOM     29  C   UNL     1       3.238  -1.568  -5.260  0.00  0.00    +0.023 A 
ATOM     30  C   UNL     1       2.446  -1.617  -4.120  0.00  0.00    +0.037 A 
ATOM     31  C   UNL     1       1.139  -2.082  -4.206  0.00  0.00    -0.026 A 
ATOM     32  C   UNL     1       0.274  -2.132  -2.973  0.00  0.00    +0.046 C 
ENDBRANCH  21  30
ENDBRANCH   1  22
TORSDOF 5
