REMARK  Name = ZINC35450300
REMARK  12 active torsions:
REMARK  status: ('A' for Active; 'I' for Inactive)
REMARK    1  A    between atoms: C_1  and  C_2
REMARK    2  A    between atoms: C_2  and  C_3
REMARK    3  A    between atoms: C_3  and  C_5
REMARK    4  A    between atoms: C_3  and  S_6
REMARK    5  A    between atoms: S_6  and  C_7
REMARK    6  A    between atoms: C_14  and  C_26
REMARK    7  A    between atoms: C_20  and  C_24
REMARK    8  A    between atoms: C_20  and  C_25
REMARK    9  A    between atoms: C_29  and  O_35
REMARK   10  A    between atoms: C_30  and  O_32
REMARK   11  A    between atoms: O_32  and  C_33
REMARK   12  A    between atoms: C_33  and  C_34
REMARK                            x       y       z     vdW  Elec       q    Type
REMARK                         _______ _______ _______ _____ _____    ______ ____
ROOT
ATOM      1  C   UNL     1       3.154  -0.528   2.698  0.00  0.00    +0.171 A 
ATOM      2  N   UNL     1       2.375  -1.137   3.569  0.00  0.00    -0.208 NA
ATOM      3  C   UNL     1       2.848  -1.546   4.751  0.00  0.00    +0.135 A 
ATOM      4  C   UNL     1       4.176  -1.328   5.074  0.00  0.00    +0.069 A 
ATOM      5  C   UNL     1       5.000  -0.682   4.145  0.00  0.00    +0.258 A 
ATOM      6  O   UNL     1       6.177  -0.476   4.395  0.00  0.00    -0.267 OA
ATOM      7  N   UNL     1       4.470  -0.297   2.965  0.00  0.00    -0.302 N 
ATOM      8  C   UNL     1       4.726  -1.770   6.397  0.00  0.00    +0.093 C 
ATOM      9  C   UNL     1       3.830  -2.792   7.050  0.00  0.00    +0.024 C 
ATOM     10  C   UNL     1       2.547  -2.946   6.662  0.00  0.00    +0.017 C 
ATOM     11  N   UNL     1       2.021  -2.188   5.651  0.00  0.00    -0.302 N 
ATOM     12  C   UNL     1       1.648  -3.955   7.335  0.00  0.00    +0.058 C 
ATOM     13  C   UNL     1       2.481  -5.148   7.812  0.00  0.00    -0.023 C 
ATOM     14  C   UNL     1       3.556  -4.633   8.774  0.00  0.00    +0.086 C 
ATOM     15  C   UNL     1       4.376  -3.583   8.076  0.00  0.00    +0.162 C 
ATOM     16  O   UNL     1       5.534  -3.415   8.406  0.00  0.00    -0.292 OA
ATOM     17  C   UNL     1       1.578  -6.149   8.536  0.00  0.00    +0.011 C 
ATOM     18  C   UNL     1       3.144  -5.825   6.612  0.00  0.00    +0.011 C 
ATOM     19  H   UNL     1       1.059  -2.101   5.567  0.00  0.00    +0.153 HD
ATOM     20  H   UNL     1       5.027   0.148   2.307  0.00  0.00    +0.171 HD
ENDROOT
BRANCH   8  21
ATOM     21  C   UNL     1       4.851  -0.574   7.304  0.00  0.00    -0.032 A 
ATOM     22  C   UNL     1       3.727   0.159   7.637  0.00  0.00    +0.008 A 
ATOM     23  C   UNL     1       3.835   1.258   8.469  0.00  0.00    +0.049 A 
ATOM     24  C   UNL     1       5.073   1.626   8.972  0.00  0.00    +0.158 A 
ATOM     25  C   UNL     1       6.204   0.888   8.638  0.00  0.00    +0.162 A 
ATOM     26  C   UNL     1       6.087  -0.215   7.808  0.00  0.00    +0.054 A 
BRANCH  24  27
ATOM     27  O   UNL     1       5.181   2.707   9.791  0.00  0.00    -0.503 OA
ATOM     28  H   UNL     1       5.081   2.500  10.730  0.00  0.00    +0.292 HD
ENDBRANCH  24  27
BRANCH  25  29
ATOM     29  O   UNL     1       7.420   1.245   9.130  0.00  0.00    -0.489 OA
BRANCH  29  30
ATOM     30  C   UNL     1       8.537   0.441   8.745  0.00  0.00    +0.226 C 
ATOM     31  C   UNL     1       9.810   0.993   9.390  0.00  0.00    +0.048 C 
ENDBRANCH  29  30
ENDBRANCH  25  29
ENDBRANCH   8  21
BRANCH   1  32
ATOM     32  S   UNL     1       2.482  -0.007   1.155  0.00  0.00    -0.085 S 
BRANCH  32  33
ATOM     33  C   UNL     1       0.742  -0.511   1.242  0.00  0.00    +0.051 C 
ATOM     34  C   UNL     1       0.655  -2.037   1.299  0.00  0.00    +0.019 C 
BRANCH  33  36
ATOM     35  C   UNL     1      -0.019   1.526   0.010  0.00  0.00    +0.005 C 
ATOM     36  C   UNL     1       0.002  -0.004   0.002  0.00  0.00    +0.011 C 
ENDBRANCH  33  36
ENDBRANCH  32  33
ENDBRANCH   1  32
TORSDOF 7
