REMARK  Name = ZINC35758136
REMARK  13 active torsions:
REMARK  status: ('A' for Active; 'I' for Inactive)
REMARK    1  A    between atoms: C_1  and  C_2
REMARK    2  A    between atoms: N_5  and  C_8
REMARK    3  A    between atoms: C_9  and  C_19
REMARK    4  A    between atoms: C_10  and  C_13
REMARK    5  A    between atoms: C_19  and  N_20
REMARK    6  A    between atoms: N_20  and  C_21
REMARK    7  A    between atoms: N_20  and  C_27
REMARK    8  A    between atoms: C_21  and  C_22
REMARK    9  A    between atoms: C_27  and  C_28
REMARK   10  A    between atoms: C_28  and  C_30
REMARK   11  A    between atoms: C_28  and  O_38
REMARK   12  A    between atoms: C_30  and  O_31
REMARK   13  A    between atoms: O_31  and  C_32
REMARK                            x       y       z     vdW  Elec       q    Type
REMARK                         _______ _______ _______ _____ _____    ______ ____
ROOT
ATOM      1  N   UNL     1       1.490  -5.534   2.684  0.00  0.00    +0.389 N 
ATOM      2  H   UNL     1       0.645  -5.719   2.166  0.00  0.00    -0.081 HD
ENDROOT
BRANCH   1   3
ATOM      3  C   UNL     1       2.143  -4.334   2.143  0.00  0.00    -0.035 C 
BRANCH   3   5
ATOM      4  C   UNL     1       1.581  -4.369  -0.347  0.00  0.00    +0.222 A 
ATOM      5  C   UNL     1       2.448  -4.544   0.683  0.00  0.00    +0.025 A 
ATOM      6  C   UNL     1       3.685  -4.956   0.144  0.00  0.00    +0.117 A 
ATOM      7  N   UNL     1       3.556  -5.024  -1.161  0.00  0.00    -0.076 NA
ATOM      8  O   UNL     1       2.227  -4.660  -1.488  0.00  0.00    -0.339 OA
BRANCH   4  13
ATOM      9  C   UNL     1      -3.365  -2.851  -2.164  0.00  0.00    +0.007 C 
ATOM     10  C   UNL     1      -2.313  -3.178  -1.102  0.00  0.00    -0.011 C 
ATOM     11  C   UNL     1      -1.847  -4.626  -1.275  0.00  0.00    +0.022 C 
ATOM     12  C   UNL     1      -0.821  -4.960  -0.189  0.00  0.00    +0.108 C 
ATOM     13  N   UNL     1       0.262  -3.968  -0.239  0.00  0.00    -0.299 N 
ATOM     14  C   UNL     1      -0.084  -2.542  -0.172  0.00  0.00    +0.108 C 
ATOM     15  C   UNL     1      -1.119  -2.234  -1.259  0.00  0.00    +0.022 C 
ENDBRANCH   4  13
BRANCH   6  16
ATOM     16  C   UNL     1       4.916  -5.259   0.917  0.00  0.00    +0.004 A 
ATOM     17  C   UNL     1       5.667  -6.394   0.618  0.00  0.00    +0.010 A 
ATOM     18  C   UNL     1       6.811  -6.671   1.339  0.00  0.00    +0.001 A 
ATOM     19  C   UNL     1       7.212  -5.825   2.357  0.00  0.00    +0.000 A 
ATOM     20  C   UNL     1       6.469  -4.697   2.658  0.00  0.00    +0.001 A 
ATOM     21  C   UNL     1       5.327  -4.408   1.940  0.00  0.00    +0.010 A 
ENDBRANCH   6  16
ENDBRANCH   3   5
ENDBRANCH   1   3
BRANCH   1  22
ATOM     22  C   UNL     1       2.399  -6.682   2.565  0.00  0.00    -0.003 C 
BRANCH  22  23
ATOM     23  C   UNL     1       1.695  -7.931   3.030  0.00  0.00    +0.089 A 
ATOM     24  C   UNL     1       1.017  -8.789   2.247  0.00  0.00    +0.042 A 
ATOM     25  C   UNL     1       0.523  -9.810   3.091  0.00  0.00    +0.041 A 
ATOM     26  C   UNL     1       0.929  -9.515   4.339  0.00  0.00    +0.195 A 
ATOM     27  O   UNL     1       1.644  -8.379   4.295  0.00  0.00    -0.470 OA
ENDBRANCH  22  23
ENDBRANCH   1  22
BRANCH   1  28
ATOM     28  C   UNL     1       1.160  -5.316   4.099  0.00  0.00    -0.043 C 
BRANCH  28  29
ATOM     29  C   UNL     1       0.074  -4.245   4.210  0.00  0.00    +0.135 C 
BRANCH  29  30
ATOM     30  O   UNL     1       0.610  -2.980   3.817  0.00  0.00    -0.390 OA
ATOM     31  H   UNL     1       1.357  -2.685   4.355  0.00  0.00    +0.210 HD
ENDBRANCH  29  30
BRANCH  29  32
ATOM     32  C   UNL     1      -0.417  -4.163   5.657  0.00  0.00    +0.258 C 
BRANCH  32  33
ATOM     33  O   UNL     1      -1.510  -3.247   5.739  0.00  0.00    -0.489 OA
BRANCH  33  34
ATOM     34  C   UNL     1      -2.066  -3.058   6.964  0.00  0.00    +0.121 A 
ATOM     35  C   UNL     1      -1.566  -3.735   8.067  0.00  0.00    +0.045 A 
ATOM     36  C   UNL     1      -2.132  -3.541   9.311  0.00  0.00    +0.004 A 
ATOM     37  C   UNL     1      -3.198  -2.672   9.459  0.00  0.00    +0.000 A 
ATOM     38  C   UNL     1      -3.699  -1.996   8.362  0.00  0.00    +0.004 A 
ATOM     39  C   UNL     1      -3.132  -2.182   7.116  0.00  0.00    +0.045 A 
ENDBRANCH  33  34
ENDBRANCH  32  33
ENDBRANCH  29  32
ENDBRANCH  28  29
ENDBRANCH   1  28
TORSDOF 12
