REMARK  Name = ZINC40985233
REMARK  15 active torsions:
REMARK  status: ('A' for Active; 'I' for Inactive)
REMARK    1  A    between atoms: C_1  and  C_2
REMARK    2  A    between atoms: C_3  and  C_17
REMARK    3  A    between atoms: C_5  and  C_7
REMARK    4  A    between atoms: C_10  and  O_13
REMARK    5  A    between atoms: O_13  and  C_14
REMARK    6  A    between atoms: C_14  and  C_15
REMARK    7  A    between atoms: C_14  and  C_16
REMARK    8  A    between atoms: C_17  and  N_18
REMARK    9  A    between atoms: C_21  and  C_24
REMARK   10  A    between atoms: N_26  and  C_27
REMARK   11  A    between atoms: C_27  and  C_29
REMARK   12  A    between atoms: C_27  and  C_30
REMARK   13  A    between atoms: C_30  and  C_31
REMARK   14  A    between atoms: C_31  and  C_32
REMARK   15  A    between atoms: C_31  and  C_33
REMARK                            x       y       z     vdW  Elec       q    Type
REMARK                         _______ _______ _______ _____ _____    ______ ____
ROOT
ATOM      1  C   UNL     1      -2.489  -0.366   0.311  0.00  0.00    -0.019 C 
ENDROOT
BRANCH   1   2
ATOM      2  N   UNL     1      -3.164  -0.362  -0.993  0.00  0.00    +0.383 N 
ATOM      3  C   UNL     1      -3.235  -1.734  -1.510  0.00  0.00    -0.078 C 
ATOM      4  C   UNL     1      -3.865  -1.726  -2.905  0.00  0.00    -0.006 C 
ATOM      5  C   UNL     1      -5.276  -1.138  -2.818  0.00  0.00    +0.071 C 
ATOM      6  C   UNL     1      -5.197   0.265  -2.209  0.00  0.00    -0.006 C 
ATOM      7  C   UNL     1      -4.518   0.183  -0.840  0.00  0.00    -0.078 C 
ATOM      8  H   UNL     1      -2.643   0.212  -1.639  0.00  0.00    -0.081 HD
BRANCH   5   9
ATOM      9  C   UNL     1      -5.873  -1.054  -4.199  0.00  0.00    +0.216 C 
ATOM     10  O   UNL     1      -5.233  -1.428  -5.160  0.00  0.00    -0.276 OA
ATOM     11  N   UNL     1      -7.117  -0.564  -4.368  0.00  0.00    -0.312 N 
ATOM     12  H   UNL     1      -7.628  -0.265  -3.599  0.00  0.00    +0.149 HD
BRANCH  11  13
ATOM     13  C   UNL     1      -7.697  -0.483  -5.710  0.00  0.00    +0.070 C 
ATOM     14  C   UNL     1      -7.252   0.818  -6.381  0.00  0.00    +0.028 C 
BRANCH  13  15
ATOM     15  C   UNL     1      -9.223  -0.509  -5.609  0.00  0.00    +0.025 C 
BRANCH  15  16
ATOM     16  C   UNL     1      -9.675  -1.861  -5.054  0.00  0.00    -0.015 C 
ATOM     17  C   UNL     1     -11.189  -1.842  -4.835  0.00  0.00    +0.007 C 
ATOM     18  C   UNL     1      -9.317  -2.966  -6.049  0.00  0.00    +0.007 C 
ENDBRANCH  15  16
ENDBRANCH  13  15
ENDBRANCH  11  13
ENDBRANCH   5   9
ENDBRANCH   1   2
BRANCH   1  21
ATOM     19  C   UNL     1      -0.039   1.490  -0.260  0.00  0.00    +0.088 C 
ATOM     20  C   UNL     1      -0.006  -0.009  -0.110  0.00  0.00    +0.124 A 
ATOM     21  C   UNL     1      -1.059  -0.809   0.136  0.00  0.00    +0.066 A 
ATOM     22  N   UNL     1      -0.611  -2.073   0.197  0.00  0.00    -0.216 NA
ATOM     23  C   UNL     1       0.686  -2.067  -0.004  0.00  0.00    +0.228 A 
ATOM     24  O   UNL     1       1.083  -0.798  -0.203  0.00  0.00    -0.440 OA
BRANCH  23  25
ATOM     25  C   UNL     1       1.563  -3.257  -0.016  0.00  0.00    +0.037 A 
ATOM     26  C   UNL     1       1.021  -4.527   0.193  0.00  0.00    +0.017 A 
ATOM     27  C   UNL     1       1.842  -5.634   0.181  0.00  0.00    +0.046 A 
ATOM     28  C   UNL     1       3.206  -5.488  -0.039  0.00  0.00    +0.121 A 
ATOM     29  C   UNL     1       3.748  -4.226  -0.248  0.00  0.00    +0.046 A 
ATOM     30  C   UNL     1       2.933  -3.115  -0.243  0.00  0.00    +0.017 A 
BRANCH  28  31
ATOM     31  O   UNL     1       4.011  -6.582  -0.050  0.00  0.00    -0.489 OA
BRANCH  31  32
ATOM     32  C   UNL     1       3.375  -7.857   0.052  0.00  0.00    +0.167 C 
ATOM     33  C   UNL     1       4.271  -8.926  -0.576  0.00  0.00    +0.051 C 
ATOM     34  C   UNL     1       3.137  -8.192   1.526  0.00  0.00    +0.051 C 
ENDBRANCH  31  32
ENDBRANCH  28  31
ENDBRANCH  23  25
ENDBRANCH   1  21
TORSDOF 9
