REMARK  Name = ZINC39745298
REMARK  11 active torsions:
REMARK  status: ('A' for Active; 'I' for Inactive)
REMARK    1  A    between atoms: C_1  and  C_2
REMARK    2  A    between atoms: C_2  and  C_3
REMARK    3  A    between atoms: C_3  and  C_5
REMARK    4  A    between atoms: C_3  and  S_13
REMARK    5  A    between atoms: S_13  and  C_14
REMARK    6  A    between atoms: C_17  and  C_21
REMARK    7  A    between atoms: N_18  and  C_19
REMARK    8  A    between atoms: C_19  and  C_20
REMARK    9  A    between atoms: C_21  and  C_22
REMARK   10  A    between atoms: C_22  and  N_23
REMARK   11  A    between atoms: C_24  and  C_26
REMARK                            x       y       z     vdW  Elec       q    Type
REMARK                         _______ _______ _______ _____ _____    ______ ____
ROOT
ATOM      1  C   UNL     1       2.119   1.882  -1.111  0.00  0.00    +0.192 A 
ATOM      2  N   UNL     1       0.988   2.549  -1.092  0.00  0.00    -0.122 NA
ATOM      3  N   UNL     1       1.225   3.807  -0.979  0.00  0.00    -0.133 NA
ATOM      4  C   UNL     1       2.509   4.016  -0.919  0.00  0.00    +0.136 A 
ATOM      5  N   UNL     1       3.125   2.798  -0.995  0.00  0.00    -0.306 N 
ENDROOT
BRANCH   5   6
ATOM      6  C   UNL     1       4.565   2.530  -0.963  0.00  0.00    +0.122 C 
ATOM      7  C   UNL     1       5.121   2.559  -2.388  0.00  0.00    +0.027 C 
ENDBRANCH   5   6
BRANCH   1   8
ATOM      8  S   UNL     1       2.303   0.135  -1.250  0.00  0.00    -0.073 S 
BRANCH   8   9
ATOM      9  C   UNL     1       0.599  -0.488  -1.240  0.00  0.00    +0.140 C 
BRANCH   9  10
ATOM     10  C   UNL     1      -0.102  -0.055  -2.501  0.00  0.00    +0.232 C 
ATOM     11  O   UNL     1       0.542   0.192  -3.499  0.00  0.00    -0.274 OA
ATOM     12  N   UNL     1      -1.445   0.059  -2.521  0.00  0.00    -0.264 N 
ATOM     13  C   UNL     1      -2.092   0.458  -3.684  0.00  0.00    +0.164 A 
ATOM     14  N   UNL     1      -1.564   0.759  -4.851  0.00  0.00    -0.233 NA
ATOM     15  C   UNL     1      -2.321   1.124  -5.869  0.00  0.00    +0.120 A 
ATOM     16  C   UNL     1      -3.659   1.175  -5.655  0.00  0.00    +0.068 A 
ATOM     17  S   UNL     1      -3.741   0.668  -3.945  0.00  0.00    -0.061 S 
ATOM     18  H   UNL     1      -1.960  -0.138  -1.723  0.00  0.00    +0.157 HD
ENDBRANCH   9  10
BRANCH   9  20
ATOM     19  C   UNL     1       1.201  -2.454   0.180  0.00  0.00    +0.005 C 
ATOM     20  C   UNL     1       0.615  -2.016  -1.164  0.00  0.00    +0.020 C 
ENDBRANCH   9  20
ENDBRANCH   8   9
ENDBRANCH   1   8
BRANCH   4  21
ATOM     21  C   UNL     1       3.191   5.354  -0.785  0.00  0.00    +0.095 C 
BRANCH  21  22
ATOM     22  C   UNL     1       3.375   5.686   0.697  0.00  0.00    +0.112 C 
BRANCH  22  23
ATOM     23  N   UNL     1       4.037   6.987   0.827  0.00  0.00    -0.311 N 
ATOM     24  C   UNL     1       4.304   7.487   2.050  0.00  0.00    +0.244 C 
ATOM     25  O   UNL     1       3.995   6.860   3.044  0.00  0.00    -0.270 OA
ATOM     26  H   UNL     1       4.283   7.487   0.034  0.00  0.00    +0.149 HD
BRANCH  24  27
ATOM     27  C   UNL     1       4.972   8.799   2.181  0.00  0.00    +0.038 A 
ATOM     28  C   UNL     1       5.322   9.524   1.041  0.00  0.00    +0.014 A 
ATOM     29  C   UNL     1       5.946  10.748   1.169  0.00  0.00    +0.022 A 
ATOM     30  C   UNL     1       6.225  11.258   2.426  0.00  0.00    +0.059 A 
ATOM     31  C   UNL     1       5.880  10.543   3.562  0.00  0.00    +0.060 A 
ATOM     32  C   UNL     1       5.250   9.320   3.446  0.00  0.00    +0.034 A 
ATOM     33 CL   UNL     1       6.233  11.190   5.134  0.00  0.00    -0.082 Cl
ATOM     34 CL   UNL     1       7.011  12.798   2.579  0.00  0.00    -0.082 Cl
ENDBRANCH  24  27
ENDBRANCH  22  23
ENDBRANCH  21  22
ENDBRANCH   4  21
TORSDOF 9
