REMARK  Name = ZINC40019534
REMARK  20 active torsions:
REMARK  status: ('A' for Active; 'I' for Inactive)
REMARK    1  A    between atoms: C_1  and  C_2
REMARK    2  A    between atoms: C_2  and  C_3
REMARK    3  A    between atoms: C_3  and  C_4
REMARK    4  A    between atoms: C_4  and  N_5
REMARK    5  A    between atoms: N_5  and  C_6
REMARK    6  A    between atoms: N_5  and  C_10
REMARK    7  A    between atoms: C_6  and  C_7
REMARK    8  A    between atoms: C_7  and  C_8
REMARK    9  A    between atoms: C_8  and  C_9
REMARK   10  A    between atoms: C_10  and  C_11
REMARK   11  A    between atoms: C_11  and  C_12
REMARK   12  A    between atoms: C_12  and  N_13
REMARK   13  A    between atoms: C_14  and  C_34
REMARK   14  A    between atoms: C_16  and  C_21
REMARK   15  A    between atoms: C_21  and  C_23
REMARK   16  A    between atoms: C_26  and  O_30
REMARK   17  A    between atoms: C_27  and  C_29
REMARK   18  A    between atoms: O_30  and  C_31
REMARK   19  A    between atoms: C_31  and  C_32
REMARK   20  A    between atoms: C_32  and  C_33
REMARK                            x       y       z     vdW  Elec       q    Type
REMARK                         _______ _______ _______ _____ _____    ______ ____
ROOT
ATOM      1  N   UNL     1       3.575  -5.016   4.392  0.00  0.00    -0.284 N 
ATOM      2  C   UNL     1       5.020  -4.934   4.637  0.00  0.00    +0.147 C 
ATOM      3  C   UNL     1       5.306  -5.866   5.792  0.00  0.00    +0.076 C 
ATOM      4  C   UNL     1       4.122  -6.414   6.153  0.00  0.00    +0.249 C 
ATOM      5  C   UNL     1       3.053  -5.878   5.284  0.00  0.00    +0.288 C 
ATOM      6  O   UNL     1       1.878  -6.174   5.362  0.00  0.00    -0.266 OA
ATOM      7  O   UNL     1       3.945  -7.308   7.153  0.00  0.00    -0.282 OA
ENDROOT
BRANCH   2   8
ATOM      8  C   UNL     1       5.404  -3.523   5.000  0.00  0.00    +0.013 A 
ATOM      9  C   UNL     1       6.492  -2.924   4.393  0.00  0.00    +0.008 A 
ATOM     10  C   UNL     1       6.845  -1.630   4.726  0.00  0.00    +0.001 A 
ATOM     11  C   UNL     1       6.110  -0.933   5.668  0.00  0.00    +0.003 A 
ATOM     12  C   UNL     1       5.022  -1.529   6.276  0.00  0.00    +0.039 A 
ATOM     13  C   UNL     1       4.665  -2.824   5.939  0.00  0.00    +0.129 A 
ATOM     14  F   UNL     1       3.598  -3.406   6.530  0.00  0.00    -0.205 F 
ENDBRANCH   2   8
BRANCH   3  15
ATOM     15  C   UNL     1       6.613  -6.125   6.403  0.00  0.00    +0.195 C 
ATOM     16  O   UNL     1       6.828  -5.779   7.550  0.00  0.00    -0.287 OA
BRANCH  15  17
ATOM     17  C   UNL     1       7.668  -6.808   5.628  0.00  0.00    +0.023 A 
ATOM     18  C   UNL     1       7.411  -7.239   4.323  0.00  0.00    +0.015 A 
ATOM     19  C   UNL     1       8.397  -7.875   3.603  0.00  0.00    +0.046 A 
ATOM     20  C   UNL     1       9.648  -8.088   4.173  0.00  0.00    +0.123 A 
ATOM     21  C   UNL     1       9.907  -7.661   5.470  0.00  0.00    -0.008 A 
ATOM     22  C   UNL     1       8.928  -7.019   6.195  0.00  0.00    +0.018 A 
ATOM     23  C   UNL     1      11.264  -7.896   6.083  0.00  0.00    +0.047 C 
BRANCH  20  24
ATOM     24  O   UNL     1      10.617  -8.716   3.461  0.00  0.00    -0.492 OA
BRANCH  24  25
ATOM     25  C   UNL     1      10.283  -9.130   2.134  0.00  0.00    +0.229 C 
BRANCH  25  26
ATOM     26  C   UNL     1      11.492  -9.813   1.494  0.00  0.00    +0.038 C 
ATOM     27  C   UNL     1      11.135 -10.256   0.073  0.00  0.00    +0.007 C 
ENDBRANCH  25  26
ENDBRANCH  24  25
ENDBRANCH  20  24
ENDBRANCH  15  17
ENDBRANCH   3  15
BRANCH   1  28
ATOM     28  C   UNL     1       2.832  -4.285   3.363  0.00  0.00    +0.107 C 
BRANCH  28  29
ATOM     29  C   UNL     1       2.405  -2.923   3.914  0.00  0.00    +0.000 C 
BRANCH  29  30
ATOM     30  C   UNL     1       1.521  -2.212   2.887  0.00  0.00    -0.077 C 
BRANCH  30  31
ATOM     31  N   UNL     1       1.010  -0.961   3.463  0.00  0.00    +0.380 N 
ATOM     32  H   UNL     1       0.557  -1.157   4.343  0.00  0.00    -0.082 HD
BRANCH  31  33
ATOM     33  C   UNL     1       0.043  -0.355   2.538  0.00  0.00    -0.079 C 
BRANCH  33  34
ATOM     34  C   UNL     1      -1.189  -1.255   2.427  0.00  0.00    -0.019 C 
BRANCH  34  35
ATOM     35  C   UNL     1      -2.168  -0.657   1.415  0.00  0.00    -0.005 C 
ATOM     36  C   UNL     1      -3.401  -1.557   1.305  0.00  0.00    +0.004 C 
ENDBRANCH  34  35
ENDBRANCH  33  34
ENDBRANCH  31  33
BRANCH  31  37
ATOM     37  C   UNL     1       2.126  -0.032   3.683  0.00  0.00    -0.079 C 
BRANCH  37  38
ATOM     38  C   UNL     1       1.614   1.221   4.396  0.00  0.00    -0.019 C 
BRANCH  38  40
ATOM     39  C   UNL     1       2.264   3.442   5.339  0.00  0.00    +0.004 C 
ATOM     40  C   UNL     1       2.776   2.189   4.625  0.00  0.00    -0.005 C 
ENDBRANCH  38  40
ENDBRANCH  37  38
ENDBRANCH  31  37
ENDBRANCH  30  31
ENDBRANCH  29  30
ENDBRANCH  28  29
ENDBRANCH   1  28
TORSDOF 16
