REMARK  Name = ZINC01374181
REMARK  11 active torsions:
REMARK  status: ('A' for Active; 'I' for Inactive)
REMARK    1  A    between atoms: C_1  and  C_2
REMARK    2  A    between atoms: C_2  and  C_3
REMARK    3  A    between atoms: C_3  and  C_5
REMARK    4  A    between atoms: C_3  and  N_17
REMARK    5  A    between atoms: N_9  and  C_10
REMARK    6  A    between atoms: C_10  and  C_11
REMARK    7  A    between atoms: N_17  and  C_18
REMARK    8  A    between atoms: N_17  and  C_28
REMARK    9  A    between atoms: C_18  and  C_19
REMARK   10  A    between atoms: C_28  and  C_29
REMARK   11  A    between atoms: C_34  and  C_41
REMARK                            x       y       z     vdW  Elec       q    Type
REMARK                         _______ _______ _______ _____ _____    ______ ____
ROOT
ATOM      1  N   UNL     1      -2.234  -0.409   1.637  0.00  0.00    -0.284 NA
ENDROOT
BRANCH   1   2
ATOM      2  C   UNL     1      -1.807  -1.316   0.563  0.00  0.00    +0.127 C 
BRANCH   2   3
ATOM      3  C   UNL     1      -2.077  -2.741   0.971  0.00  0.00    +0.169 A 
ATOM      4  N   UNL     1      -1.821  -3.283   2.137  0.00  0.00    -0.112 NA
ATOM      5  N   UNL     1      -2.196  -4.515   2.094  0.00  0.00    -0.023 NA
ATOM      6  N   UNL     1      -2.683  -4.773   0.930  0.00  0.00    -0.044 NA
ATOM      7  N   UNL     1      -2.632  -3.703   0.211  0.00  0.00    -0.223 N 
BRANCH   7   8
ATOM      8  C   UNL     1      -3.090  -3.563  -1.173  0.00  0.00    +0.182 C 
BRANCH   8   9
ATOM      9  C   UNL     1      -1.959  -3.892  -2.112  0.00  0.00    -0.026 A 
ATOM     10  C   UNL     1      -1.098  -2.896  -2.534  0.00  0.00    +0.005 A 
ATOM     11  C   UNL     1      -0.060  -3.198  -3.396  0.00  0.00    +0.000 A 
ATOM     12  C   UNL     1       0.118  -4.497  -3.835  0.00  0.00    +0.000 A 
ATOM     13  C   UNL     1      -0.742  -5.493  -3.413  0.00  0.00    +0.000 A 
ATOM     14  C   UNL     1      -1.778  -5.192  -2.548  0.00  0.00    +0.005 A 
ENDBRANCH   8   9
ENDBRANCH   7   8
ENDBRANCH   2   3
BRANCH   2  16
ATOM     15  C   UNL     1      -0.043   0.297  -0.166  0.00  0.00    +0.006 C 
ATOM     16  C   UNL     1      -0.309  -1.133   0.307  0.00  0.00    +0.023 C 
ENDBRANCH   2  16
ENDBRANCH   1   2
BRANCH   1  17
ATOM     17  C   UNL     1      -1.228  -0.349   2.706  0.00  0.00    +0.120 C 
BRANCH  17  18
ATOM     18  C   UNL     1      -1.850   0.234   3.949  0.00  0.00    -0.030 A 
ATOM     19  C   UNL     1      -1.711   1.581   4.223  0.00  0.00    +0.009 A 
ATOM     20  C   UNL     1      -2.280   2.121   5.361  0.00  0.00    +0.050 A 
ATOM     21  C   UNL     1      -2.992   1.311   6.231  0.00  0.00    +0.166 A 
ATOM     22  C   UNL     1      -3.132  -0.047   5.955  0.00  0.00    +0.167 A 
ATOM     23  C   UNL     1      -2.564  -0.580   4.809  0.00  0.00    +0.054 A 
ATOM     24  O   UNL     1      -3.868  -0.621   6.952  0.00  0.00    -0.453 OA
ATOM     25  C   UNL     1      -3.828   0.314   8.046  0.00  0.00    +0.466 C 
ATOM     26  O   UNL     1      -3.639   1.588   7.401  0.00  0.00    -0.453 OA
ENDBRANCH  17  18
ENDBRANCH   1  17
BRANCH   1  27
ATOM     27  C   UNL     1      -2.523   0.931   1.111  0.00  0.00    +0.126 C 
BRANCH  27  28
ATOM     28  C   UNL     1      -3.866   0.924   0.427  0.00  0.00    +0.031 A 
ATOM     29  C   UNL     1      -4.980   1.261   1.123  0.00  0.00    +0.020 A 
ATOM     30  C   UNL     1      -6.270   1.244   0.430  0.00  0.00    -0.001 A 
ATOM     31  C   UNL     1      -7.453   1.583   1.095  0.00  0.00    +0.010 A 
ATOM     32  C   UNL     1      -8.640   1.558   0.419  0.00  0.00    +0.004 A 
ATOM     33  C   UNL     1      -8.683   1.198  -0.921  0.00  0.00    -0.048 A 
ATOM     34  C   UNL     1      -7.530   0.860  -1.596  0.00  0.00    +0.029 A 
ATOM     35  C   UNL     1      -6.309   0.880  -0.929  0.00  0.00    +0.049 A 
ATOM     36  N   UNL     1      -5.140   0.547  -1.580  0.00  0.00    -0.322 N 
ATOM     37  H   UNL     1      -5.169   0.296  -2.516  0.00  0.00    +0.169 HD
ATOM     38  C   UNL     1      -3.960   0.571  -0.936  0.00  0.00    +0.254 A 
ATOM     39  O   UNL     1      -2.945   0.276  -1.544  0.00  0.00    -0.268 OA
ATOM     40  C   UNL     1     -10.004   1.177  -1.646  0.00  0.00    +0.044 C 
ENDBRANCH  27  28
ENDBRANCH   1  27
TORSDOF 9
