REMARK  Name = ZINC61712615
REMARK  2 active torsions:
REMARK  status: ('A' for Active; 'I' for Inactive)
REMARK    1  A    between atoms: C_9  and  C_12
REMARK    2  A    between atoms: C_17  and  O_20
REMARK                            x       y       z     vdW  Elec       q    Type
REMARK                         _______ _______ _______ _____ _____    ______ ____
ROOT
ATOM      1  C   UNL     1      -0.017   1.377   0.010  0.00  0.00    +0.000 A 
ATOM      2  C   UNL     1       1.170   2.088   0.002  0.00  0.00    +0.002 A 
ATOM      3  C   UNL     1       2.375   1.416  -0.011  0.00  0.00    +0.023 A 
ATOM      4  C   UNL     1       2.396   0.025  -0.019  0.00  0.00    +0.031 A 
ATOM      5  C   UNL     1       1.207  -0.687  -0.015  0.00  0.00    -0.026 A 
ATOM      6  C   UNL     1       0.002  -0.004   0.002  0.00  0.00    +0.005 A 
ATOM      7  C   UNL     1       1.191  -2.192  -0.033  0.00  0.00    +0.039 C 
ATOM      8  C   UNL     1       2.531  -2.748   0.451  0.00  0.00    +0.036 C 
ATOM      9  C   UNL     1       3.661  -2.073  -0.337  0.00  0.00    +0.157 C 
ATOM     10  N   UNL     1       3.629  -0.637  -0.028  0.00  0.00    -0.333 N 
ATOM     11  H   UNL     1       4.448  -0.156   0.166  0.00  0.00    +0.147 HD
ENDROOT
BRANCH   9  12
ATOM     12  C   UNL     1       4.989  -2.655   0.076  0.00  0.00    +0.236 C 
ATOM     13  O   UNL     1       5.694  -2.060   0.863  0.00  0.00    -0.274 OA
ATOM     14  N   UNL     1       5.393  -3.837  -0.430  0.00  0.00    -0.297 N 
ATOM     15  C   UNL     1       4.644  -4.658  -1.393  0.00  0.00    +0.110 C 
ATOM     16  C   UNL     1       5.504  -5.901  -1.703  0.00  0.00    +0.052 C 
ATOM     17  C   UNL     1       6.936  -5.433  -1.331  0.00  0.00    +0.133 C 
ATOM     18  C   UNL     1       6.661  -4.519  -0.115  0.00  0.00    +0.139 C 
BRANCH  17  19
ATOM     19  O   UNL     1       7.759  -6.543  -0.966  0.00  0.00    -0.390 OA
ATOM     20  H   UNL     1       7.880  -7.192  -1.673  0.00  0.00    +0.210 HD
ENDBRANCH  17  19
ENDBRANCH   9  12
TORSDOF 2
