REMARK  Name = ZINC15860461
REMARK  6 active torsions:
REMARK  status: ('A' for Active; 'I' for Inactive)
REMARK    1  A    between atoms: C_1  and  C_2
REMARK    2  A    between atoms: C_5  and  C_7
REMARK    3  A    between atoms: C_7  and  C_9
REMARK    4  A    between atoms: C_7  and  N_47
REMARK    5  A    between atoms: C_9  and  N_10
REMARK    6  A    between atoms: C_11  and  C_13
REMARK                            x       y       z     vdW  Elec       q    Type
REMARK                         _______ _______ _______ _____ _____    ______ ____
ROOT
ATOM      1  N   UNL     1      -5.090   4.531   2.601  0.00  0.00    -0.312 N 
ATOM      2  C   UNL     1      -5.380   5.751   2.106  0.00  0.00    +0.252 C 
ATOM      3  O   UNL     1      -4.511   6.411   1.568  0.00  0.00    -0.270 OA
ATOM      4  H   UNL     1      -5.783   4.005   3.029  0.00  0.00    +0.149 HD
ENDROOT
BRANCH   2   5
ATOM      5  C   UNL     1      -6.744   6.283   2.215  0.00  0.00    +0.093 A 
ATOM      6  C   UNL     1      -7.223   7.482   1.786  0.00  0.00    +0.069 A 
ATOM      7  C   UNL     1      -8.578   7.807   1.985  0.00  0.00    +0.027 A 
ATOM      8  C   UNL     1      -9.347   6.822   2.648  0.00  0.00    +0.023 A 
ATOM      9  S   UNL     1      -8.179   5.519   2.950  0.00  0.00    -0.082 S 
ATOM     10  C   UNL     1     -10.687   6.995   2.920  0.00  0.00    +0.016 A 
ATOM     11  C   UNL     1     -11.313   8.165   2.537  0.00  0.00    +0.003 A 
ATOM     12  C   UNL     1     -10.584   9.150   1.884  0.00  0.00    +0.021 A 
ATOM     13  C   UNL     1      -9.261   8.993   1.609  0.00  0.00    +0.051 A 
ATOM     14 CL   UNL     1      -8.399  10.257   0.790  0.00  0.00    -0.083 Cl
ATOM     15 CL   UNL     1      -6.167   8.607   0.991  0.00  0.00    -0.082 Cl
ENDBRANCH   2   5
BRANCH   1  16
ATOM     16  C   UNL     1      -3.729   4.001   2.492  0.00  0.00    +0.097 C 
BRANCH  16  17
ATOM     17  C   UNL     1      -3.672   2.610   3.127  0.00  0.00    +0.016 C 
BRANCH  17  22
ATOM     18  C   UNL     1       0.296   0.487   0.849  0.00  0.00    +0.086 C 
ATOM     19  C   UNL     1      -0.580   1.091   1.917  0.00  0.00    +0.102 A 
ATOM     20  C   UNL     1      -0.241   1.264   3.207  0.00  0.00    +0.044 A 
ATOM     21  C   UNL     1      -1.354   1.859   3.845  0.00  0.00    +0.043 A 
ATOM     22  C   UNL     1      -2.305   2.013   2.907  0.00  0.00    +0.093 A 
ATOM     23  O   UNL     1      -1.829   1.551   1.740  0.00  0.00    -0.466 OA
ENDBRANCH  17  22
BRANCH  17  28
ATOM     24  C   UNL     1      -4.567   1.757   1.030  0.00  0.00    -0.078 C 
ATOM     25  C   UNL     1      -5.302   0.460   0.606  0.00  0.00    -0.020 C 
ATOM     26  C   UNL     1      -4.913  -0.538   1.721  0.00  0.00    -0.020 C 
ATOM     27  C   UNL     1      -4.506   0.338   2.921  0.00  0.00    -0.078 C 
ATOM     28  N   UNL     1      -4.696   1.725   2.496  0.00  0.00    +0.387 N 
ATOM     29  H   UNL     1      -5.633   2.046   2.768  0.00  0.00    -0.081 HD
ENDBRANCH  17  28
ENDBRANCH  16  17
ENDBRANCH   1  16
TORSDOF 5
