REMARK  Name = ZINC20190312
REMARK  10 active torsions:
REMARK  status: ('A' for Active; 'I' for Inactive)
REMARK    1  A    between atoms: C_1  and  C_2
REMARK    2  A    between atoms: C_2  and  S_3
REMARK    3  A    between atoms: S_3  and  C_6
REMARK    4  A    between atoms: C_6  and  S_22
REMARK    5  A    between atoms: C_7  and  S_8
REMARK    6  A    between atoms: C_7  and  S_15
REMARK    7  A    between atoms: S_8  and  C_9
REMARK    8  A    between atoms: S_15  and  C_16
REMARK    9  A    between atoms: S_22  and  C_25
REMARK   10  A    between atoms: C_25  and  C_26
REMARK                            x       y       z     vdW  Elec       q    Type
REMARK                         _______ _______ _______ _____ _____    ______ ____
ROOT
ATOM      1  C   UNL     1       6.362  -0.234  -0.207  0.00  0.00    +0.220 C 
ATOM      2  C   UNL     1       5.251   0.494  -0.100  0.00  0.00    +0.093 C 
ENDROOT
BRANCH   1   3
ATOM      3  S   UNL     1       7.930   0.563  -0.311  0.00  0.00    +0.015 S 
ATOM      4  O   UNL     1       8.758  -0.356  -1.010  0.00  0.00    -0.168 OA
ATOM      5  O   UNL     1       7.650   1.845  -0.856  0.00  0.00    -0.168 OA
BRANCH   3   7
ATOM      6  C   UNL     1       9.854   1.409   1.439  0.00  0.00    +0.028 C 
ATOM      7  C   UNL     1       8.487   0.723   1.408  0.00  0.00    +0.170 C 
ENDBRANCH   3   7
ENDBRANCH   1   3
BRANCH   1   8
ATOM      8  S   UNL     1       6.263  -1.992  -0.243  0.00  0.00    +0.015 S 
ATOM      9  O   UNL     1       7.517  -2.437   0.256  0.00  0.00    -0.168 OA
ATOM     10  O   UNL     1       5.059  -2.302   0.444  0.00  0.00    -0.168 OA
BRANCH   8  11
ATOM     11  C   UNL     1       6.105  -2.414  -2.001  0.00  0.00    +0.170 C 
ATOM     12  C   UNL     1       6.011  -3.933  -2.155  0.00  0.00    +0.028 C 
ENDBRANCH   8  11
ENDBRANCH   1   8
BRANCH   2  13
ATOM     13  S   UNL     1       3.674  -0.287  -0.192  0.00  0.00    -0.079 S 
BRANCH  13  14
ATOM     14  C   UNL     1       2.994   0.302  -1.707  0.00  0.00    +0.013 A 
ATOM     15  C   UNL     1       1.730  -0.111  -2.110  0.00  0.00    +0.015 A 
ATOM     16  C   UNL     1       1.201   0.352  -3.298  0.00  0.00    +0.001 A 
ATOM     17  C   UNL     1       1.927   1.226  -4.087  0.00  0.00    +0.000 A 
ATOM     18  C   UNL     1       3.185   1.640  -3.688  0.00  0.00    +0.001 A 
ATOM     19  C   UNL     1       3.721   1.181  -2.501  0.00  0.00    +0.015 A 
ENDBRANCH  13  14
ENDBRANCH   2  13
BRANCH   2  20
ATOM     20  S   UNL     1       5.359   2.237   0.133  0.00  0.00    -0.079 S 
BRANCH  20  21
ATOM     21  C   UNL     1       4.718   2.491   1.755  0.00  0.00    +0.013 A 
ATOM     22  C   UNL     1       4.404   1.401   2.558  0.00  0.00    +0.015 A 
ATOM     23  C   UNL     1       3.908   1.603   3.831  0.00  0.00    +0.001 A 
ATOM     24  C   UNL     1       3.713   2.889   4.302  0.00  0.00    +0.000 A 
ATOM     25  C   UNL     1       4.019   3.976   3.503  0.00  0.00    +0.001 A 
ATOM     26  C   UNL     1       4.521   3.781   2.232  0.00  0.00    +0.015 A 
ENDBRANCH  20  21
ENDBRANCH   2  20
TORSDOF 8
