REMARK  Name = ZINC05198225
REMARK  8 active torsions:
REMARK  status: ('A' for Active; 'I' for Inactive)
REMARK    1  A    between atoms: C_1  and  C_2
REMARK    2  A    between atoms: C_2  and  O_3
REMARK    3  A    between atoms: O_3  and  C_4
REMARK    4  A    between atoms: C_4  and  C_6
REMARK    5  A    between atoms: N_8  and  C_13
REMARK    6  A    between atoms: C_13  and  C_14
REMARK    7  A    between atoms: N_16  and  C_17
REMARK    8  A    between atoms: C_20  and  N_23
REMARK                            x       y       z     vdW  Elec       q    Type
REMARK                         _______ _______ _______ _____ _____    ______ ____
ROOT
ATOM      1  C   UNL     1      -2.904  -0.114  -1.391  0.00  0.00    +0.235 C 
ATOM      2  O   UNL     1      -2.180  -0.399  -2.321  0.00  0.00    -0.274 OA
ATOM      3  N   UNL     1      -4.133   0.389  -1.623  0.00  0.00    -0.284 N 
ATOM      4  H   UNL     1      -4.736   0.554  -0.882  0.00  0.00    +0.155 HD
ENDROOT
BRANCH   3   5
ATOM      5  C   UNL     1      -4.538   0.671  -2.934  0.00  0.00    +0.034 A 
ATOM      6  C   UNL     1      -5.365   1.758  -3.186  0.00  0.00    +0.025 A 
ATOM      7  C   UNL     1      -5.760   2.040  -4.478  0.00  0.00    +0.025 A 
ATOM      8  C   UNL     1      -5.340   1.231  -5.525  0.00  0.00    +0.030 A 
ATOM      9  C   UNL     1      -4.518   0.140  -5.272  0.00  0.00    +0.025 A 
ATOM     10  C   UNL     1      -4.118  -0.139  -3.980  0.00  0.00    +0.025 A 
BRANCH   8  11
ATOM     11  N   UNL     1      -5.744   1.513  -6.834  0.00  0.00    -0.330 N 
ATOM     12  C   UNL     1      -4.584   1.667  -7.721  0.00  0.00    +0.105 C 
ATOM     13  C   UNL     1      -5.063   1.830  -9.166  0.00  0.00    +0.019 C 
ATOM     14  C   UNL     1      -5.970   3.061  -9.262  0.00  0.00    +0.003 C 
ATOM     15  C   UNL     1      -7.144   2.897  -8.293  0.00  0.00    +0.019 C 
ATOM     16  C   UNL     1      -6.605   2.703  -6.874  0.00  0.00    +0.105 C 
ENDBRANCH   8  11
ENDBRANCH   3   5
BRANCH   1  17
ATOM     17  C   UNL     1      -2.428  -0.320   0.024  0.00  0.00    +0.210 C 
BRANCH  17  20
ATOM     18  C   UNL     1      -0.024   1.362   0.027  0.00  0.00    +0.122 C 
ATOM     19  C   UNL     1      -0.001  -0.004   0.011  0.00  0.00    +0.078 C 
ATOM     20  N   UNL     1      -1.071  -0.872   0.008  0.00  0.00    -0.256 N 
ATOM     21  C   UNL     1      -0.918  -2.185  -0.009  0.00  0.00    +0.231 C 
ATOM     22  O   UNL     1      -1.863  -2.944  -0.013  0.00  0.00    -0.274 OA
ATOM     23  C   UNL     1       0.518  -2.683  -0.026  0.00  0.00    +0.171 C 
ATOM     24  S   UNL     1       1.421  -1.084  -0.019  0.00  0.00    -0.100 S 
BRANCH  18  25
ATOM     25  C   UNL     1       1.178   2.082   0.028  0.00  0.00    +0.334 C 
ATOM     26  O   UNL     1       2.243   1.490   0.013  0.00  0.00    -0.246 OA
BRANCH  25  27
ATOM     27  O   UNL     1       1.157   3.433   0.044  0.00  0.00    -0.462 OA
BRANCH  27  29
ATOM     28  C   UNL     1       2.194   5.615   0.063  0.00  0.00    +0.048 C 
ATOM     29  C   UNL     1       2.419   4.102   0.043  0.00  0.00    +0.229 C 
ENDBRANCH  27  29
ENDBRANCH  25  27
ENDBRANCH  18  25
ENDBRANCH  17  20
ENDBRANCH   1  17
TORSDOF 7
