REMARK  Name = ZINC06640570
REMARK  7 active torsions:
REMARK  status: ('A' for Active; 'I' for Inactive)
REMARK    1  A    between atoms: C_1  and  C_2
REMARK    2  A    between atoms: C_5  and  C_7
REMARK    3  A    between atoms: C_7  and  O_9
REMARK    4  A    between atoms: O_9  and  C_10
REMARK    5  A    between atoms: C_10  and  C_11
REMARK    6  A    between atoms: N_13  and  C_14
REMARK    7  A    between atoms: C_15  and  C_23
REMARK                            x       y       z     vdW  Elec       q    Type
REMARK                         _______ _______ _______ _____ _____    ______ ____
ROOT
ATOM      1  C   UNL     1       3.684   3.388  -0.161  0.00  0.00    +0.084 A 
ATOM      2  C   UNL     1       3.757   2.044   0.178  0.00  0.00    +0.068 A 
ATOM      3  C   UNL     1       2.509   1.305   0.265  0.00  0.00    -0.023 A 
ATOM      4  C   UNL     1       1.396   2.022  -0.000  0.00  0.00    -0.004 A 
ATOM      5  S   UNL     1       1.984   3.654  -0.359  0.00  0.00    -0.077 S 
ATOM      6  C   UNL     1      -0.019   1.531   0.011  0.00  0.00    +0.043 C 
ATOM      7  C   UNL     1       0.002  -0.004   0.002  0.00  0.00    +0.005 C 
ATOM      8  C   UNL     1       0.993  -0.490   1.064  0.00  0.00    +0.005 C 
ATOM      9  C   UNL     1       2.423  -0.173   0.625  0.00  0.00    +0.037 C 
ENDROOT
BRANCH   2  10
ATOM     10  C   UNL     1       5.046   1.395   0.438  0.00  0.00    +0.244 C 
ATOM     11  O   UNL     1       5.659   0.873  -0.474  0.00  0.00    -0.270 OA
ATOM     12  N   UNL     1       5.551   1.376   1.687  0.00  0.00    -0.325 N 
ATOM     13  H   UNL     1       5.062   1.792   2.414  0.00  0.00    +0.145 HD
ATOM     14  H   UNL     1       6.403   0.946   1.859  0.00  0.00    +0.145 HD
ENDBRANCH   2  10
BRANCH   1  17
ATOM     15  C   UNL     1       4.454   5.575  -0.643  0.00  0.00    +0.255 C 
ATOM     16  O   UNL     1       3.308   5.929  -0.820  0.00  0.00    -0.272 OA
ATOM     17  N   UNL     1       4.721   4.298  -0.306  0.00  0.00    -0.277 N 
ATOM     18  H   UNL     1       5.638   4.014  -0.165  0.00  0.00    +0.155 HD
BRANCH  15  19
ATOM     19  C   UNL     1       5.581   6.563  -0.800  0.00  0.00    +0.328 C 
BRANCH  19  20
ATOM     20  O   UNL     1       5.040   7.861  -1.164  0.00  0.00    -0.455 OA
BRANCH  20  21
ATOM     21  C   UNL     1       5.918   8.859  -1.343  0.00  0.00    +0.311 C 
ATOM     22  O   UNL     1       7.101   8.656  -1.201  0.00  0.00    -0.251 OA
BRANCH  21  26
ATOM     23  C   UNL     1       7.947  10.946  -1.704  0.00  0.00    +0.008 C 
ATOM     24  C   UNL     1       6.481  11.329  -1.912  0.00  0.00    +0.000 C 
ATOM     25  C   UNL     1       5.573  11.346  -0.681  0.00  0.00    +0.019 C 
ATOM     26  C   UNL     1       5.430  10.234  -1.722  0.00  0.00    +0.101 C 
ENDBRANCH  21  26
ENDBRANCH  20  21
ENDBRANCH  19  20
ENDBRANCH  15  19
ENDBRANCH   1  17
TORSDOF 6
