REMARK  Name = ZINC34967070
REMARK  10 active torsions:
REMARK  status: ('A' for Active; 'I' for Inactive)
REMARK    1  A    between atoms: C_1  and  C_2
REMARK    2  A    between atoms: C_3  and  C_32
REMARK    3  A    between atoms: C_5  and  N_24
REMARK    4  A    between atoms: C_6  and  C_7
REMARK    5  A    between atoms: C_7  and  C_9
REMARK    6  A    between atoms: C_7  and  N_18
REMARK    7  A    between atoms: C_13  and  O_16
REMARK    8  A    between atoms: C_14  and  O_15
REMARK    9  A    between atoms: O_16  and  C_17
REMARK   10  A    between atoms: C_25  and  C_27
REMARK                            x       y       z     vdW  Elec       q    Type
REMARK                         _______ _______ _______ _____ _____    ______ ____
ROOT
ATOM      1  C   UNL     1      -0.218   0.005   2.543  0.00  0.00    +0.124 C 
ENDROOT
BRANCH   1   7
ATOM      2  C   UNL     1      -0.443   1.971   0.405  0.00  0.00    +0.045 C 
ATOM      3  C   UNL     1      -0.061   0.546   0.096  0.00  0.00    -0.034 A 
ATOM      4  C   UNL     1       0.187   0.163  -1.179  0.00  0.00    -0.008 A 
ATOM      5  S   UNL     1       0.580  -1.567  -0.979  0.00  0.00    -0.078 S 
ATOM      6  C   UNL     1       0.387  -1.666   0.793  0.00  0.00    +0.078 A 
ATOM      7  C   UNL     1       0.045  -0.386   1.111  0.00  0.00    +0.006 A 
ATOM      8  C   UNL     1       0.143   0.984  -2.442  0.00  0.00    +0.052 C 
BRANCH   6   9
ATOM      9  N   UNL     1       0.550  -2.768   1.635  0.00  0.00    -0.273 N 
ATOM     10  C   UNL     1       0.782  -3.988   1.112  0.00  0.00    +0.284 C 
ATOM     11  O   UNL     1       0.849  -4.130  -0.096  0.00  0.00    -0.266 OA
ATOM     12  H   UNL     1       0.496  -2.656   2.597  0.00  0.00    +0.156 HD
BRANCH  10  13
ATOM     13  C   UNL     1       0.953  -5.145   1.996  0.00  0.00    +0.189 A 
ATOM     14  C   UNL     1       1.196  -6.429   1.599  0.00  0.00    +0.054 A 
ATOM     15  C   UNL     1       1.288  -7.202   2.768  0.00  0.00    +0.042 A 
ATOM     16  C   UNL     1       1.098  -6.367   3.813  0.00  0.00    +0.196 A 
ATOM     17  O   UNL     1       0.902  -5.127   3.344  0.00  0.00    -0.458 OA
ENDBRANCH  10  13
ENDBRANCH   6   9
ENDBRANCH   1   7
BRANCH   1  18
ATOM     18  C   UNL     1      -1.510  -0.618   3.005  0.00  0.00    +0.019 A 
ATOM     19  C   UNL     1      -1.490  -1.794   3.731  0.00  0.00    +0.009 A 
ATOM     20  C   UNL     1      -2.674  -2.368   4.156  0.00  0.00    +0.004 A 
ATOM     21  C   UNL     1      -3.883  -1.768   3.856  0.00  0.00    +0.049 A 
ATOM     22  C   UNL     1      -3.910  -0.589   3.129  0.00  0.00    +0.162 A 
ATOM     23  C   UNL     1      -2.718  -0.009   2.706  0.00  0.00    +0.164 A 
BRANCH  23  24
ATOM     24  O   UNL     1      -2.739   1.151   1.996  0.00  0.00    -0.503 OA
ATOM     25  H   UNL     1      -2.792   1.026   1.039  0.00  0.00    +0.292 HD
ENDBRANCH  23  24
BRANCH  22  26
ATOM     26  O   UNL     1      -5.098   0.002   2.833  0.00  0.00    -0.491 OA
ATOM     27  C   UNL     1      -6.281  -0.648   3.304  0.00  0.00    +0.277 C 
ENDBRANCH  22  26
ENDBRANCH   1  18
BRANCH   1  28
ATOM     28  N   UNL     1       0.885  -0.470   3.390  0.00  0.00    -0.287 NA
ATOM     29  C   UNL     1       0.707  -0.030   4.782  0.00  0.00    +0.113 C 
ATOM     30  C   UNL     1       1.842  -0.595   5.639  0.00  0.00    +0.175 C 
ATOM     31  O   UNL     1       3.097  -0.176   5.095  0.00  0.00    -0.377 OA
ATOM     32  C   UNL     1       3.304  -0.588   3.741  0.00  0.00    +0.175 C 
ATOM     33  C   UNL     1       2.183  -0.023   2.865  0.00  0.00    +0.113 C 
ENDBRANCH   1  28
TORSDOF 7
