REMARK  Name = ZINC09534017
REMARK  8 active torsions:
REMARK  status: ('A' for Active; 'I' for Inactive)
REMARK    1  A    between atoms: C_4  and  C_7
REMARK    2  A    between atoms: C_8  and  S_9
REMARK    3  A    between atoms: S_9  and  N_12
REMARK    4  A    between atoms: C_15  and  C_18
REMARK    5  A    between atoms: N_20  and  C_21
REMARK    6  A    between atoms: C_21  and  C_22
REMARK    7  A    between atoms: C_22  and  C_24
REMARK    8  A    between atoms: C_22  and  N_63
REMARK                            x       y       z     vdW  Elec       q    Type
REMARK                         _______ _______ _______ _____ _____    ______ ____
ROOT
ATOM      1  N   UNL     1      -1.297   1.942   0.727  0.00  0.00    -0.177 NA
ATOM      2  C   UNL     1      -0.986   3.187   1.442  0.00  0.00    +0.110 C 
ATOM      3  C   UNL     1      -2.296   3.953   1.683  0.00  0.00    +0.030 C 
ATOM      4  C   UNL     1      -3.286   3.041   2.411  0.00  0.00    +0.077 C 
ATOM      5  C   UNL     1      -3.594   1.821   1.540  0.00  0.00    +0.030 C 
ATOM      6  C   UNL     1      -2.303   1.034   1.294  0.00  0.00    +0.110 C 
ENDROOT
BRANCH   4   7
ATOM      7  C   UNL     1      -4.560   3.799   2.683  0.00  0.00    +0.216 C 
ATOM      8  O   UNL     1      -5.611   3.402   2.225  0.00  0.00    -0.276 OA
ATOM      9  N   UNL     1      -4.532   4.917   3.434  0.00  0.00    -0.316 N 
ATOM     10  H   UNL     1      -3.691   5.234   3.800  0.00  0.00    +0.149 HD
BRANCH   9  11
ATOM     11  C   UNL     1      -5.770   5.654   3.698  0.00  0.00    +0.096 C 
BRANCH  11  12
ATOM     12  C   UNL     1      -5.462   6.873   4.569  0.00  0.00    +0.016 C 
BRANCH  12  17
ATOM     13  C   UNL     1      -4.785   7.992   2.515  0.00  0.00    -0.078 C 
ATOM     14  C   UNL     1      -3.910   9.228   2.185  0.00  0.00    -0.020 C 
ATOM     15  C   UNL     1      -3.926  10.027   3.508  0.00  0.00    -0.020 C 
ATOM     16  C   UNL     1      -4.280   8.996   4.596  0.00  0.00    -0.078 C 
ATOM     17  N   UNL     1      -4.413   7.710   3.911  0.00  0.00    +0.387 N 
ATOM     18  H   UNL     1      -3.518   7.208   3.937  0.00  0.00    -0.081 HD
ENDBRANCH  12  17
BRANCH  12  19
ATOM     19  C   UNL     1      -6.712   7.698   4.739  0.00  0.00    +0.093 A 
ATOM     20  C   UNL     1      -7.452   7.782   5.859  0.00  0.00    +0.043 A 
ATOM     21  C   UNL     1      -8.524   8.659   5.576  0.00  0.00    +0.041 A 
ATOM     22  C   UNL     1      -8.375   9.059   4.300  0.00  0.00    +0.195 A 
ATOM     23  O   UNL     1      -7.272   8.478   3.800  0.00  0.00    -0.469 OA
ENDBRANCH  12  19
ENDBRANCH  11  12
ENDBRANCH   9  11
ENDBRANCH   4   7
BRANCH   1  24
ATOM     24  S   UNL     1      -0.523   1.565  -0.688  0.00  0.00    +0.054 S 
ATOM     25  O   UNL     1      -0.586   0.152  -0.821  0.00  0.00    -0.153 OA
ATOM     26  O   UNL     1       0.708   2.276  -0.679  0.00  0.00    -0.153 OA
BRANCH  24  28
ATOM     27  C   UNL     1      -0.985   3.206  -2.759  0.00  0.00    +0.028 C 
ATOM     28  C   UNL     1      -1.484   2.238  -2.002  0.00  0.00    +0.153 C 
BRANCH  27  32
ATOM     29  C   UNL     1      -3.301   4.828  -5.929  0.00  0.00    +0.000 A 
ATOM     30  C   UNL     1      -2.027   5.312  -5.689  0.00  0.00    +0.001 A 
ATOM     31  C   UNL     1      -1.270   4.789  -4.661  0.00  0.00    +0.008 A 
ATOM     32  C   UNL     1      -1.791   3.770  -3.862  0.00  0.00    -0.024 A 
ATOM     33  C   UNL     1      -3.075   3.283  -4.113  0.00  0.00    +0.008 A 
ATOM     34  C   UNL     1      -3.824   3.819  -5.140  0.00  0.00    +0.001 A 
ENDBRANCH  27  32
ENDBRANCH  24  28
ENDBRANCH   1  24
TORSDOF 8
