REMARK  Name = ZINC63663831
REMARK  11 active torsions:
REMARK  status: ('A' for Active; 'I' for Inactive)
REMARK    1  A    between atoms: C_1  and  C_2
REMARK    2  A    between atoms: C_2  and  C_4
REMARK    3  A    between atoms: C_2  and  N_24
REMARK    4  A    between atoms: C_4  and  C_6
REMARK    5  A    between atoms: C_4  and  N_11
REMARK    6  A    between atoms: N_14  and  C_17
REMARK    7  A    between atoms: C_17  and  C_18
REMARK    8  A    between atoms: C_25  and  C_27
REMARK    9  A    between atoms: N_29  and  C_30
REMARK   10  A    between atoms: C_30  and  C_31
REMARK   11  A    between atoms: C_31  and  C_32
REMARK                            x       y       z     vdW  Elec       q    Type
REMARK                         _______ _______ _______ _____ _____    ______ ____
ROOT
ATOM      1  C   UNL     1      -1.410  -0.636   0.056  0.00  0.00    +0.030 C 
ATOM      2  C   UNL     1       0.047  -0.171   0.097  0.00  0.00    +0.092 C 
ENDROOT
BRANCH   2   3
ATOM      3  N   UNL     1       0.721  -0.777   1.249  0.00  0.00    -0.303 N 
ATOM      4  C   UNL     1       0.636  -0.196   2.462  0.00  0.00    +0.299 C 
ATOM      5  O   UNL     1       0.001   0.829   2.600  0.00  0.00    -0.265 OA
ATOM      6  H   UNL     1       1.228  -1.597   1.138  0.00  0.00    +0.149 HD
BRANCH   4   7
ATOM      7  C   UNL     1       1.323  -0.815   3.636  0.00  0.00    +0.299 C 
ATOM      8  O   UNL     1       1.957  -1.840   3.498  0.00  0.00    -0.265 OA
ATOM      9  N   UNL     1       1.238  -0.234   4.849  0.00  0.00    -0.307 N 
ATOM     10  H   UNL     1       0.731   0.586   4.960  0.00  0.00    +0.149 HD
BRANCH   9  11
ATOM     11  C   UNL     1       1.911  -0.840   6.001  0.00  0.00    +0.109 C 
BRANCH  11  12
ATOM     12  C   UNL     1       1.657   0.012   7.246  0.00  0.00    +0.052 C 
BRANCH  12  13
ATOM     13  C   UNL     1       2.350  -0.611   8.431  0.00  0.00    -0.040 C 
ATOM     14  C   UNL     1       3.574  -0.299   8.914  0.00  0.00    -0.001 A 
ATOM     15  C   UNL     1       4.588   0.677   8.498  0.00  0.00    +0.010 A 
ATOM     16  C   UNL     1       5.744   0.760   9.195  0.00  0.00    +0.001 A 
ATOM     17  C   UNL     1       5.997  -0.061  10.303  0.00  0.00    +0.002 A 
ATOM     18  C   UNL     1       5.114  -0.981  10.745  0.00  0.00    +0.026 A 
ATOM     19  C   UNL     1       3.865  -1.153  10.087  0.00  0.00    +0.043 A 
ATOM     20  N   UNL     1       2.861  -1.963  10.320  0.00  0.00    -0.380 N 
ATOM     21  C   UNL     1       1.815  -1.709   9.323  0.00  0.00    +0.144 C 
ATOM     22  H   UNL     1       2.815  -2.618  11.034  0.00  0.00    +0.160 HD
ENDBRANCH  12  13
ENDBRANCH  11  12
ENDBRANCH   9  11
ENDBRANCH   4   7
ENDBRANCH   2   3
BRANCH   2  23
ATOM     23  C   UNL     1       0.756  -0.597  -1.190  0.00  0.00    +0.114 C 
BRANCH  23  24
ATOM     24  N   UNL     1       2.164  -0.185  -1.133  0.00  0.00    -0.291 NA
ATOM     25  C   UNL     1       2.280   1.271  -0.970  0.00  0.00    +0.100 C 
ATOM     26  C   UNL     1       3.757   1.650  -0.836  0.00  0.00    +0.100 C 
ATOM     27  N   UNL     1       4.487   1.198  -2.028  0.00  0.00    -0.296 NA
ATOM     28  C   UNL     1       4.371  -0.258  -2.192  0.00  0.00    +0.100 C 
ATOM     29  C   UNL     1       2.894  -0.638  -2.326  0.00  0.00    +0.100 C 
BRANCH  27  30
ATOM     30  C   UNL     1       5.896   1.610  -1.972  0.00  0.00    +0.119 C 
BRANCH  30  31
ATOM     31  C   UNL     1       6.549   1.349  -3.304  0.00  0.00    -0.033 A 
ATOM     32  C   UNL     1       7.151   0.130  -3.552  0.00  0.00    +0.005 A 
ATOM     33  C   UNL     1       7.751  -0.110  -4.774  0.00  0.00    +0.000 A 
ATOM     34  C   UNL     1       7.748   0.871  -5.749  0.00  0.00    +0.000 A 
ATOM     35  C   UNL     1       7.146   2.090  -5.502  0.00  0.00    +0.000 A 
ATOM     36  C   UNL     1       6.542   2.328  -4.281  0.00  0.00    +0.005 A 
ENDBRANCH  30  31
ENDBRANCH  27  30
ENDBRANCH  23  24
BRANCH  23  37
ATOM     37  C   UNL     1       0.676  -2.095  -1.335  0.00  0.00    +0.009 A 
ATOM     38  C   UNL     1      -0.162  -2.836  -2.100  0.00  0.00    +0.013 A 
ATOM     39  C   UNL     1      -0.052  -4.213  -2.076  0.00  0.00    +0.008 A 
ATOM     40  C   UNL     1       0.891  -4.783  -1.287  0.00  0.00    +0.045 A 
ATOM     41  S   UNL     1       1.668  -3.355  -0.549  0.00  0.00    -0.100 S 
ENDBRANCH  23  37
ENDBRANCH   2  23
TORSDOF 10
