REMARK  Name = ZINC39765857
REMARK  10 active torsions:
REMARK  status: ('A' for Active; 'I' for Inactive)
REMARK    1  A    between atoms: C_1  and  C_2
REMARK    2  A    between atoms: C_2  and  C_3
REMARK    3  A    between atoms: C_3  and  C_5
REMARK    4  A    between atoms: C_3  and  S_13
REMARK    5  A    between atoms: S_13  and  C_14
REMARK    6  A    between atoms: C_17  and  C_20
REMARK    7  A    between atoms: N_18  and  C_19
REMARK    8  A    between atoms: C_20  and  C_22
REMARK    9  A    between atoms: C_20  and  N_23
REMARK   10  A    between atoms: C_24  and  C_26
REMARK                            x       y       z     vdW  Elec       q    Type
REMARK                         _______ _______ _______ _____ _____    ______ ____
ROOT
ATOM      1  C   UNL     1       2.708   1.594   1.397  0.00  0.00    +0.192 A 
ATOM      2  N   UNL     1       1.694   2.403   1.600  0.00  0.00    -0.122 NA
ATOM      3  N   UNL     1       2.122   3.601   1.784  0.00  0.00    -0.132 NA
ATOM      4  C   UNL     1       3.423   3.628   1.710  0.00  0.00    +0.154 A 
ATOM      5  N   UNL     1       3.843   2.350   1.467  0.00  0.00    -0.308 N 
ATOM      6  C   UNL     1       5.225   1.888   1.310  0.00  0.00    +0.152 C 
ENDROOT
BRANCH   4   7
ATOM      7  C   UNL     1       4.301   4.842   1.869  0.00  0.00    +0.138 C 
ATOM      8  C   UNL     1       4.379   5.225   3.349  0.00  0.00    +0.036 C 
BRANCH   7   9
ATOM      9  N   UNL     1       3.736   5.957   1.106  0.00  0.00    -0.302 N 
ATOM     10  C   UNL     1       4.536   6.952   0.673  0.00  0.00    +0.245 C 
ATOM     11  O   UNL     1       5.727   6.924   0.917  0.00  0.00    -0.270 OA
ATOM     12  H   UNL     1       2.786   5.980   0.911  0.00  0.00    +0.150 HD
BRANCH  10  13
ATOM     13  C   UNL     1       3.966   8.077  -0.097  0.00  0.00    +0.038 A 
ATOM     14  C   UNL     1       2.598   8.115  -0.373  0.00  0.00    +0.014 A 
ATOM     15  C   UNL     1       2.071   9.167  -1.093  0.00  0.00    +0.022 A 
ATOM     16  C   UNL     1       2.896  10.185  -1.541  0.00  0.00    +0.059 A 
ATOM     17  C   UNL     1       4.255  10.153  -1.271  0.00  0.00    +0.060 A 
ATOM     18  C   UNL     1       4.792   9.108  -0.546  0.00  0.00    +0.034 A 
ATOM     19 CL   UNL     1       5.281  11.434  -1.837  0.00  0.00    -0.082 Cl
ATOM     20 CL   UNL     1       2.225  11.505  -2.447  0.00  0.00    -0.082 Cl
ENDBRANCH  10  13
ENDBRANCH   7   9
ENDBRANCH   4   7
BRANCH   1  21
ATOM     21  S   UNL     1       2.621  -0.141   1.099  0.00  0.00    -0.073 S 
BRANCH  21  22
ATOM     22  C   UNL     1       0.860  -0.530   1.288  0.00  0.00    +0.140 C 
BRANCH  22  23
ATOM     23  C   UNL     1       0.454  -0.338   2.727  0.00  0.00    +0.232 C 
ATOM     24  O   UNL     1       1.297  -0.334   3.599  0.00  0.00    -0.274 OA
ATOM     25  N   UNL     1      -0.845  -0.171   3.044  0.00  0.00    -0.264 N 
ATOM     26  C   UNL     1      -1.219   0.006   4.371  0.00  0.00    +0.164 A 
ATOM     27  N   UNL     1      -0.452   0.044   5.439  0.00  0.00    -0.233 NA
ATOM     28  C   UNL     1      -0.965   0.221   6.642  0.00  0.00    +0.120 A 
ATOM     29  C   UNL     1      -2.311   0.361   6.723  0.00  0.00    +0.068 A 
ATOM     30  S   UNL     1      -2.764   0.231   5.001  0.00  0.00    -0.061 S 
ATOM     31  H   UNL     1      -1.519  -0.174   2.346  0.00  0.00    +0.157 HD
ENDBRANCH  22  23
BRANCH  22  33
ATOM     32  C   UNL     1       0.892  -2.146  -0.618  0.00  0.00    +0.005 C 
ATOM     33  C   UNL     1       0.612  -1.983   0.878  0.00  0.00    +0.020 C 
ENDBRANCH  22  33
ENDBRANCH  21  22
ENDBRANCH   1  21
TORSDOF 7
