REMARK  Name = ZINC03436562
REMARK  11 active torsions:
REMARK  status: ('A' for Active; 'I' for Inactive)
REMARK    1  A    between atoms: C_1  and  C_2
REMARK    2  A    between atoms: C_3  and  C_34
REMARK    3  A    between atoms: C_7  and  S_16
REMARK    4  A    between atoms: C_9  and  C_11
REMARK    5  A    between atoms: C_11  and  N_63
REMARK    6  A    between atoms: S_16  and  C_17
REMARK    7  A    between atoms: N_27  and  C_28
REMARK    8  A    between atoms: C_28  and  C_30
REMARK    9  A    between atoms: C_28  and  C_31
REMARK   10  A    between atoms: C_31  and  O_32
REMARK   11  A    between atoms: O_32  and  C_33
REMARK                            x       y       z     vdW  Elec       q    Type
REMARK                         _______ _______ _______ _____ _____    ______ ____
ROOT
ATOM      1  C   UNL     1      -0.645  -3.888  -1.253  0.00  0.00    +0.045 C 
ATOM      2  C   UNL     1      -1.388  -4.198  -2.527  0.00  0.00    -0.029 A 
ATOM      3  C   UNL     1      -1.558  -5.469  -2.920  0.00  0.00    -0.008 A 
ATOM      4  S   UNL     1      -2.472  -5.315  -4.444  0.00  0.00    -0.074 S 
ATOM      5  C   UNL     1      -2.599  -3.548  -4.511  0.00  0.00    +0.113 A 
ATOM      6  C   UNL     1      -1.926  -3.125  -3.343  0.00  0.00    +0.043 A 
ATOM      7  C   UNL     1      -1.877  -1.718  -3.144  0.00  0.00    +0.116 A 
ATOM      8  N   UNL     1      -2.450  -0.920  -4.031  0.00  0.00    -0.227 NA
ATOM      9  C   UNL     1      -3.059  -1.386  -5.106  0.00  0.00    +0.115 A 
ATOM     10  N   UNL     1      -3.138  -2.681  -5.346  0.00  0.00    -0.227 NA
ATOM     11  C   UNL     1      -1.089  -6.728  -2.237  0.00  0.00    +0.052 C 
ENDROOT
BRANCH   9  12
ATOM     12  C   UNL     1      -3.684  -0.418  -6.077  0.00  0.00    -0.001 C 
BRANCH  12  17
ATOM     13  C   UNL     1      -5.161   0.252  -4.261  0.00  0.00    -0.078 C 
ATOM     14  C   UNL     1      -6.535   0.964  -4.181  0.00  0.00    -0.020 C 
ATOM     15  C   UNL     1      -6.620   1.706  -5.534  0.00  0.00    -0.020 C 
ATOM     16  C   UNL     1      -5.649   0.957  -6.465  0.00  0.00    -0.078 C 
ATOM     17  N   UNL     1      -5.097  -0.145  -5.677  0.00  0.00    +0.384 N 
ATOM     18  H   UNL     1      -5.658  -0.993  -5.825  0.00  0.00    -0.081 HD
ENDBRANCH  12  17
ENDBRANCH   9  12
BRANCH   7  19
ATOM     19  S   UNL     1      -1.069  -1.045  -1.730  0.00  0.00    -0.031 S 
BRANCH  19  20
ATOM     20  C   UNL     1      -1.326   0.673  -2.020  0.00  0.00    +0.179 A 
ATOM     21  N   UNL     1      -1.987   1.034  -3.091  0.00  0.00    -0.223 NA
ATOM     22  C   UNL     1      -2.216   2.337  -3.377  0.00  0.00    +0.079 A 
ATOM     23  C   UNL     1      -2.916   2.724  -4.524  0.00  0.00    +0.028 A 
ATOM     24  C   UNL     1      -3.122   4.052  -4.773  0.00  0.00    +0.002 A 
ATOM     25  C   UNL     1      -2.647   5.025  -3.904  0.00  0.00    +0.001 A 
ATOM     26  C   UNL     1      -1.959   4.677  -2.774  0.00  0.00    +0.015 A 
ATOM     27  C   UNL     1      -1.733   3.330  -2.495  0.00  0.00    +0.065 A 
ATOM     28  C   UNL     1      -1.000   2.897  -1.297  0.00  0.00    +0.263 A 
ATOM     29  O   UNL     1      -0.561   3.705  -0.500  0.00  0.00    -0.267 OA
ATOM     30  N   UNL     1      -0.832   1.567  -1.114  0.00  0.00    -0.282 N 
BRANCH  30  31
ATOM     31  C   UNL     1      -0.107   1.082   0.064  0.00  0.00    +0.115 C 
ATOM     32  C   UNL     1      -0.827   1.546   1.332  0.00  0.00    +0.033 C 
BRANCH  31  33
ATOM     33  C   UNL     1       1.317   1.641   0.052  0.00  0.00    +0.184 C 
BRANCH  33  34
ATOM     34  O   UNL     1       2.026   1.115  -1.071  0.00  0.00    -0.381 OA
ATOM     35  C   UNL     1       3.375   1.576  -1.175  0.00  0.00    +0.194 C 
ENDBRANCH  33  34
ENDBRANCH  31  33
ENDBRANCH  30  31
ENDBRANCH  19  20
ENDBRANCH   7  19
TORSDOF 7
