REMARK  Name = ZINC33813102
REMARK  13 active torsions:
REMARK  status: ('A' for Active; 'I' for Inactive)
REMARK    1  A    between atoms: C_1  and  C_2
REMARK    2  A    between atoms: C_2  and  N_3
REMARK    3  A    between atoms: N_3  and  C_4
REMARK    4  A    between atoms: N_3  and  C_6
REMARK    5  A    between atoms: C_4  and  C_5
REMARK    6  A    between atoms: C_6  and  C_7
REMARK    7  A    between atoms: C_7  and  N_8
REMARK    8  A    between atoms: C_9  and  C_30
REMARK    9  A    between atoms: C_11  and  C_16
REMARK   10  A    between atoms: C_16  and  C_18
REMARK   11  A    between atoms: N_21  and  C_24
REMARK   12  A    between atoms: C_22  and  C_23
REMARK   13  A    between atoms: C_33  and  N_36
REMARK                            x       y       z     vdW  Elec       q    Type
REMARK                         _______ _______ _______ _____ _____    ______ ____
ROOT
ATOM      1  N   UNL     1      -1.274  -3.658  -1.962  0.00  0.00    -0.285 N 
ATOM      2  C   UNL     1      -1.349  -4.470  -3.182  0.00  0.00    +0.145 C 
ATOM      3  C   UNL     1      -1.689  -5.872  -2.735  0.00  0.00    +0.076 C 
ATOM      4  C   UNL     1      -1.793  -5.838  -1.387  0.00  0.00    +0.249 C 
ATOM      5  C   UNL     1      -1.528  -4.463  -0.914  0.00  0.00    +0.288 C 
ATOM      6  O   UNL     1      -1.541  -4.111   0.249  0.00  0.00    -0.266 OA
ATOM      7  O   UNL     1      -2.087  -6.896  -0.596  0.00  0.00    -0.282 OA
ENDROOT
BRANCH   2   8
ATOM      8  C   UNL     1      -2.426  -3.939  -4.092  0.00  0.00    -0.022 A 
ATOM      9  C   UNL     1      -3.600  -3.443  -3.557  0.00  0.00    +0.008 A 
ATOM     10  C   UNL     1      -4.589  -2.956  -4.391  0.00  0.00    +0.033 A 
ATOM     11  C   UNL     1      -4.403  -2.965  -5.761  0.00  0.00    +0.126 A 
ATOM     12  C   UNL     1      -3.229  -3.460  -6.296  0.00  0.00    +0.033 A 
ATOM     13  C   UNL     1      -2.239  -3.943  -5.462  0.00  0.00    +0.008 A 
BRANCH  11  14
ATOM     14  N   UNL     1      -5.462  -2.444  -6.655  0.00  0.00    +0.056 N 
ATOM     15  O   UNL     1      -6.489  -2.011  -6.187  0.00  0.00    -0.126 OA
ATOM     16  O   UNL     1      -5.300  -2.452  -7.853  0.00  0.00    -0.126 OA
ENDBRANCH  11  14
ENDBRANCH   2   8
BRANCH   3  17
ATOM     17  C   UNL     1      -1.873  -7.045  -3.596  0.00  0.00    +0.198 C 
ATOM     18  O   UNL     1      -2.966  -7.574  -3.681  0.00  0.00    -0.287 OA
BRANCH  17  19
ATOM     19  C   UNL     1      -0.732  -7.584  -4.361  0.00  0.00    +0.063 A 
ATOM     20  C   UNL     1       0.610  -7.145  -4.288  0.00  0.00    +0.146 A 
ATOM     21  N   UNL     1       1.317  -7.867  -5.113  0.00  0.00    -0.174 NA
ATOM     22  N   UNL     1       0.476  -8.790  -5.745  0.00  0.00    -0.236 N 
ATOM     23  C   UNL     1      -0.774  -8.617  -5.278  0.00  0.00    +0.053 A 
ATOM     24  C   UNL     1      -1.994  -9.403  -5.682  0.00  0.00    +0.066 C 
BRANCH  22  25
ATOM     25  C   UNL     1       0.870  -9.737  -6.699  0.00  0.00    +0.066 A 
ATOM     26  C   UNL     1       2.060 -10.434  -6.538  0.00  0.00    +0.028 A 
ATOM     27  C   UNL     1       2.446 -11.368  -7.480  0.00  0.00    +0.002 A 
ATOM     28  C   UNL     1       1.648 -11.608  -8.583  0.00  0.00    +0.000 A 
ATOM     29  C   UNL     1       0.463 -10.916  -8.748  0.00  0.00    +0.002 A 
ATOM     30  C   UNL     1       0.069  -9.985  -7.806  0.00  0.00    +0.028 A 
ENDBRANCH  22  25
ENDBRANCH  17  19
ENDBRANCH   3  17
BRANCH   1  31
ATOM     31  C   UNL     1      -0.969  -2.227  -1.896  0.00  0.00    +0.090 C 
BRANCH  31  32
ATOM     32  C   UNL     1       0.542  -2.032  -1.764  0.00  0.00    -0.060 C 
BRANCH  32  33
ATOM     33  N   UNL     1       0.848  -0.597  -1.698  0.00  0.00    +0.380 N 
ATOM     34  H   UNL     1       0.450  -0.131  -2.500  0.00  0.00    -0.082 HD
BRANCH  33  36
ATOM     35  C   UNL     1       0.467   1.488  -0.470  0.00  0.00    -0.017 C 
ATOM     36  C   UNL     1       0.275  -0.030  -0.470  0.00  0.00    -0.082 C 
ENDBRANCH  33  36
BRANCH  33  37
ATOM     37  C   UNL     1       2.304  -0.406  -1.692  0.00  0.00    -0.082 C 
ATOM     38  C   UNL     1       2.884  -0.862  -3.033  0.00  0.00    -0.017 C 
ENDBRANCH  33  37
ENDBRANCH  32  33
ENDBRANCH  31  32
ENDBRANCH   1  31
TORSDOF 10
