REMARK  Name = ZINC09781807
REMARK  11 active torsions:
REMARK  status: ('A' for Active; 'I' for Inactive)
REMARK    1  A    between atoms: C_1  and  C_2
REMARK    2  A    between atoms: C_2  and  C_3
REMARK    3  A    between atoms: C_3  and  C_5
REMARK    4  A    between atoms: C_3  and  O_6
REMARK    5  A    between atoms: O_6  and  C_7
REMARK    6  A    between atoms: C_7  and  C_9
REMARK    7  A    between atoms: C_9  and  C_10
REMARK    8  A    between atoms: C_18  and  C_20
REMARK    9  A    between atoms: C_20  and  O_21
REMARK   10  A    between atoms: O_21  and  C_22
REMARK   11  A    between atoms: C_23  and  C_30
REMARK                            x       y       z     vdW  Elec       q    Type
REMARK                         _______ _______ _______ _____ _____    ______ ____
ROOT
ATOM      1  C   UNL     1       1.385  -6.436  -2.027  0.00  0.00    +0.173 C 
ATOM      2  C   UNL     1       2.355  -6.883  -3.086  0.00  0.00    +0.234 C 
ATOM      3  O   UNL     1       2.819  -8.001  -3.011  0.00  0.00    -0.274 OA
ATOM      4  N   UNL     1       2.730  -6.106  -4.103  0.00  0.00    -0.312 N 
ATOM      5  C   UNL     1       2.329  -4.716  -4.274  0.00  0.00    +0.123 C 
ATOM      6  C   UNL     1       1.041  -4.422  -3.491  0.00  0.00    +0.127 C 
ATOM      7  N   UNL     1       1.196  -4.982  -2.138  0.00  0.00    -0.285 N 
ATOM      8  C   UNL     1       1.159  -4.194  -1.045  0.00  0.00    +0.254 C 
ATOM      9  O   UNL     1       1.179  -4.691   0.061  0.00  0.00    -0.272 OA
ATOM     10  H   UNL     1       3.309  -6.494  -4.777  0.00  0.00    +0.149 HD
ENDROOT
BRANCH   1  11
ATOM     11  C   UNL     1       1.944  -6.776  -0.644  0.00  0.00    +0.152 C 
BRANCH  11  12
ATOM     12  C   UNL     1       3.235  -6.030  -0.426  0.00  0.00    +0.310 C 
ATOM     13  O   UNL     1       3.625  -5.243  -1.256  0.00  0.00    -0.251 OA
BRANCH  12  14
ATOM     14  O   UNL     1       3.953  -6.242   0.688  0.00  0.00    -0.462 OA
BRANCH  14  15
ATOM     15  C   UNL     1       5.186  -5.489   0.831  0.00  0.00    +0.173 C 
ATOM     16  C   UNL     1       6.341  -6.282   0.216  0.00  0.00    +0.052 C 
BRANCH  15  18
ATOM     17  C   UNL     1       4.375  -4.349   2.901  0.00  0.00    +0.007 C 
ATOM     18  C   UNL     1       5.467  -5.246   2.315  0.00  0.00    +0.041 C 
ENDBRANCH  15  18
ENDBRANCH  14  15
ENDBRANCH  12  14
ENDBRANCH  11  12
ENDBRANCH   1  11
BRANCH   8  19
ATOM     19  C   UNL     1       1.093  -2.696  -1.198  0.00  0.00    +0.324 C 
BRANCH  19  20
ATOM     20  O   UNL     1       1.064  -2.087   0.095  0.00  0.00    -0.481 OA
BRANCH  20  21
ATOM     21  C   UNL     1       1.003  -0.729   0.135  0.00  0.00    +0.138 A 
ATOM     22  C   UNL     1       2.172   0.018   0.158  0.00  0.00    -0.007 A 
ATOM     23  C   UNL     1       2.108   1.397   0.200  0.00  0.00    +0.022 A 
ATOM     24  C   UNL     1       0.880   2.034   0.219  0.00  0.00    +0.019 A 
ATOM     25  C   UNL     1      -0.287   1.292   0.196  0.00  0.00    +0.034 A 
ATOM     26  C   UNL     1      -0.228  -0.089   0.154  0.00  0.00    +0.061 A 
ATOM     27 BR   UNL     1      -1.823  -1.103   0.122  0.00  0.00    -0.046 Br
ATOM     28 BR   UNL     1       0.797   3.922   0.276  0.00  0.00    -0.050 Br
ATOM     29  C   UNL     1       3.510  -0.675   0.138  0.00  0.00    +0.047 C 
ENDBRANCH  20  21
ENDBRANCH  19  20
ENDBRANCH   8  19
TORSDOF 8
