REMARK  Name = ZINC06396366
REMARK  10 active torsions:
REMARK  status: ('A' for Active; 'I' for Inactive)
REMARK    1  A    between atoms: C_1  and  C_2
REMARK    2  A    between atoms: C_2  and  C_3
REMARK    3  A    between atoms: C_3  and  C_4
REMARK    4  A    between atoms: N_6  and  C_7
REMARK    5  A    between atoms: C_7  and  N_9
REMARK    6  A    between atoms: N_9  and  C_10
REMARK    7  A    between atoms: C_11  and  C_23
REMARK    8  A    between atoms: C_12  and  C_22
REMARK    9  A    between atoms: C_13  and  C_15
REMARK   10  A    between atoms: C_15  and  C_16
REMARK                            x       y       z     vdW  Elec       q    Type
REMARK                         _______ _______ _______ _____ _____    ______ ____
ROOT
ATOM      1  C   UNL     1      -0.745   2.272   3.557  0.00  0.00    +0.084 A 
ATOM      2  C   UNL     1       0.003   1.826   2.473  0.00  0.00    +0.068 A 
ATOM      3  C   UNL     1      -0.718   1.572   1.248  0.00  0.00    -0.026 A 
ATOM      4  C   UNL     1      -2.045   1.792   1.259  0.00  0.00    -0.000 A 
ATOM      5  S   UNL     1      -2.356   2.338   2.925  0.00  0.00    -0.077 S 
ATOM      6  C   UNL     1      -0.013   1.086   0.008  0.00  0.00    +0.045 C 
ENDROOT
BRANCH   2   7
ATOM      7  C   UNL     1       1.451   1.624   2.569  0.00  0.00    +0.244 C 
ATOM      8  O   UNL     1       2.212   2.538   2.308  0.00  0.00    -0.270 OA
ATOM      9  N   UNL     1       1.941   0.426   2.946  0.00  0.00    -0.325 N 
ATOM     10  H   UNL     1       1.335  -0.302   3.154  0.00  0.00    +0.145 HD
ATOM     11  H   UNL     1       2.900   0.293   3.010  0.00  0.00    +0.145 HD
ENDBRANCH   2   7
BRANCH   1  12
ATOM     12  N   UNL     1      -0.308   2.587   4.833  0.00  0.00    -0.291 N 
ATOM     13  H   UNL     1       0.633   2.506   5.057  0.00  0.00    +0.154 HD
BRANCH  12  14
ATOM     14  C   UNL     1      -1.188   3.008   5.763  0.00  0.00    +0.141 C 
ATOM     15  S   UNL     1      -2.848   3.152   5.367  0.00  0.00    -0.018 S 
BRANCH  14  18
ATOM     16  C   UNL     1      -1.643   3.735   7.934  0.00  0.00    +0.218 C 
ATOM     17  O   UNL     1      -2.818   3.837   7.654  0.00  0.00    -0.275 OA
ATOM     18  N   UNL     1      -0.762   3.314   7.004  0.00  0.00    -0.268 N 
ATOM     19  H   UNL     1       0.178   3.233   7.229  0.00  0.00    +0.156 HD
BRANCH  16  20
ATOM     20  C   UNL     1      -1.167   4.078   9.322  0.00  0.00    +0.096 C 
BRANCH  20  22
ATOM     21  C   UNL     1      -1.874   4.872  11.583  0.00  0.00    +0.004 C 
ATOM     22  C   UNL     1      -2.357   4.524  10.174  0.00  0.00    +0.006 C 
ENDBRANCH  20  22
ENDBRANCH  16  20
ENDBRANCH  14  18
ENDBRANCH  12  14
ENDBRANCH   1  12
BRANCH   4  23
ATOM     23  C   UNL     1      -3.031   1.618   0.133  0.00  0.00    +0.077 C 
BRANCH  23  24
ATOM     24  C   UNL     1      -3.580   0.215   0.158  0.00  0.00    -0.043 A 
ATOM     25  C   UNL     1      -2.949  -0.787  -0.555  0.00  0.00    +0.004 A 
ATOM     26  C   UNL     1      -3.449  -2.076  -0.527  0.00  0.00    +0.000 A 
ATOM     27  C   UNL     1      -4.587  -2.360   0.205  0.00  0.00    +0.000 A 
ATOM     28  C   UNL     1      -5.221  -1.356   0.913  0.00  0.00    +0.000 A 
ATOM     29  C   UNL     1      -4.718  -0.069   0.890  0.00  0.00    +0.004 A 
ENDBRANCH  23  24
ENDBRANCH   4  23
TORSDOF 8
