REMARK  Name = ZINC39851438
REMARK  13 active torsions:
REMARK  status: ('A' for Active; 'I' for Inactive)
REMARK    1  A    between atoms: C_1  and  C_2
REMARK    2  A    between atoms: C_2  and  C_3
REMARK    3  A    between atoms: C_3  and  C_4
REMARK    4  A    between atoms: C_4  and  C_5
REMARK    5  A    between atoms: C_5  and  N_6
REMARK    6  A    between atoms: C_10  and  C_11
REMARK    7  A    between atoms: C_12  and  C_31
REMARK    8  A    between atoms: C_13  and  C_29
REMARK    9  A    between atoms: N_16  and  C_27
REMARK   10  A    between atoms: C_17  and  N_18
REMARK   11  A    between atoms: N_18  and  C_19
REMARK   12  A    between atoms: C_19  and  C_20
REMARK   13  A    between atoms: C_27  and  C_28
REMARK                            x       y       z     vdW  Elec       q    Type
REMARK                         _______ _______ _______ _____ _____    ______ ____
ROOT
ATOM      1  C   UNL     1      -1.289  -6.661   4.411  0.00  0.00    +0.019 A 
ATOM      2  C   UNL     1      -1.349  -5.264   4.553  0.00  0.00    -0.017 A 
ATOM      3  C   UNL     1      -2.421  -4.702   5.239  0.00  0.00    +0.120 A 
ATOM      4  C   UNL     1      -3.425  -5.548   5.777  0.00  0.00    +0.270 A 
ATOM      5  O   UNL     1      -4.366  -5.062   6.378  0.00  0.00    -0.266 OA
ATOM      6  N   UNL     1      -3.345  -6.883   5.628  0.00  0.00    -0.296 N 
ATOM      7  C   UNL     1      -2.311  -7.455   4.958  0.00  0.00    +0.109 A 
ATOM      8  C   UNL     1      -0.268  -4.389   3.971  0.00  0.00    +0.046 C 
ENDROOT
BRANCH   1  13
ATOM      9  N   UNL     1      -0.564  -6.411   0.160  0.00  0.00    -0.255 N 
ATOM     10  C   UNL     1      -0.926  -6.465   1.430  0.00  0.00    +0.258 C 
ATOM     11  O   UNL     1      -1.984  -5.989   1.802  0.00  0.00    -0.269 OA
ATOM     12  C   UNL     1      -0.040  -7.098   2.353  0.00  0.00    +0.077 C 
ATOM     13  C   UNL     1      -0.175  -7.284   3.695  0.00  0.00    +0.032 C 
ATOM     14  S   UNL     1       1.295  -7.582   1.267  0.00  0.00    -0.061 S 
ATOM     15  C   UNL     1       0.607  -6.944  -0.253  0.00  0.00    +0.121 C 
ATOM     16  S   UNL     1       1.266  -6.993  -1.832  0.00  0.00    -0.027 S 
BRANCH   9  17
ATOM     17  C   UNL     1      -1.449  -5.769  -0.816  0.00  0.00    +0.115 C 
BRANCH  17  18
ATOM     18  C   UNL     1      -2.414  -6.807  -1.391  0.00  0.00    +0.019 C 
BRANCH  18  19
ATOM     19  C   UNL     1      -3.337  -6.137  -2.409  0.00  0.00    +0.001 C 
BRANCH  19  21
ATOM     20  C   UNL     1      -5.226  -6.505  -4.003  0.00  0.00    +0.004 C 
ATOM     21  C   UNL     1      -4.302  -7.175  -2.985  0.00  0.00    -0.003 C 
ENDBRANCH  19  21
ENDBRANCH  18  19
ENDBRANCH  17  18
ENDBRANCH   9  17
ENDBRANCH   1  13
BRANCH   7  22
ATOM     22  N   UNL     1      -2.263  -8.811   4.819  0.00  0.00    -0.326 N 
ATOM     23  H   UNL     1      -2.994  -9.358   5.145  0.00  0.00    +0.148 HD
BRANCH  22  24
ATOM     24  C   UNL     1      -1.105  -9.441   4.179  0.00  0.00    +0.139 C 
BRANCH  24  25
ATOM     25  C   UNL     1      -1.301 -10.934   4.144  0.00  0.00    -0.012 A 
ATOM     26  C   UNL     1      -0.682 -11.735   5.086  0.00  0.00    +0.006 A 
ATOM     27  C   UNL     1      -0.862 -13.105   5.055  0.00  0.00    +0.000 A 
ATOM     28  C   UNL     1      -1.661 -13.676   4.081  0.00  0.00    +0.001 A 
ATOM     29  C   UNL     1      -2.280 -12.877   3.139  0.00  0.00    +0.020 A 
ATOM     30  C   UNL     1      -2.105 -11.505   3.174  0.00  0.00    +0.046 A 
ATOM     31 CL   UNL     1      -2.888 -10.499   1.994  0.00  0.00    -0.083 Cl
ENDBRANCH  24  25
ENDBRANCH  22  24
ENDBRANCH   7  22
BRANCH   6  32
ATOM     32  C   UNL     1      -4.395  -7.734   6.194  0.00  0.00    +0.123 C 
ATOM     33  C   UNL     1      -5.541  -7.866   5.189  0.00  0.00    +0.027 C 
ENDBRANCH   6  32
BRANCH   3  34
ATOM     34  C   UNL     1      -2.511  -3.282   5.401  0.00  0.00    +0.105 C 
ATOM     35  N   UNL     1      -2.582  -2.156   5.530  0.00  0.00    -0.191 NA
ENDBRANCH   3  34
TORSDOF 10
