REMARK  Name = ZINC09155176
REMARK  9 active torsions:
REMARK  status: ('A' for Active; 'I' for Inactive)
REMARK    1  A    between atoms: C_1  and  N_2
REMARK    2  A    between atoms: N_2  and  C_3
REMARK    3  A    between atoms: C_8  and  C_9
REMARK    4  A    between atoms: N_11  and  C_12
REMARK    5  A    between atoms: C_12  and  C_13
REMARK    6  A    between atoms: C_18  and  C_20
REMARK    7  A    between atoms: C_20  and  S_21
REMARK    8  A    between atoms: S_21  and  C_22
REMARK    9  A    between atoms: N_26  and  C_27
REMARK                            x       y       z     vdW  Elec       q    Type
REMARK                         _______ _______ _______ _____ _____    ______ ____
ROOT
ATOM      1  C   UNL     1       3.034   1.175  -1.290  0.00  0.00    +0.138 C 
ATOM      2  N   UNL     1       2.405   1.521  -0.013  0.00  0.00    -0.273 N 
ATOM      3  C   UNL     1       3.006   1.189   1.146  0.00  0.00    +0.230 C 
ATOM      4  O   UNL     1       2.485   1.475   2.203  0.00  0.00    -0.274 OA
ENDROOT
BRANCH   2   5
ATOM      5  C   UNL     1       1.185   2.193   0.003  0.00  0.00    +0.048 A 
ATOM      6  C   UNL     1       1.153   3.581   0.010  0.00  0.00    +0.024 A 
ATOM      7  C   UNL     1      -0.057   4.245   0.025  0.00  0.00    +0.002 A 
ATOM      8  C   UNL     1      -1.247   3.535   0.033  0.00  0.00    +0.001 A 
ATOM      9  C   UNL     1      -1.235   2.157   0.020  0.00  0.00    +0.015 A 
ATOM     10  C   UNL     1      -0.018   1.471   0.010  0.00  0.00    +0.058 A 
BRANCH  10  11
ATOM     11  C   UNL     1       0.002  -0.004   0.002  0.00  0.00    +0.246 C 
ATOM     12  O   UNL     1       1.063  -0.598  -0.011  0.00  0.00    -0.270 OA
ATOM     13  N   UNL     1      -1.156  -0.694   0.009  0.00  0.00    -0.304 N 
ATOM     14  H   UNL     1      -2.002  -0.220   0.020  0.00  0.00    +0.149 HD
BRANCH  13  15
ATOM     15  C   UNL     1      -1.136  -2.159   0.001  0.00  0.00    +0.179 C 
BRANCH  15  16
ATOM     16  C   UNL     1      -2.550  -2.680   0.012  0.00  0.00    +0.122 A 
ATOM     17  C   UNL     1      -3.298  -2.947  -1.073  0.00  0.00    +0.046 A 
ATOM     18  C   UNL     1      -4.548  -3.412  -0.605  0.00  0.00    +0.041 A 
ATOM     19  C   UNL     1      -4.489  -3.402   0.739  0.00  0.00    +0.195 A 
ATOM     20  O   UNL     1      -3.274  -2.963   1.107  0.00  0.00    -0.466 OA
ENDBRANCH  15  16
ENDBRANCH  13  15
ENDBRANCH  10  11
ENDBRANCH   2   5
BRANCH   3  21
ATOM     21  C   UNL     1       4.326   0.462   1.129  0.00  0.00    +0.173 C 
BRANCH  21  22
ATOM     22  S   UNL     1       4.871   0.161   2.829  0.00  0.00    -0.075 S 
BRANCH  22  23
ATOM     23  C   UNL     1       6.390  -0.677   2.519  0.00  0.00    +0.214 A 
ATOM     24  N   UNL     1       6.903  -0.958   1.341  0.00  0.00    -0.101 NA
ATOM     25  N   UNL     1       8.021  -1.575   1.472  0.00  0.00    -0.022 NA
ATOM     26  N   UNL     1       8.307  -1.733   2.719  0.00  0.00    -0.038 NA
ATOM     27  N   UNL     1       7.260  -1.150   3.454  0.00  0.00    -0.187 N 
BRANCH  27  28
ATOM     28  C   UNL     1       7.137  -1.075   4.849  0.00  0.00    +0.073 A 
ATOM     29  C   UNL     1       6.555   0.041   5.436  0.00  0.00    +0.028 A 
ATOM     30  C   UNL     1       6.431   0.112   6.810  0.00  0.00    +0.005 A 
ATOM     31  C   UNL     1       6.894  -0.922   7.602  0.00  0.00    +0.038 A 
ATOM     32  C   UNL     1       7.479  -2.034   7.021  0.00  0.00    +0.125 A 
ATOM     33  C   UNL     1       7.602  -2.112   5.645  0.00  0.00    +0.066 A 
ATOM     34  F   UNL     1       7.931  -3.043   7.797  0.00  0.00    -0.205 F 
ENDBRANCH  27  28
ENDBRANCH  22  23
ENDBRANCH  21  22
ENDBRANCH   3  21
TORSDOF 8
