REMARK  Name = ZINC06283172
REMARK  10 active torsions:
REMARK  status: ('A' for Active; 'I' for Inactive)
REMARK    1  A    between atoms: C_1  and  C_2
REMARK    2  A    between atoms: C_8  and  C_10
REMARK    3  A    between atoms: C_8  and  C_24
REMARK    4  A    between atoms: C_8  and  N_65
REMARK    5  A    between atoms: C_15  and  O_22
REMARK    6  A    between atoms: O_22  and  C_23
REMARK    7  A    between atoms: N_28  and  C_29
REMARK    8  A    between atoms: C_29  and  C_30
REMARK    9  A    between atoms: C_33  and  O_36
REMARK   10  A    between atoms: O_36  and  C_37
REMARK                            x       y       z     vdW  Elec       q    Type
REMARK                         _______ _______ _______ _____ _____    ______ ____
ROOT
ATOM      1  C   UNL     1      -0.134   0.933   2.393  0.00  0.00    +0.039 C 
ENDROOT
BRANCH   1   2
ATOM      2  C   UNL     1      -0.101   1.233   3.869  0.00  0.00    +0.011 A 
ATOM      3  C   UNL     1       1.046   1.680   4.442  0.00  0.00    +0.017 A 
ATOM      4  C   UNL     1       1.044   1.967   5.876  0.00  0.00    -0.001 A 
ATOM      5  C   UNL     1       2.196   2.435   6.521  0.00  0.00    +0.013 A 
ATOM      6  C   UNL     1       2.167   2.688   7.861  0.00  0.00    +0.046 A 
ATOM      7  C   UNL     1       0.999   2.484   8.595  0.00  0.00    +0.122 A 
ATOM      8  C   UNL     1      -0.150   2.023   7.976  0.00  0.00    +0.072 A 
ATOM      9  C   UNL     1      -0.139   1.760   6.612  0.00  0.00    +0.053 A 
ATOM     10  N   UNL     1      -1.269   1.298   5.970  0.00  0.00    -0.322 N 
ATOM     11  H   UNL     1      -2.083   1.156   6.478  0.00  0.00    +0.169 HD
ATOM     12  C   UNL     1      -1.258   1.042   4.650  0.00  0.00    +0.251 A 
ATOM     13  O   UNL     1      -2.276   0.635   4.116  0.00  0.00    -0.268 OA
BRANCH   7  14
ATOM     14  O   UNL     1       0.988   2.742   9.928  0.00  0.00    -0.495 OA
ATOM     15  C   UNL     1       2.205   3.216  10.507  0.00  0.00    +0.277 C 
ENDBRANCH   7  14
ENDBRANCH   1   2
BRANCH   1  22
ATOM     16  C   UNL     1      -2.399   2.054  -1.827  0.00  0.00    +0.005 C 
ATOM     17  C   UNL     1      -2.423   2.220  -0.306  0.00  0.00    -0.031 C 
ATOM     18  C   UNL     1      -2.386   3.709   0.048  0.00  0.00    -0.001 C 
ATOM     19  C   UNL     1      -2.350   3.864   1.571  0.00  0.00    -0.018 C 
ATOM     20  C   UNL     1      -1.131   3.122   2.125  0.00  0.00    -0.077 C 
ATOM     21  C   UNL     1      -1.202   1.526   0.303  0.00  0.00    -0.074 C 
ATOM     22  N   UNL     1      -1.240   1.690   1.771  0.00  0.00    +0.389 N 
ATOM     23  H   UNL     1      -2.133   1.327   2.124  0.00  0.00    -0.080 HD
ENDBRANCH   1  22
BRANCH   1  24
ATOM     24  C   UNL     1      -0.378  -0.540   2.185  0.00  0.00    +0.143 A 
ATOM     25  N   UNL     1      -1.479  -1.197   2.458  0.00  0.00    -0.115 NA
ATOM     26  N   UNL     1      -1.294  -2.432   2.140  0.00  0.00    -0.023 NA
ATOM     27  N   UNL     1      -0.104  -2.580   1.671  0.00  0.00    -0.044 NA
ATOM     28  N   UNL     1       0.490  -1.435   1.678  0.00  0.00    -0.226 N 
BRANCH  28  29
ATOM     29  C   UNL     1       1.856  -1.161   1.222  0.00  0.00    +0.182 C 
BRANCH  29  30
ATOM     30  C   UNL     1       2.828  -1.483   2.327  0.00  0.00    -0.026 A 
ATOM     31  C   UNL     1       3.289  -0.477   3.156  0.00  0.00    +0.009 A 
ATOM     32  C   UNL     1       4.176  -0.770   4.174  0.00  0.00    +0.046 A 
ATOM     33  C   UNL     1       4.614  -2.074   4.356  0.00  0.00    +0.120 A 
ATOM     34  C   UNL     1       4.154  -3.081   3.519  0.00  0.00    +0.046 A 
ATOM     35  C   UNL     1       3.263  -2.783   2.507  0.00  0.00    +0.009 A 
BRANCH  33  36
ATOM     36  O   UNL     1       5.490  -2.365   5.353  0.00  0.00    -0.495 OA
ATOM     37  C   UNL     1       5.920  -1.278   6.176  0.00  0.00    +0.277 C 
ENDBRANCH  33  36
ENDBRANCH  29  30
ENDBRANCH  28  29
ENDBRANCH   1  24
TORSDOF 7
