REMARK  Name = ZINC22021142
REMARK  12 active torsions:
REMARK  status: ('A' for Active; 'I' for Inactive)
REMARK    1  A    between atoms: C_1  and  C_2
REMARK    2  A    between atoms: C_2  and  C_25
REMARK    3  A    between atoms: N_5  and  C_9
REMARK    4  A    between atoms: C_9  and  C_10
REMARK    5  A    between atoms: C_10  and  C_12
REMARK    6  A    between atoms: C_10  and  O_24
REMARK    7  A    between atoms: C_12  and  O_13
REMARK    8  A    between atoms: O_13  and  C_14
REMARK    9  A    between atoms: C_19  and  C_20
REMARK   10  A    between atoms: C_20  and  C_21
REMARK   11  A    between atoms: C_20  and  C_22
REMARK   12  A    between atoms: C_20  and  C_23
REMARK                            x       y       z     vdW  Elec       q    Type
REMARK                         _______ _______ _______ _____ _____    ______ ____
ROOT
ATOM      1  C   UNL     1       2.040   1.923   1.250  0.00  0.00    +0.047 C 
ATOM      2  C   UNL     1       1.181   2.140   0.002  0.00  0.00    +0.135 C 
ATOM      3  C   UNL     1      -0.014   1.208   0.009  0.00  0.00    +0.251 C 
ATOM      4  O   UNL     1       0.002  -0.004   0.002  0.00  0.00    -0.272 OA
ATOM      5  N   UNL     1      -1.099   2.007   0.017  0.00  0.00    -0.221 N 
ATOM      6  C   UNL     1      -0.759   3.301   0.026  0.00  0.00    +0.310 C 
ATOM      7  O   UNL     1      -1.564   4.212   0.038  0.00  0.00    -0.252 OA
ATOM      8  N   UNL     1       0.574   3.482   0.015  0.00  0.00    -0.281 N 
ATOM      9  H   UNL     1       1.215   4.376   0.013  0.00  0.00    +0.152 HD
ENDROOT
BRANCH   2  10
ATOM     10  C   UNL     1       2.002   1.941  -1.246  0.00  0.00    -0.012 A 
ATOM     11  C   UNL     1       2.046   0.699  -1.851  0.00  0.00    +0.010 A 
ATOM     12  C   UNL     1       2.794   0.512  -2.999  0.00  0.00    +0.050 A 
ATOM     13  C   UNL     1       3.509   1.569  -3.540  0.00  0.00    +0.166 A 
ATOM     14  C   UNL     1       3.469   2.819  -2.927  0.00  0.00    +0.167 A 
ATOM     15  C   UNL     1       2.713   2.999  -1.780  0.00  0.00    +0.055 A 
ATOM     16  O   UNL     1       4.248   3.681  -3.643  0.00  0.00    -0.453 OA
ATOM     17  C   UNL     1       4.437   3.054  -4.925  0.00  0.00    +0.466 C 
ATOM     18  O   UNL     1       4.314   1.648  -4.639  0.00  0.00    -0.453 OA
ENDBRANCH   2  10
BRANCH   5  19
ATOM     19  C   UNL     1      -2.481   1.520   0.020  0.00  0.00    +0.152 C 
BRANCH  19  20
ATOM     20  C   UNL     1      -2.956   1.342   1.463  0.00  0.00    +0.170 C 
BRANCH  20  21
ATOM     21  O   UNL     1      -2.116   0.397   2.128  0.00  0.00    -0.387 OA
ATOM     22  H   UNL     1      -2.304   0.138   3.181  0.00  0.00    +0.210 HD
ENDBRANCH  20  21
BRANCH  20  23
ATOM     23  C   UNL     1      -4.399   0.833   1.466  0.00  0.00    +0.262 C 
BRANCH  23  24
ATOM     24  O   UNL     1      -4.882   0.777   2.810  0.00  0.00    -0.489 OA
BRANCH  24  25
ATOM     25  C   UNL     1      -6.157   0.342   2.990  0.00  0.00    +0.124 A 
ATOM     26  C   UNL     1      -6.927  -0.024   1.895  0.00  0.00    +0.046 A 
ATOM     27  C   UNL     1      -8.223  -0.465   2.081  0.00  0.00    +0.004 A 
ATOM     28  C   UNL     1      -8.752  -0.543   3.356  0.00  0.00    +0.001 A 
ATOM     29  C   UNL     1      -7.987  -0.179   4.448  0.00  0.00    +0.008 A 
ATOM     30  C   UNL     1      -6.688   0.258   4.268  0.00  0.00    -0.000 A 
BRANCH  30  31
ATOM     31  C   UNL     1      -5.852   0.649   5.460  0.00  0.00    -0.009 C 
ATOM     32  C   UNL     1      -6.670   0.464   6.739  0.00  0.00    +0.015 C 
ATOM     33  C   UNL     1      -4.605  -0.235   5.519  0.00  0.00    +0.015 C 
ATOM     34  C   UNL     1      -5.433   2.115   5.330  0.00  0.00    +0.015 C 
ENDBRANCH  30  31
ENDBRANCH  24  25
ENDBRANCH  23  24
ENDBRANCH  20  23
ENDBRANCH  19  20
ENDBRANCH   5  19
TORSDOF 8
