REMARK  Name = ZINC02882463
REMARK  7 active torsions:
REMARK  status: ('A' for Active; 'I' for Inactive)
REMARK    1  A    between atoms: C_1  and  C_2
REMARK    2  A    between atoms: C_2  and  C_3
REMARK    3  A    between atoms: C_3  and  C_4
REMARK    4  A    between atoms: C_4  and  S_5
REMARK    5  A    between atoms: S_5  and  C_6
REMARK    6  A    between atoms: C_19  and  C_22
REMARK    7  A    between atoms: C_27  and  C_28
REMARK                            x       y       z     vdW  Elec       q    Type
REMARK                         _______ _______ _______ _____ _____    ______ ____
ROOT
ATOM      1  C   UNL     1      -2.374   5.586   4.219  0.00  0.00    +0.212 A 
ATOM      2  N   UNL     1      -2.574   6.843   4.606  0.00  0.00    -0.184 NA
ATOM      3  C   UNL     1      -3.292   7.079   5.691  0.00  0.00    +0.248 A 
ATOM      4  C   UNL     1      -3.828   5.982   6.403  0.00  0.00    +0.156 A 
ATOM      5  N   UNL     1      -3.590   4.755   5.965  0.00  0.00    -0.141 NA
ATOM      6  N   UNL     1      -2.887   4.570   4.901  0.00  0.00    -0.122 NA
ATOM      7  C   UNL     1      -4.642   6.223   7.612  0.00  0.00    +0.028 A 
ATOM      8  C   UNL     1      -4.421   5.522   8.791  0.00  0.00    +0.012 A 
ATOM      9  C   UNL     1      -5.214   5.769   9.895  0.00  0.00    +0.001 A 
ATOM     10  C   UNL     1      -6.229   6.708   9.833  0.00  0.00    +0.002 A 
ATOM     11  C   UNL     1      -6.456   7.417   8.667  0.00  0.00    +0.024 A 
ATOM     12  C   UNL     1      -5.666   7.188   7.556  0.00  0.00    +0.039 A 
ATOM     13  N   UNL     1      -5.851   7.905   6.371  0.00  0.00    -0.305 N 
ATOM     14  C   UNL     1      -4.830   8.866   5.965  0.00  0.00    +0.294 C 
ATOM     15  O   UNL     1      -3.517   8.341   6.127  0.00  0.00    -0.449 OA
ATOM     16  H   UNL     1      -6.643   7.767   5.828  0.00  0.00    +0.150 HD
ENDROOT
BRANCH  14  17
ATOM     17  C   UNL     1      -4.966  10.110   6.805  0.00  0.00    +0.014 A 
ATOM     18  C   UNL     1      -4.192  10.267   7.939  0.00  0.00    +0.009 A 
ATOM     19  C   UNL     1      -4.314  11.410   8.706  0.00  0.00    +0.000 A 
ATOM     20  C   UNL     1      -5.217  12.393   8.344  0.00  0.00    +0.000 A 
ATOM     21  C   UNL     1      -5.995  12.233   7.213  0.00  0.00    +0.004 A 
ATOM     22  C   UNL     1      -5.870  11.092   6.443  0.00  0.00    -0.042 A 
ATOM     23  C   UNL     1      -6.718  10.918   5.210  0.00  0.00    +0.044 C 
ENDBRANCH  14  17
BRANCH   1  24
ATOM     24  S   UNL     1      -1.419   5.265   2.774  0.00  0.00    -0.084 S 
BRANCH  24  25
ATOM     25  C   UNL     1      -1.487   3.457   2.747  0.00  0.00    +0.077 C 
BRANCH  25  26
ATOM     26  C   UNL     1      -0.702   2.935   1.542  0.00  0.00    +0.011 C 
BRANCH  26  28
ATOM     27  C   UNL     1       0.025   0.884   0.314  0.00  0.00    +0.004 C 
ATOM     28  C   UNL     1      -0.759   1.406   1.519  0.00  0.00    -0.003 C 
ENDBRANCH  26  28
ENDBRANCH  25  26
ENDBRANCH  24  25
ENDBRANCH   1  24
TORSDOF 5
