REMARK  Name = ZINC14547011
REMARK  5 active torsions:
REMARK  status: ('A' for Active; 'I' for Inactive)
REMARK    1  A    between atoms: C_4  and  C_8
REMARK    2  A    between atoms: C_19  and  S_24
REMARK    3  A    between atoms: S_24  and  N_27
REMARK    4  A    between atoms: N_27  and  C_28
REMARK    5  A    between atoms: C_28  and  C_29
REMARK                            x       y       z     vdW  Elec       q    Type
REMARK                         _______ _______ _______ _____ _____    ______ ____
ROOT
ATOM      1  C   UNL     1       3.792   8.313   4.977  0.00  0.00    +0.108 C 
ATOM      2  C   UNL     1       2.769   8.216   6.095  0.00  0.00    +0.029 C 
ATOM      3  C   UNL     1       2.088   9.519   6.535  0.00  0.00    +0.033 C 
ATOM      4  C   UNL     1       0.731   9.007   7.021  0.00  0.00    -0.030 C 
ATOM      5  C   UNL     1       0.445   7.867   6.428  0.00  0.00    -0.023 C 
ATOM      6  C   UNL     1       1.520   7.538   5.456  0.00  0.00    +0.049 C 
ATOM      7  C   UNL     1       1.880   6.141   5.133  0.00  0.00    -0.018 A 
ATOM      8  C   UNL     1       0.975   5.104   5.220  0.00  0.00    +0.034 A 
ATOM      9  C   UNL     1       1.355   3.817   4.890  0.00  0.00    +0.106 A 
ATOM     10  C   UNL     1       2.648   3.564   4.470  0.00  0.00    +0.030 A 
ATOM     11  C   UNL     1       3.560   4.595   4.375  0.00  0.00    +0.025 A 
ATOM     12  C   UNL     1       3.191   5.892   4.712  0.00  0.00    +0.031 A 
ATOM     13  N   UNL     1       4.142   6.917   4.636  0.00  0.00    -0.336 N 
ATOM     14  H   UNL     1       5.046   6.707   4.354  0.00  0.00    +0.147 HD
ENDROOT
BRANCH   1  18
ATOM     15  C   UNL     1       7.256  10.423   6.324  0.00  0.00    +0.003 A 
ATOM     16  C   UNL     1       6.353  11.043   5.480  0.00  0.00    +0.020 A 
ATOM     17  C   UNL     1       5.232  10.361   5.044  0.00  0.00    +0.047 A 
ATOM     18  C   UNL     1       5.014   9.057   5.452  0.00  0.00    +0.010 A 
ATOM     19  C   UNL     1       5.914   8.439   6.301  0.00  0.00    +0.047 A 
ATOM     20  C   UNL     1       7.038   9.120   6.731  0.00  0.00    +0.020 A 
ATOM     21 CL   UNL     1       5.638   6.805   6.819  0.00  0.00    -0.083 Cl
ATOM     22 CL   UNL     1       4.099  11.140   3.984  0.00  0.00    -0.083 Cl
ENDBRANCH   1  18
BRANCH   9  23
ATOM     23  S   UNL     1       0.194   2.497   5.011  0.00  0.00    +0.058 S 
ATOM     24  O   UNL     1      -0.788   2.905   5.953  0.00  0.00    -0.153 OA
ATOM     25  O   UNL     1       0.950   1.304   5.167  0.00  0.00    -0.153 OA
BRANCH  23  26
ATOM     26  N   UNL     1      -0.573   2.384   3.547  0.00  0.00    -0.187 NA
ATOM     27  H   UNL     1      -1.523   2.569   3.482  0.00  0.00    +0.148 HD
BRANCH  26  28
ATOM     28  C   UNL     1       0.184   2.003   2.352  0.00  0.00    +0.137 C 
BRANCH  28  29
ATOM     29  C   UNL     1      -0.788   1.610   1.237  0.00  0.00    +0.134 C 
ATOM     30  C   UNL     1      -0.013   1.086   0.008  0.00  0.00    +0.035 C 
ATOM     31  C   UNL     1      -0.811   1.623  -1.201  0.00  0.00    +0.031 C 
ATOM     32  C   UNL     1      -1.978   2.408  -0.561  0.00  0.00    +0.160 C 
ATOM     33  O   UNL     1      -1.501   2.772   0.753  0.00  0.00    -0.375 OA
ENDBRANCH  28  29
ENDBRANCH  26  28
ENDBRANCH  23  26
ENDBRANCH   9  23
TORSDOF 5
