REMARK  Name = ZINC52094470
REMARK  4 active torsions:
REMARK  status: ('A' for Active; 'I' for Inactive)
REMARK    1  A    between atoms: C_1  and  N_2
REMARK    2  A    between atoms: N_2  and  C_3
REMARK    3  A    between atoms: C_3  and  C_5
REMARK    4  A    between atoms: C_3  and  C_11
REMARK                            x       y       z     vdW  Elec       q    Type
REMARK                         _______ _______ _______ _____ _____    ______ ____
ROOT
ATOM      1  C   UNL     1      -2.037   0.199   1.091  0.00  0.00    -0.010 A 
ATOM      2  C   UNL     1      -1.426   1.287   1.683  0.00  0.00    +0.034 A 
ATOM      3  C   UNL     1      -2.026   1.913   2.764  0.00  0.00    +0.067 A 
ATOM      4  C   UNL     1      -3.247   1.441   3.251  0.00  0.00    +0.068 A 
ATOM      5  C   UNL     1      -3.854   0.348   2.652  0.00  0.00    +0.043 A 
ATOM      6  C   UNL     1      -3.251  -0.266   1.570  0.00  0.00    +0.025 A 
ATOM      7 BR   UNL     1      -4.082  -1.752   0.747  0.00  0.00    -0.050 Br
ATOM      8  N   UNL     1      -3.596   2.259   4.324  0.00  0.00    -0.306 N 
ATOM      9  H   UNL     1      -4.396   2.175   4.865  0.00  0.00    +0.170 HD
ATOM     10  C   UNL     1      -2.632   3.185   4.482  0.00  0.00    +0.325 A 
ATOM     11  O   UNL     1      -2.628   4.054   5.333  0.00  0.00    -0.247 OA
ATOM     12  N   UNL     1      -1.671   3.003   3.556  0.00  0.00    -0.306 N 
ATOM     13  H   UNL     1      -0.869   3.539   3.458  0.00  0.00    +0.170 HD
ENDROOT
BRANCH   1  14
ATOM     14  C   UNL     1      -1.384  -0.482  -0.084  0.00  0.00    +0.122 C 
BRANCH  14  15
ATOM     15  C   UNL     1      -1.933   0.092  -1.365  0.00  0.00    +0.013 A 
ATOM     16  C   UNL     1      -2.859  -0.428  -2.206  0.00  0.00    +0.014 A 
ATOM     17  C   UNL     1      -3.214   0.283  -3.337  0.00  0.00    +0.028 A 
ATOM     18  C   UNL     1      -2.623   1.482  -3.571  0.00  0.00    +0.078 A 
ATOM     19  S   UNL     1      -1.535   1.639  -2.164  0.00  0.00    -0.080 S 
ATOM     20 CL   UNL     1      -2.868   2.582  -4.892  0.00  0.00    -0.076 Cl
ENDBRANCH  14  15
BRANCH  14  22
ATOM     21  C   UNL     1       0.782  -1.295  -0.795  0.00  0.00    +0.102 C 
ATOM     22  N   UNL     1       0.067  -0.264  -0.032  0.00  0.00    -0.308 NA
ATOM     23  H   UNL     1       0.394  -0.229   0.922  0.00  0.00    +0.123 HD
ENDBRANCH  14  22
ENDBRANCH   1  14
TORSDOF 3
