REMARK  Name = ZINC39361412
REMARK  6 active torsions:
REMARK  status: ('A' for Active; 'I' for Inactive)
REMARK    1  A    between atoms: C_1  and  C_2
REMARK    2  A    between atoms: C_5  and  C_8
REMARK    3  A    between atoms: C_8  and  S_9
REMARK    4  A    between atoms: S_9  and  C_10
REMARK    5  A    between atoms: C_16  and  C_28
REMARK    6  A    between atoms: C_31  and  C_34
REMARK                            x       y       z     vdW  Elec       q    Type
REMARK                         _______ _______ _______ _____ _____    ______ ____
ROOT
ATOM      1  C   UNL     1       1.632  -6.614  -0.043  0.00  0.00    +0.182 C 
ATOM      2  N   UNL     1       0.424  -7.160  -0.045  0.00  0.00    -0.154 NA
ATOM      3  C   UNL     1       0.247  -8.471  -0.029  0.00  0.00    +0.250 C 
ATOM      4  O   UNL     1      -0.884  -8.917  -0.044  0.00  0.00    -0.273 OA
ATOM      5  C   UNL     1       1.408  -9.422   0.006  0.00  0.00    +0.152 C 
ATOM      6  C   UNL     1       1.373 -10.343  -1.215  0.00  0.00    +0.073 C 
ATOM      7  C   UNL     1       2.702 -11.042  -1.382  0.00  0.00    +0.021 C 
ATOM      8  C   UNL     1       3.841 -10.555  -0.854  0.00  0.00    +0.016 C 
ATOM      9  C   UNL     1       5.160 -11.262  -1.061  0.00  0.00    +0.051 C 
ATOM     10  C   UNL     1       4.923 -12.770  -1.169  0.00  0.00    +0.014 C 
ATOM     11  C   UNL     1       3.970 -13.026  -2.341  0.00  0.00    +0.080 C 
ATOM     12  C   UNL     1       2.705 -12.243  -2.122  0.00  0.00    +0.161 C 
ATOM     13  O   UNL     1       1.663 -12.653  -2.593  0.00  0.00    -0.292 OA
ATOM     14  N   UNL     1       3.853  -9.404  -0.097  0.00  0.00    -0.305 N 
ATOM     15  C   UNL     1       2.710  -8.656  -0.032  0.00  0.00    +0.115 C 
ATOM     16  N   UNL     1       2.745  -7.359  -0.053  0.00  0.00    -0.213 NA
ATOM     17  H   UNL     1       4.650  -9.132   0.384  0.00  0.00    +0.153 HD
ENDROOT
BRANCH   6  18
ATOM     18  C   UNL     1       0.290 -11.374  -1.031  0.00  0.00    -0.039 A 
ATOM     19  C   UNL     1       0.335 -12.239   0.047  0.00  0.00    +0.004 A 
ATOM     20  C   UNL     1      -0.659 -13.185   0.216  0.00  0.00    +0.003 A 
ATOM     21  C   UNL     1      -1.698 -13.266  -0.693  0.00  0.00    -0.050 A 
ATOM     22  C   UNL     1      -1.743 -12.401  -1.770  0.00  0.00    +0.003 A 
ATOM     23  C   UNL     1      -0.752 -11.452  -1.936  0.00  0.00    +0.004 A 
ATOM     24  C   UNL     1      -2.780 -14.298  -0.509  0.00  0.00    +0.044 C 
ENDBRANCH   6  18
BRANCH   1  25
ATOM     25  S   UNL     1       1.777  -4.858  -0.034  0.00  0.00    -0.084 S 
BRANCH  25  26
ATOM     26  C   UNL     1       0.059  -4.275  -0.021  0.00  0.00    +0.112 C 
BRANCH  26  31
ATOM     27  C   UNL     1      -0.018   1.503   0.010  0.00  0.00    +0.044 C 
ATOM     28  C   UNL     1       0.002  -0.004   0.002  0.00  0.00    -0.050 A 
ATOM     29  C   UNL     1       0.006  -0.689  -1.199  0.00  0.00    +0.003 A 
ATOM     30  C   UNL     1       0.025  -2.071  -1.206  0.00  0.00    +0.005 A 
ATOM     31  C   UNL     1       0.040  -2.768  -0.013  0.00  0.00    -0.037 A 
ATOM     32  C   UNL     1       0.037  -2.084   1.188  0.00  0.00    +0.005 A 
ATOM     33  C   UNL     1       0.023  -0.702   1.195  0.00  0.00    +0.003 A 
ENDBRANCH  26  31
ENDBRANCH  25  26
ENDBRANCH   1  25
TORSDOF 4
