REMARK  Name = ZINC39912664
REMARK  12 active torsions:
REMARK  status: ('A' for Active; 'I' for Inactive)
REMARK    1  A    between atoms: C_1  and  C_2
REMARK    2  A    between atoms: C_4  and  C_34
REMARK    3  A    between atoms: C_5  and  O_33
REMARK    4  A    between atoms: C_6  and  C_8
REMARK    5  A    between atoms: N_16  and  C_26
REMARK    6  A    between atoms: C_17  and  C_19
REMARK    7  A    between atoms: C_26  and  C_27
REMARK    8  A    between atoms: C_27  and  C_28
REMARK    9  A    between atoms: C_28  and  O_29
REMARK   10  A    between atoms: O_29  and  C_30
REMARK   11  A    between atoms: C_30  and  C_31
REMARK   12  A    between atoms: C_30  and  C_32
REMARK                            x       y       z     vdW  Elec       q    Type
REMARK                         _______ _______ _______ _____ _____    ______ ____
ROOT
ATOM      1  C   UNL     1       0.123  -2.932   2.542  0.00  0.00    +0.102 A 
ATOM      2  C   UNL     1       0.176  -2.326   3.802  0.00  0.00    +0.035 A 
ATOM      3  C   UNL     1       0.143  -3.360   4.718  0.00  0.00    +0.126 A 
ATOM      4  N   UNL     1       0.073  -4.512   3.988  0.00  0.00    -0.272 N 
ATOM      5  H   UNL     1       0.036  -5.407   4.361  0.00  0.00    +0.189 HD
ATOM      6  N   UNL     1       0.058  -4.235   2.733  0.00  0.00    -0.173 NA
ATOM      7  C   UNL     1       0.196  -2.788   6.068  0.00  0.00    +0.265 C 
ATOM      8  O   UNL     1       0.184  -3.436   7.098  0.00  0.00    -0.268 OA
ATOM      9  N   UNL     1       0.261  -1.446   6.007  0.00  0.00    -0.285 N 
ATOM     10  C   UNL     1       0.253  -1.049   4.593  0.00  0.00    +0.141 C 
ENDROOT
BRANCH   1  16
ATOM     11  C   UNL     1      -1.573   0.705  -0.428  0.00  0.00    +0.044 C 
ATOM     12  C   UNL     1      -0.681  -0.488  -0.201  0.00  0.00    -0.049 A 
ATOM     13  C   UNL     1       0.146  -0.935  -1.216  0.00  0.00    +0.010 A 
ATOM     14  C   UNL     1       0.968  -2.028  -1.017  0.00  0.00    -0.008 A 
ATOM     15  C   UNL     1       0.966  -2.684   0.204  0.00  0.00    +0.129 A 
ATOM     16  C   UNL     1       0.132  -2.235   1.231  0.00  0.00    +0.044 A 
ATOM     17  C   UNL     1      -0.688  -1.129   1.022  0.00  0.00    +0.017 A 
ATOM     18  C   UNL     1       1.865  -2.508  -2.128  0.00  0.00    +0.047 C 
BRANCH  15  19
ATOM     19  O   UNL     1       1.772  -3.759   0.401  0.00  0.00    -0.506 OA
ATOM     20  H   UNL     1       2.648  -3.536   0.746  0.00  0.00    +0.292 HD
ENDBRANCH  15  19
ENDBRANCH   1  16
BRANCH  10  21
ATOM     21  C   UNL     1       1.520  -0.306   4.256  0.00  0.00    -0.021 A 
ATOM     22  C   UNL     1       2.743  -0.801   4.672  0.00  0.00    +0.006 A 
ATOM     23  C   UNL     1       3.905  -0.120   4.364  0.00  0.00    +0.001 A 
ATOM     24  C   UNL     1       3.846   1.056   3.640  0.00  0.00    +0.015 A 
ATOM     25  C   UNL     1       2.624   1.552   3.224  0.00  0.00    +0.018 A 
ATOM     26  C   UNL     1       1.461   0.867   3.528  0.00  0.00    +0.021 A 
ATOM     27 BR   UNL     1       2.543   3.161   2.234  0.00  0.00    -0.050 Br
ENDBRANCH  10  21
BRANCH   9  28
ATOM     28  C   UNL     1       0.327  -0.536   7.153  0.00  0.00    +0.111 C 
BRANCH  28  29
ATOM     29  C   UNL     1       1.790  -0.290   7.524  0.00  0.00    +0.047 C 
BRANCH  29  30
ATOM     30  C   UNL     1       1.859   0.660   8.722  0.00  0.00    +0.161 C 
BRANCH  30  31
ATOM     31  O   UNL     1       3.227   0.891   9.069  0.00  0.00    -0.377 OA
BRANCH  31  32
ATOM     32  C   UNL     1       3.404   1.770  10.181  0.00  0.00    +0.112 C 
ATOM     33  C   UNL     1       4.687   1.398  10.926  0.00  0.00    +0.037 C 
ATOM     34  C   UNL     1       3.504   3.212   9.681  0.00  0.00    +0.037 C 
ENDBRANCH  31  32
ENDBRANCH  30  31
ENDBRANCH  29  30
ENDBRANCH  28  29
ENDBRANCH   9  28
TORSDOF 8
