REMARK  Name = ZINC22914036
REMARK  8 active torsions:
REMARK  status: ('A' for Active; 'I' for Inactive)
REMARK    1  A    between atoms: C_1  and  C_2
REMARK    2  A    between atoms: C_2  and  C_4
REMARK    3  A    between atoms: C_2  and  N_16
REMARK    4  A    between atoms: C_7  and  C_10
REMARK    5  A    between atoms: C_17  and  C_19
REMARK    6  A    between atoms: C_19  and  N_20
REMARK    7  A    between atoms: N_23  and  C_26
REMARK    8  A    between atoms: C_26  and  C_27
REMARK                            x       y       z     vdW  Elec       q    Type
REMARK                         _______ _______ _______ _____ _____    ______ ____
ROOT
ATOM      1  C   UNL     1       0.364  -0.886  -3.427  0.00  0.00    +0.180 C 
ENDROOT
BRANCH   1   2
ATOM      2  N   UNL     1      -0.499  -0.995  -4.611  0.00  0.00    -0.292 NA
ATOM      3  C   UNL     1      -1.551  -2.000  -4.405  0.00  0.00    +0.100 C 
ATOM      4  C   UNL     1      -2.474  -2.026  -5.625  0.00  0.00    +0.100 C 
ATOM      5  N   UNL     1      -1.685  -2.332  -6.827  0.00  0.00    -0.294 NA
ATOM      6  C   UNL     1      -0.633  -1.327  -7.033  0.00  0.00    +0.100 C 
ATOM      7  C   UNL     1       0.290  -1.301  -5.812  0.00  0.00    +0.100 C 
BRANCH   5   8
ATOM      8  C   UNL     1      -2.548  -2.441  -8.010  0.00  0.00    +0.137 C 
BRANCH   8   9
ATOM      9  C   UNL     1      -3.284  -3.755  -7.976  0.00  0.00    +0.037 A 
ATOM     10  C   UNL     1      -4.657  -3.787  -7.851  0.00  0.00    +0.093 A 
ATOM     11  C   UNL     1      -5.322  -5.014  -7.822  0.00  0.00    +0.259 A 
ATOM     12  O   UNL     1      -6.537  -5.048  -7.712  0.00  0.00    -0.267 OA
ATOM     13  N   UNL     1      -4.610  -6.177  -7.916  0.00  0.00    -0.264 N 
ATOM     14  C   UNL     1      -5.118  -7.454  -7.902  0.00  0.00    +0.104 A 
ATOM     15  C   UNL     1      -4.316  -8.514  -8.002  0.00  0.00    +0.067 A 
ATOM     16  S   UNL     1      -2.708  -7.746  -8.129  0.00  0.00    -0.059 S 
ATOM     17  C   UNL     1      -3.252  -6.053  -8.037  0.00  0.00    +0.158 A 
ATOM     18  N   UNL     1      -2.622  -4.905  -8.070  0.00  0.00    -0.338 N 
ATOM     19  H   UNL     1      -1.657  -4.894  -8.162  0.00  0.00    +0.168 HD
ENDBRANCH   8   9
ENDBRANCH   5   8
ENDBRANCH   1   2
BRANCH   1  21
ATOM     20  N   UNL     1       0.157  -0.148  -1.076  0.00  0.00    -0.308 N 
ATOM     21  C   UNL     1      -0.433  -0.335  -2.273  0.00  0.00    +0.228 C 
ATOM     22  O   UNL     1      -1.604  -0.060  -2.422  0.00  0.00    -0.274 OA
ATOM     23  H   UNL     1       1.094  -0.368  -0.957  0.00  0.00    +0.149 HD
BRANCH  20  25
ATOM     24  C   UNL     1      -0.627   1.916  -0.024  0.00  0.00    +0.033 C 
ATOM     25  C   UNL     1      -0.618   0.388   0.046  0.00  0.00    +0.100 C 
BRANCH  25  26
ATOM     26  C   UNL     1       0.008  -0.052   1.345  0.00  0.00    -0.027 A 
ATOM     27  C   UNL     1       1.385  -0.066   1.476  0.00  0.00    +0.006 A 
ATOM     28  C   UNL     1       1.964  -0.468   2.662  0.00  0.00    +0.009 A 
ATOM     29  C   UNL     1       1.159  -0.860   3.730  0.00  0.00    -0.018 A 
ATOM     30  C   UNL     1      -0.228  -0.843   3.592  0.00  0.00    +0.009 A 
ATOM     31  C   UNL     1      -0.796  -0.434   2.403  0.00  0.00    +0.006 A 
BRANCH  29  32
ATOM     32  C   UNL     1       1.776  -1.293   5.008  0.00  0.00    -0.018 A 
ATOM     33  C   UNL     1       3.162  -1.304   5.147  0.00  0.00    +0.008 A 
ATOM     34  C   UNL     1       3.730  -1.708   6.338  0.00  0.00    +0.001 A 
ATOM     35  C   UNL     1       2.926  -2.101   7.393  0.00  0.00    +0.000 A 
ATOM     36  C   UNL     1       1.549  -2.093   7.260  0.00  0.00    +0.001 A 
ATOM     37  C   UNL     1       0.970  -1.685   6.075  0.00  0.00    +0.008 A 
ENDBRANCH  29  32
ENDBRANCH  25  26
ENDBRANCH  20  25
ENDBRANCH   1  21
TORSDOF 7
