REMARK  Name = ZINC19314588
REMARK  10 active torsions:
REMARK  status: ('A' for Active; 'I' for Inactive)
REMARK    1  A    between atoms: C_1  and  C_2
REMARK    2  A    between atoms: C_2  and  O_3
REMARK    3  A    between atoms: O_3  and  C_4
REMARK    4  A    between atoms: C_4  and  C_6
REMARK    5  A    between atoms: C_7  and  C_30
REMARK    6  A    between atoms: C_11  and  C_13
REMARK    7  A    between atoms: C_18  and  O_19
REMARK    8  A    between atoms: O_19  and  C_20
REMARK    9  A    between atoms: C_26  and  C_28
REMARK   10  A    between atoms: C_26  and  C_29
REMARK                            x       y       z     vdW  Elec       q    Type
REMARK                         _______ _______ _______ _____ _____    ______ ____
ROOT
ATOM      1  C   UNL     1       2.946   0.891  -3.633  0.00  0.00    +0.065 C 
ATOM      2  C   UNL     1       3.620   1.465  -4.645  0.00  0.00    +0.016 C 
ATOM      3  N   UNL     1       3.329   2.743  -5.034  0.00  0.00    -0.321 N 
ATOM      4  C   UNL     1       2.131   3.317  -4.704  0.00  0.00    +0.016 C 
ATOM      5  C   UNL     1       1.392   2.823  -3.688  0.00  0.00    +0.024 C 
ATOM      6  C   UNL     1       1.869   1.632  -2.896  0.00  0.00    +0.096 C 
ATOM      7  C   UNL     1       0.161   3.405  -3.337  0.00  0.00    +0.162 C 
ATOM      8  O   UNL     1      -0.486   2.929  -2.426  0.00  0.00    -0.292 OA
ATOM      9  C   UNL     1      -0.370   4.607  -4.071  0.00  0.00    +0.086 C 
ATOM     10  C   UNL     1       0.810   5.418  -4.617  0.00  0.00    -0.023 C 
ATOM     11  C   UNL     1       1.657   4.504  -5.505  0.00  0.00    +0.058 C 
ATOM     12  C   UNL     1       1.659   5.937  -3.455  0.00  0.00    +0.011 C 
ATOM     13  C   UNL     1       0.290   6.598  -5.441  0.00  0.00    +0.011 C 
ATOM     14  C   UNL     1       4.702   0.694  -5.356  0.00  0.00    +0.061 C 
ATOM     15  H   UNL     1       4.062   3.320  -5.616  0.00  0.00    +0.152 HD
ENDROOT
BRANCH   6  16
ATOM     16  C   UNL     1       2.410   2.103  -1.571  0.00  0.00    +0.009 A 
ATOM     17  C   UNL     1       1.637   1.996  -0.431  0.00  0.00    +0.028 A 
ATOM     18  C   UNL     1       2.133   2.429   0.786  0.00  0.00    +0.043 A 
ATOM     19  C   UNL     1       3.404   2.969   0.865  0.00  0.00    +0.043 A 
ATOM     20  C   UNL     1       4.183   3.073  -0.273  0.00  0.00    +0.084 A 
ATOM     21  C   UNL     1       3.684   2.644  -1.495  0.00  0.00    +0.142 A 
ATOM     22 CL   UNL     1       5.781   3.744  -0.173  0.00  0.00    -0.080 Cl
ATOM     23 CL   UNL     1       1.159   2.293   2.217  0.00  0.00    -0.083 Cl
BRANCH  21  24
ATOM     24  O   UNL     1       4.447   2.750  -2.616  0.00  0.00    -0.493 OA
ATOM     25  C   UNL     1       4.611   4.058  -3.168  0.00  0.00    +0.277 C 
ENDBRANCH  21  24
ENDBRANCH   6  16
BRANCH   1  26
ATOM     26  C   UNL     1       3.258  -0.435  -3.255  0.00  0.00    +0.338 C 
ATOM     27  O   UNL     1       4.038  -1.090  -3.921  0.00  0.00    -0.245 OA
BRANCH  26  28
ATOM     28  O   UNL     1       2.691  -0.975  -2.156  0.00  0.00    -0.462 OA
BRANCH  28  30
ATOM     29  C   UNL     1       2.308  -2.767  -0.580  0.00  0.00    +0.048 C 
ATOM     30  C   UNL     1       3.139  -2.276  -1.767  0.00  0.00    +0.229 C 
ENDBRANCH  28  30
ENDBRANCH  26  28
ENDBRANCH   1  26
TORSDOF 5
