REMARK  Name = ZINC39659256
REMARK  7 active torsions:
REMARK  status: ('A' for Active; 'I' for Inactive)
REMARK    1  A    between atoms: C_1  and  C_2
REMARK    2  A    between atoms: C_2  and  C_33
REMARK    3  A    between atoms: C_5  and  C_8
REMARK    4  A    between atoms: C_8  and  N_9
REMARK    5  A    between atoms: C_10  and  C_12
REMARK    6  A    between atoms: C_23  and  C_25
REMARK    7  A    between atoms: C_25  and  C_26
REMARK                            x       y       z     vdW  Elec       q    Type
REMARK                         _______ _______ _______ _____ _____    ______ ____
ROOT
ATOM      1  C   UNL     1       3.368  -2.971   4.869  0.00  0.00    +0.100 C 
ATOM      2  C   UNL     1       4.309  -1.829   4.423  0.00  0.00    +0.121 C 
ATOM      3  N   UNL     1       4.526  -1.023   5.647  0.00  0.00    -0.300 N 
ATOM      4  C   UNL     1       4.644  -2.026   6.732  0.00  0.00    +0.115 C 
ATOM      5  C   UNL     1       3.594  -3.100   6.384  0.00  0.00    -0.004 C 
ATOM      6  C   UNL     1       4.127  -4.489   6.723  0.00  0.00    -0.010 C 
ATOM      7  C   UNL     1       4.288  -4.613   8.241  0.00  0.00    -0.082 C 
ATOM      8  N   UNL     1       2.991  -4.391   8.893  0.00  0.00    +0.379 N 
ATOM      9  C   UNL     1       2.531  -3.021   8.638  0.00  0.00    -0.082 C 
ATOM     10  C   UNL     1       2.295  -2.830   7.137  0.00  0.00    -0.010 C 
ATOM     11  C   UNL     1       4.599   0.318   5.750  0.00  0.00    +0.220 C 
ATOM     12  O   UNL     1       4.783   0.834   6.833  0.00  0.00    -0.275 OA
ATOM     13  H   UNL     1       2.316  -5.045   8.526  0.00  0.00    -0.086 HD
ATOM     14  H   UNL     1       3.087  -4.533   9.887  0.00  0.00    -0.086 HD
ENDROOT
BRANCH   1  16
ATOM     15  N   UNL     1       1.030  -3.584   4.342  0.00  0.00    -0.312 N 
ATOM     16  C   UNL     1       1.933  -2.612   4.581  0.00  0.00    +0.218 C 
ATOM     17  O   UNL     1       1.591  -1.449   4.564  0.00  0.00    -0.275 OA
ATOM     18  H   UNL     1       1.304  -4.514   4.356  0.00  0.00    +0.149 HD
BRANCH  15  19
ATOM     19  C   UNL     1      -0.365  -3.234   4.062  0.00  0.00    +0.138 C 
BRANCH  19  24
ATOM     20  C   UNL     1      -2.012  -5.912   0.661  0.00  0.00    +0.074 C 
ATOM     21  C   UNL     1      -1.918  -5.920   2.188  0.00  0.00    +0.165 C 
ATOM     22  O   UNL     1      -3.091  -5.313   2.746  0.00  0.00    -0.347 OA
ATOM     23  C   UNL     1      -2.657  -4.182   3.529  0.00  0.00    +0.196 C 
ATOM     24  C   UNL     1      -1.174  -4.512   3.829  0.00  0.00    +0.164 C 
ATOM     25  O   UNL     1      -0.765  -5.169   2.605  0.00  0.00    -0.342 OA
ATOM     26  C   UNL     1      -1.801  -7.361   2.689  0.00  0.00    +0.074 C 
ENDBRANCH  19  24
ENDBRANCH  15  19
ENDBRANCH   1  16
BRANCH  11  27
ATOM     27  C   UNL     1       4.453   1.178   4.521  0.00  0.00    +0.131 C 
BRANCH  27  28
ATOM     28  C   UNL     1       4.573   2.630   4.907  0.00  0.00    -0.039 A 
ATOM     29  C   UNL     1       3.446   3.345   5.265  0.00  0.00    +0.005 A 
ATOM     30  C   UNL     1       3.555   4.677   5.619  0.00  0.00    +0.020 A 
ATOM     31  C   UNL     1       4.793   5.294   5.613  0.00  0.00    +0.041 A 
ATOM     32  C   UNL     1       5.921   4.578   5.254  0.00  0.00    +0.020 A 
ATOM     33  C   UNL     1       5.811   3.245   4.907  0.00  0.00    +0.005 A 
ATOM     34 CL   UNL     1       4.931   6.967   6.057  0.00  0.00    -0.084 Cl
ENDBRANCH  27  28
ENDBRANCH  11  27
TORSDOF 5
