REMARK  Name = ZINC27640951
REMARK  19 active torsions:
REMARK  status: ('A' for Active; 'I' for Inactive)
REMARK    1  A    between atoms: C_1  and  C_2
REMARK    2  A    between atoms: C_2  and  C_3
REMARK    3  A    between atoms: C_3  and  C_4
REMARK    4  A    between atoms: C_4  and  C_5
REMARK    5  A    between atoms: C_5  and  C_6
REMARK    6  A    between atoms: C_6  and  C_8
REMARK    7  A    between atoms: C_6  and  O_31
REMARK    8  A    between atoms: C_9  and  C_10
REMARK    9  A    between atoms: C_12  and  O_30
REMARK   10  A    between atoms: C_15  and  O_29
REMARK   11  A    between atoms: C_17  and  C_19
REMARK   12  A    between atoms: C_19  and  C_20
REMARK   13  A    between atoms: C_21  and  C_22
REMARK   14  A    between atoms: C_22  and  C_23
REMARK   15  A    between atoms: C_23  and  C_24
REMARK   16  A    between atoms: C_24  and  C_25
REMARK   17  A    between atoms: C_25  and  N_26
REMARK   18  A    between atoms: N_26  and  C_27
REMARK   19  A    between atoms: N_26  and  C_28
REMARK                            x       y       z     vdW  Elec       q    Type
REMARK                         _______ _______ _______ _____ _____    ______ ____
ROOT
ATOM      1  C   UNL     1       0.272   0.021   0.262  0.00  0.00    +0.046 C 
ATOM      2  C   UNL     1       1.740  -0.376   0.523  0.00  0.00    +0.124 C 
ATOM      3  C   UNL     1       2.343   0.853   1.248  0.00  0.00    +0.063 C 
ATOM      4  C   UNL     1       1.668   2.043   0.523  0.00  0.00    +0.121 C 
ATOM      5  C   UNL     1       0.226   1.559   0.262  0.00  0.00    +0.031 C 
ENDROOT
BRANCH   2   6
ATOM      6  O   UNL     1       1.804  -1.532   1.360  0.00  0.00    -0.391 OA
ATOM      7  H   UNL     1       2.781  -1.951   1.646  0.00  0.00    +0.210 HD
ENDBRANCH   2   6
BRANCH   4   8
ATOM      8  O   UNL     1       2.333   2.319  -0.711  0.00  0.00    -0.391 OA
ATOM      9  H   UNL     1       1.980   3.138  -1.355  0.00  0.00    +0.210 HD
ENDBRANCH   4   8
BRANCH   1  11
ATOM     10  C   UNL     1      -1.220  -1.298  -1.150  0.00  0.00    -0.000 C 
ATOM     11  C   UNL     1      -0.177  -0.509  -1.075  0.00  0.00    -0.022 C 
BRANCH  10  12
ATOM     12  C   UNL     1      -1.669  -1.828  -2.487  0.00  0.00    +0.137 C 
BRANCH  12  13
ATOM     13  O   UNL     1      -3.008  -1.399  -2.745  0.00  0.00    -0.388 OA
ATOM     14  H   UNL     1      -3.241  -0.325  -2.793  0.00  0.00    +0.210 HD
ENDBRANCH  12  13
BRANCH  12  15
ATOM     15  C   UNL     1      -1.619  -3.357  -2.473  0.00  0.00    +0.035 C 
BRANCH  15  16
ATOM     16  C   UNL     1      -1.954  -3.892  -3.867  0.00  0.00    +0.003 C 
BRANCH  16  17
ATOM     17  C   UNL     1      -1.903  -5.421  -3.853  0.00  0.00    -0.000 C 
BRANCH  17  19
ATOM     18  C   UNL     1      -2.188  -7.484  -5.232  0.00  0.00    +0.004 C 
ATOM     19  C   UNL     1      -2.239  -5.955  -5.246  0.00  0.00    -0.003 C 
ENDBRANCH  17  19
ENDBRANCH  16  17
ENDBRANCH  15  16
ENDBRANCH  12  15
ENDBRANCH  10  12
ENDBRANCH   1  11
BRANCH   5  20
ATOM     20  C   UNL     1      -0.702   2.055   1.372  0.00  0.00    +0.033 C 
BRANCH  20  21
ATOM     21  C   UNL     1      -0.835   3.554   1.283  0.00  0.00    -0.031 C 
ATOM     22  C   UNL     1      -2.022   4.105   1.244  0.00  0.00    -0.031 C 
BRANCH  22  23
ATOM     23  C   UNL     1      -3.252   3.261   1.457  0.00  0.00    +0.027 C 
BRANCH  23  24
ATOM     24  C   UNL     1      -4.103   3.872   2.572  0.00  0.00    +0.002 C 
BRANCH  24  25
ATOM     25  C   UNL     1      -5.352   3.015   2.788  0.00  0.00    -0.018 C 
BRANCH  25  26
ATOM     26  C   UNL     1      -6.203   3.626   3.904  0.00  0.00    -0.080 C 
BRANCH  26  27
ATOM     27  N   UNL     1      -7.402   2.803   4.112  0.00  0.00    +0.376 N 
ATOM     28  C   UNL     1      -8.121   3.218   5.324  0.00  0.00    -0.097 C 
ATOM     29  C   UNL     1      -8.282   2.849   2.936  0.00  0.00    -0.097 C 
ATOM     30  H   UNL     1      -7.077   1.762   4.251  0.00  0.00    -0.083 HD
ENDBRANCH  26  27
ENDBRANCH  25  26
ENDBRANCH  24  25
ENDBRANCH  23  24
ENDBRANCH  22  23
ENDBRANCH  20  21
ENDBRANCH   5  20
TORSDOF 16
