REMARK  Name = ZINC55163945
REMARK  4 active torsions:
REMARK  status: ('A' for Active; 'I' for Inactive)
REMARK    1  A    between atoms: C_1  and  C_2
REMARK    2  A    between atoms: C_2  and  C_4
REMARK    3  A    between atoms: C_2  and  N_14
REMARK    4  A    between atoms: C_15  and  C_17
REMARK                            x       y       z     vdW  Elec       q    Type
REMARK                         _______ _______ _______ _____ _____    ______ ____
ROOT
ATOM      1  N   UNL     1       0.688  -0.476  -1.203  0.00  0.00    -0.306 N 
ATOM      2  C   UNL     1       2.031  -0.587  -1.215  0.00  0.00    +0.283 C 
ATOM      3  O   UNL     1       2.674  -0.295  -0.225  0.00  0.00    -0.267 OA
ATOM      4  H   UNL     1       0.175  -0.710  -1.993  0.00  0.00    +0.149 HD
ENDROOT
BRANCH   2   5
ATOM      5  C   UNL     1       2.723  -1.064  -2.431  0.00  0.00    +0.238 A 
ATOM      6  N   UNL     1       4.050  -1.221  -2.565  0.00  0.00    -0.190 NA
ATOM      7  C   UNL     1       4.324  -1.660  -3.771  0.00  0.00    +0.209 A 
ATOM      8  N   UNL     1       3.158  -1.794  -4.444  0.00  0.00    -0.246 N 
ATOM      9  H   UNL     1       3.048  -2.100  -5.358  0.00  0.00    +0.192 HD
ATOM     10  N   UNL     1       2.139  -1.409  -3.558  0.00  0.00    -0.146 NA
ATOM     11  N   UNL     1       5.585  -1.936  -4.267  0.00  0.00    -0.328 N 
ATOM     12  H   UNL     1       6.366  -1.808  -3.706  0.00  0.00    +0.145 HD
ATOM     13  H   UNL     1       5.689  -2.258  -5.176  0.00  0.00    +0.145 HD
ENDBRANCH   2   5
BRANCH   1  15
ATOM     14  C   UNL     1      -0.019   1.526   0.010  0.00  0.00    +0.028 C 
ATOM     15  C   UNL     1       0.002  -0.004   0.002  0.00  0.00    +0.076 C 
BRANCH  15  16
ATOM     16  C   UNL     1      -1.433  -0.534   0.013  0.00  0.00    -0.010 C 
ATOM     17  C   UNL     1      -2.173  -0.027  -1.227  0.00  0.00    +0.012 C 
ATOM     18  C   UNL     1      -3.609  -0.556  -1.216  0.00  0.00    -0.010 C 
ATOM     19  C   UNL     1      -4.325  -0.063   0.043  0.00  0.00    +0.007 C 
ATOM     20  C   UNL     1      -3.585  -0.570   1.282  0.00  0.00    -0.010 C 
ATOM     21  C   UNL     1      -2.149  -0.040   1.272  0.00  0.00    +0.012 C 
ATOM     22  C   UNL     1      -3.564  -2.100   1.274  0.00  0.00    +0.007 C 
ATOM     23  C   UNL     1      -2.848  -2.593   0.015  0.00  0.00    -0.010 C 
ATOM     24  C   UNL     1      -3.588  -2.086  -1.224  0.00  0.00    +0.007 C 
ATOM     25  C   UNL     1      -1.413  -2.063   0.004  0.00  0.00    +0.012 C 
ENDBRANCH  15  16
ENDBRANCH   1  15
TORSDOF 3
