REMARK  Name = ZINC12554335
REMARK  9 active torsions:
REMARK  status: ('A' for Active; 'I' for Inactive)
REMARK    1  A    between atoms: C_1  and  C_2
REMARK    2  A    between atoms: C_3  and  C_26
REMARK    3  A    between atoms: C_4  and  C_18
REMARK    4  A    between atoms: N_9  and  C_10
REMARK    5  A    between atoms: C_13  and  O_16
REMARK    6  A    between atoms: O_16  and  C_17
REMARK    7  A    between atoms: C_21  and  C_24
REMARK    8  A    between atoms: C_26  and  O_28
REMARK    9  A    between atoms: O_28  and  C_29
REMARK                            x       y       z     vdW  Elec       q    Type
REMARK                         _______ _______ _______ _____ _____    ______ ____
ROOT
ATOM      1  C   UNL     1       0.071  -0.446   4.927  0.00  0.00    +0.062 C 
ATOM      2  C   UNL     1      -0.696   0.846   4.821  0.00  0.00    +0.027 C 
ATOM      3  C   UNL     1      -1.155   1.250   3.616  0.00  0.00    +0.078 C 
ATOM      4  C   UNL     1      -1.928   2.553   3.556  0.00  0.00    +0.141 C 
ATOM      5  N   UNL     1      -2.110   3.279   4.824  0.00  0.00    -0.315 N 
ATOM      6  C   UNL     1      -1.587   2.750   5.948  0.00  0.00    +0.142 C 
ATOM      7  S   UNL     1      -1.792   3.584   7.429  0.00  0.00    -0.018 S 
ATOM      8  N   UNL     1      -0.913   1.593   5.944  0.00  0.00    -0.255 N 
ATOM      9  H   UNL     1      -2.596   4.118   4.850  0.00  0.00    +0.149 HD
ENDROOT
BRANCH   8  10
ATOM     10  C   UNL     1      -0.405   1.119   7.162  0.00  0.00    +0.040 A 
ATOM     11  C   UNL     1       0.880   1.464   7.559  0.00  0.00    +0.027 A 
ATOM     12  C   UNL     1       1.378   1.002   8.761  0.00  0.00    +0.047 A 
ATOM     13  C   UNL     1       0.599   0.184   9.566  0.00  0.00    +0.120 A 
ATOM     14  C   UNL     1      -0.683  -0.165   9.168  0.00  0.00    +0.047 A 
ATOM     15  C   UNL     1      -1.184   0.301   7.968  0.00  0.00    +0.027 A 
BRANCH  13  16
ATOM     16  O   UNL     1       1.092  -0.275  10.747  0.00  0.00    -0.495 OA
ATOM     17  C   UNL     1       2.419   0.123  11.096  0.00  0.00    +0.277 C 
ENDBRANCH  13  16
ENDBRANCH   8  10
BRANCH   4  18
ATOM     18  C   UNL     1      -3.292   2.258   2.989  0.00  0.00    -0.023 A 
ATOM     19  C   UNL     1      -4.275   1.722   3.802  0.00  0.00    +0.007 A 
ATOM     20  C   UNL     1      -5.528   1.455   3.290  0.00  0.00    +0.019 A 
ATOM     21  C   UNL     1      -5.800   1.715   1.946  0.00  0.00    +0.052 A 
ATOM     22  C   UNL     1      -4.801   2.250   1.129  0.00  0.00    +0.019 A 
ATOM     23  C   UNL     1      -3.555   2.518   1.655  0.00  0.00    +0.007 A 
BRANCH  21  24
ATOM     24  C   UNL     1      -7.096   1.433   1.406  0.00  0.00    +0.099 C 
ATOM     25  N   UNL     1      -8.124   1.210   0.978  0.00  0.00    -0.191 NA
ENDBRANCH  21  24
ENDBRANCH   4  18
BRANCH   3  26
ATOM     26  C   UNL     1      -0.928   0.480   2.452  0.00  0.00    +0.339 C 
ATOM     27  O   UNL     1      -0.231  -0.515   2.507  0.00  0.00    -0.245 OA
BRANCH  26  28
ATOM     28  O   UNL     1      -1.485   0.850   1.279  0.00  0.00    -0.465 OA
ATOM     29  C   UNL     1      -1.213   0.026   0.144  0.00  0.00    +0.280 C 
ENDBRANCH  26  28
ENDBRANCH   3  26
TORSDOF 6
