REMARK  Name = ZINC15184895
REMARK  11 active torsions:
REMARK  status: ('A' for Active; 'I' for Inactive)
REMARK    1  A    between atoms: C_3  and  C_6
REMARK    2  A    between atoms: C_6  and  N_7
REMARK    3  A    between atoms: N_7  and  S_8
REMARK    4  A    between atoms: S_8  and  C_11
REMARK    5  A    between atoms: C_14  and  C_17
REMARK    6  A    between atoms: C_17  and  O_19
REMARK    7  A    between atoms: O_19  and  C_20
REMARK    8  A    between atoms: C_20  and  C_21
REMARK    9  A    between atoms: N_23  and  C_24
REMARK   10  A    between atoms: C_27  and  S_30
REMARK   11  A    between atoms: S_30  and  C_31
REMARK                            x       y       z     vdW  Elec       q    Type
REMARK                         _______ _______ _______ _____ _____    ______ ____
ROOT
ATOM      1  C   UNL     1      -0.015   0.021   0.380  0.00  0.00    +0.340 C 
ATOM      2  O   UNL     1       1.027  -0.585   0.225  0.00  0.00    -0.245 OA
ENDROOT
BRANCH   1   6
ATOM      3  C   UNL     1      -3.641  -2.110   0.967  0.00  0.00    +0.105 A 
ATOM      4  C   UNL     1      -2.457  -2.803   0.789  0.00  0.00    +0.029 A 
ATOM      5  C   UNL     1      -1.275  -2.117   0.598  0.00  0.00    +0.017 A 
ATOM      6  C   UNL     1      -1.277  -0.721   0.584  0.00  0.00    +0.059 A 
ATOM      7  C   UNL     1      -2.475  -0.028   0.768  0.00  0.00    +0.017 A 
ATOM      8  C   UNL     1      -3.650  -0.727   0.953  0.00  0.00    +0.029 A 
BRANCH   3   9
ATOM      9  S   UNL     1      -5.146  -2.995   1.210  0.00  0.00    +0.059 S 
ATOM     10  O   UNL     1      -6.197  -2.127   0.807  0.00  0.00    -0.153 OA
ATOM     11  O   UNL     1      -4.958  -4.281   0.637  0.00  0.00    -0.153 OA
BRANCH   9  12
ATOM     12  N   UNL     1      -5.320  -3.224   2.841  0.00  0.00    -0.183 NA
ATOM     13  H   UNL     1      -5.299  -4.121   3.210  0.00  0.00    +0.148 HD
BRANCH  12  14
ATOM     14  C   UNL     1      -5.508  -2.072   3.727  0.00  0.00    +0.180 C 
BRANCH  14  17
ATOM     15  C   UNL     1      -6.101  -3.270   7.161  0.00  0.00    +0.041 A 
ATOM     16  C   UNL     1      -5.229  -2.890   6.115  0.00  0.00    +0.046 A 
ATOM     17  C   UNL     1      -6.002  -2.546   5.069  0.00  0.00    +0.120 A 
ATOM     18  O   UNL     1      -7.288  -2.689   5.426  0.00  0.00    -0.466 OA
ATOM     19  C   UNL     1      -7.355  -3.134   6.692  0.00  0.00    +0.195 A 
ENDBRANCH  14  17
ENDBRANCH  12  14
ENDBRANCH   9  12
ENDBRANCH   3   9
ENDBRANCH   1   6
BRANCH   1  20
ATOM     20  O   UNL     1      -0.020   1.368   0.367  0.00  0.00    -0.452 OA
BRANCH  20  21
ATOM     21  C   UNL     1       1.256   2.030   0.162  0.00  0.00    +0.328 C 
BRANCH  21  22
ATOM     22  C   UNL     1       1.055   3.523   0.177  0.00  0.00    +0.255 C 
ATOM     23  O   UNL     1      -0.054   3.984   0.344  0.00  0.00    -0.272 OA
ATOM     24  N   UNL     1       2.108   4.346   0.005  0.00  0.00    -0.283 N 
ATOM     25  H   UNL     1       3.005   3.981  -0.052  0.00  0.00    +0.155 HD
BRANCH  24  26
ATOM     26  C   UNL     1       1.908   5.730  -0.091  0.00  0.00    +0.034 A 
ATOM     27  C   UNL     1       0.756   6.224  -0.689  0.00  0.00    +0.024 A 
ATOM     28  C   UNL     1       0.556   7.587  -0.780  0.00  0.00    +0.017 A 
ATOM     29  C   UNL     1       1.512   8.464  -0.282  0.00  0.00    +0.013 A 
ATOM     30  C   UNL     1       2.666   7.969   0.311  0.00  0.00    +0.017 A 
ATOM     31  C   UNL     1       2.864   6.606   0.406  0.00  0.00    +0.024 A 
BRANCH  29  32
ATOM     32  S   UNL     1       1.259  10.204  -0.403  0.00  0.00    -0.056 S 
BRANCH  32  33
ATOM     33  C   UNL     1      -0.347  10.358  -1.231  0.00  0.00    +0.404 C 
ATOM     34  F   UNL     1      -0.285   9.746  -2.488  0.00  0.00    -0.197 F 
ATOM     35  F   UNL     1      -1.333   9.735  -0.458  0.00  0.00    -0.197 F 
ENDBRANCH  32  33
ENDBRANCH  29  32
ENDBRANCH  24  26
ENDBRANCH  21  22
ENDBRANCH  20  21
ENDBRANCH   1  20
TORSDOF 11
