REMARK  Name = ZINC29601706
REMARK  9 active torsions:
REMARK  status: ('A' for Active; 'I' for Inactive)
REMARK    1  A    between atoms: C_1  and  C_2
REMARK    2  A    between atoms: C_2  and  C_3
REMARK    3  A    between atoms: C_2  and  C_4
REMARK    4  A    between atoms: C_2  and  C_5
REMARK    5  A    between atoms: N_13  and  C_17
REMARK    6  A    between atoms: C_17  and  C_18
REMARK    7  A    between atoms: N_20  and  C_21
REMARK    8  A    between atoms: C_21  and  C_22
REMARK    9  A    between atoms: C_22  and  C_23
REMARK                            x       y       z     vdW  Elec       q    Type
REMARK                         _______ _______ _______ _____ _____    ______ ____
ROOT
ATOM      1  C   UNL     1      -2.040  -9.864  -4.404  0.00  0.00    -0.005 C 
ATOM      2  C   UNL     1      -1.202  -8.584  -4.438  0.00  0.00    +0.006 C 
ATOM      3  C   UNL     1      -1.940  -7.513  -5.246  0.00  0.00    +0.035 C 
ATOM      4  C   UNL     1      -3.296  -7.237  -4.605  0.00  0.00    +0.113 C 
ATOM      5  C   UNL     1      -4.134  -8.509  -4.546  0.00  0.00    +0.035 C 
ATOM      6  C   UNL     1      -3.388  -9.576  -3.741  0.00  0.00    +0.006 C 
ATOM      7  C   UNL     1      -3.116  -6.660  -3.220  0.00  0.00    +0.247 C 
ATOM      8  O   UNL     1      -2.575  -7.184  -2.271  0.00  0.00    -0.273 OA
ATOM      9  N   UNL     1      -3.685  -5.437  -3.263  0.00  0.00    -0.215 N 
ATOM     10  C   UNL     1      -4.197  -5.173  -4.471  0.00  0.00    +0.310 C 
ATOM     11  O   UNL     1      -4.764  -4.136  -4.753  0.00  0.00    -0.252 OA
ATOM     12  N   UNL     1      -4.008  -6.184  -5.341  0.00  0.00    -0.285 N 
ATOM     13  H   UNL     1      -4.272  -6.334  -6.398  0.00  0.00    +0.151 HD
ENDROOT
BRANCH   1  15
ATOM     14  C   UNL     1      -1.066 -10.442  -2.178  0.00  0.00    +0.011 C 
ATOM     15  C   UNL     1      -1.298 -10.938  -3.606  0.00  0.00    -0.035 C 
ATOM     16  C   UNL     1      -2.135 -12.217  -3.573  0.00  0.00    +0.011 C 
ATOM     17  C   UNL     1       0.050 -11.227  -4.271  0.00  0.00    +0.011 C 
ENDBRANCH   1  15
BRANCH   9  18
ATOM     18  C   UNL     1      -3.740  -4.515  -2.126  0.00  0.00    +0.213 C 
BRANCH  18  19
ATOM     19  C   UNL     1      -2.517  -3.635  -2.132  0.00  0.00    +0.231 C 
ATOM     20  O   UNL     1      -1.681  -3.765  -3.001  0.00  0.00    -0.274 OA
ATOM     21  N   UNL     1      -2.352  -2.703  -1.173  0.00  0.00    -0.314 N 
ATOM     22  H   UNL     1      -3.111  -2.584  -0.385  0.00  0.00    +0.149 HD
BRANCH  21  23
ATOM     23  C   UNL     1      -1.163  -1.847  -1.179  0.00  0.00    +0.112 C 
BRANCH  23  24
ATOM     24  C   UNL     1      -1.221  -0.884   0.009  0.00  0.00    +0.093 C 
BRANCH  24  25
ATOM     25  C   UNL     1       0.002  -0.004   0.002  0.00  0.00    +0.110 A 
ATOM     26  N   UNL     1      -0.016   1.356   0.009  0.00  0.00    -0.342 N 
ATOM     27  H   UNL     1      -0.976   1.893   0.021  0.00  0.00    +0.167 HD
ATOM     28  C   UNL     1       1.296   1.785  -0.001  0.00  0.00    +0.066 A 
ATOM     29  C   UNL     1       1.906   3.032  -0.000  0.00  0.00    +0.028 A 
ATOM     30  C   UNL     1       3.281   3.119  -0.013  0.00  0.00    +0.002 A 
ATOM     31  C   UNL     1       4.059   1.970  -0.027  0.00  0.00    +0.002 A 
ATOM     32  C   UNL     1       3.477   0.734  -0.027  0.00  0.00    +0.030 A 
ATOM     33  C   UNL     1       2.084   0.621  -0.015  0.00  0.00    +0.089 A 
ATOM     34  N   UNL     1       1.230  -0.434  -0.012  0.00  0.00    -0.232 NA
ENDBRANCH  24  25
ENDBRANCH  23  24
ENDBRANCH  21  23
ENDBRANCH  18  19
ENDBRANCH   9  18
TORSDOF 6
