REMARK  Name = ZINC40157254
REMARK  4 active torsions:
REMARK  status: ('A' for Active; 'I' for Inactive)
REMARK    1  A    between atoms: C_4  and  N_7
REMARK    2  A    between atoms: N_10  and  S_13
REMARK    3  A    between atoms: S_13  and  N_16
REMARK    4  A    between atoms: N_19  and  C_22
REMARK                            x       y       z     vdW  Elec       q    Type
REMARK                         _______ _______ _______ _____ _____    ______ ____
ROOT
ATOM      1  S   UNL     1       7.264  -2.588   1.109  0.00  0.00    +0.100 S 
ATOM      2  O   UNL     1       6.969  -3.905   0.665  0.00  0.00    -0.141 OA
ATOM      3  O   UNL     1       8.206  -1.754   0.447  0.00  0.00    -0.141 OA
ENDROOT
BRANCH   1   7
ATOM      4  N   UNL     1       3.637  -0.619  -0.040  0.00  0.00    -0.327 N 
ATOM      5  C   UNL     1       4.913   0.100  -0.157  0.00  0.00    +0.122 C 
ATOM      6  C   UNL     1       5.809  -0.296   1.023  0.00  0.00    +0.129 C 
ATOM      7  N   UNL     1       5.829  -1.762   1.126  0.00  0.00    -0.163 NA
ATOM      8  C   UNL     1       4.553  -2.481   1.243  0.00  0.00    +0.129 C 
ATOM      9  C   UNL     1       3.657  -2.085   0.069  0.00  0.00    +0.122 C 
BRANCH   4  13
ATOM     10  C   UNL     1       0.029   1.459   0.004  0.00  0.00    +0.000 A 
ATOM     11  C   UNL     1       0.028   0.076  -0.015  0.00  0.00    +0.002 A 
ATOM     12  C   UNL     1       1.223  -0.616  -0.030  0.00  0.00    +0.023 A 
ATOM     13  C   UNL     1       2.426   0.078  -0.025  0.00  0.00    +0.030 A 
ATOM     14  C   UNL     1       2.423   1.467  -0.007  0.00  0.00    +0.023 A 
ATOM     15  C   UNL     1       1.225   2.153   0.008  0.00  0.00    +0.002 A 
ENDBRANCH   4  13
ENDBRANCH   1   7
BRANCH   1  16
ATOM     16  N   UNL     1       7.771  -2.721   2.680  0.00  0.00    -0.163 NA
ATOM     17  C   UNL     1       8.623  -1.685   3.281  0.00  0.00    +0.129 C 
ATOM     18  C   UNL     1       7.945  -1.173   4.558  0.00  0.00    +0.122 C 
ATOM     19  N   UNL     1       7.551  -2.328   5.376  0.00  0.00    -0.327 N 
ATOM     20  C   UNL     1       6.699  -3.364   4.775  0.00  0.00    +0.122 C 
ATOM     21  C   UNL     1       7.372  -3.874   3.500  0.00  0.00    +0.129 C 
BRANCH  19  22
ATOM     22  C   UNL     1       7.978  -2.440   6.701  0.00  0.00    +0.030 A 
ATOM     23  C   UNL     1       8.676  -1.398   7.297  0.00  0.00    +0.023 A 
ATOM     24  C   UNL     1       9.097  -1.512   8.608  0.00  0.00    +0.002 A 
ATOM     25  C   UNL     1       8.825  -2.662   9.326  0.00  0.00    +0.000 A 
ATOM     26  C   UNL     1       8.131  -3.701   8.735  0.00  0.00    +0.002 A 
ATOM     27  C   UNL     1       7.702  -3.592   7.427  0.00  0.00    +0.023 A 
ENDBRANCH  19  22
ENDBRANCH   1  16
TORSDOF 4
