REMARK  Name = ZINC04311730
REMARK  3 active torsions:
REMARK  status: ('A' for Active; 'I' for Inactive)
REMARK    1  A    between atoms: C_1  and  C_2
REMARK    2  A    between atoms: C_14  and  C_24
REMARK    3  A    between atoms: C_22  and  O_23
REMARK                            x       y       z     vdW  Elec       q    Type
REMARK                         _______ _______ _______ _____ _____    ______ ____
ROOT
ATOM      1  C   UNL     1      -0.018   1.503   0.010  0.00  0.00    +0.035 C 
ATOM      2  C   UNL     1       0.002  -0.004   0.002  0.00  0.00    -0.029 C 
ATOM      3  C   UNL     1       0.588  -0.656   0.975  0.00  0.00    -0.052 C 
ATOM      4  C   UNL     1       0.609  -2.158   0.881  0.00  0.00    +0.115 C 
ATOM      5  N   UNL     1       0.699  -2.943   2.102  0.00  0.00    -0.294 NA
ATOM      6  C   UNL     1      -0.463  -3.696   2.643  0.00  0.00    +0.086 C 
ATOM      7  C   UNL     1      -1.081  -2.811   3.806  0.00  0.00    +0.034 C 
ATOM      8  C   UNL     1      -0.540  -1.499   3.237  0.00  0.00    +0.053 C 
ATOM      9  C   UNL     1       0.897  -1.940   3.172  0.00  0.00    +0.074 C 
ATOM     10  C   UNL     1       1.950  -0.910   2.872  0.00  0.00    +0.033 C 
ATOM     11  C   UNL     1       1.222   0.182   2.074  0.00  0.00    +0.052 C 
ATOM     12  C   UNL     1       0.182   0.833   2.987  0.00  0.00    +0.017 C 
ATOM     13  C   UNL     1      -0.693  -0.082   3.444  0.00  0.00    +0.027 C 
ATOM     14  N   UNL     1      -1.940   0.028   3.945  0.00  0.00    -0.314 N 
ATOM     15  C   UNL     1      -2.502  -0.433   2.716  0.00  0.00    +0.077 A 
ATOM     16  C   UNL     1      -1.638  -1.446   2.185  0.00  0.00    -0.009 A 
ATOM     17  C   UNL     1      -2.013  -2.101   1.055  0.00  0.00    +0.006 A 
ATOM     18  C   UNL     1      -3.156  -1.672   0.376  0.00  0.00    +0.004 A 
ATOM     19  C   UNL     1      -3.952  -0.658   0.860  0.00  0.00    +0.047 A 
ATOM     20  C   UNL     1      -3.646  -0.019   2.059  0.00  0.00    +0.138 A 
ATOM     21  H   UNL     1      -2.336   0.302   4.774  0.00  0.00    +0.152 HD
ENDROOT
BRANCH  20  22
ATOM     22  O   UNL     1      -4.438   0.969   2.559  0.00  0.00    -0.505 OA
ATOM     23  H   UNL     1      -4.196   1.856   2.260  0.00  0.00    +0.292 HD
ENDBRANCH  20  22
BRANCH  12  24
ATOM     24  C   UNL     1       0.158   2.205   3.301  0.00  0.00    +0.256 C 
ATOM     25  O   UNL     1       0.999   2.950   2.837  0.00  0.00    -0.296 OA
ENDBRANCH  12  24
TORSDOF 2
