REMARK  Name = ZINC67590319
REMARK  5 active torsions:
REMARK  status: ('A' for Active; 'I' for Inactive)
REMARK    1  A    between atoms: C_1  and  C_2
REMARK    2  A    between atoms: C_7  and  C_10
REMARK    3  A    between atoms: N_18  and  C_19
REMARK    4  A    between atoms: C_19  and  C_20
REMARK    5  A    between atoms: C_20  and  C_21
REMARK                            x       y       z     vdW  Elec       q    Type
REMARK                         _______ _______ _______ _____ _____    ______ ____
ROOT
ATOM      1  C   UNL     1      -0.018   1.526   0.007  0.00  0.00    +0.039 C 
ATOM      2  C   UNL     1       0.003  -0.004  -0.001  0.00  0.00    +0.133 C 
ATOM      3  C   UNL     1      -1.435  -0.536   0.014  0.00  0.00    +0.140 C 
ATOM      4  N   UNL     1      -1.388  -1.995   0.195  0.00  0.00    -0.280 N 
ATOM      5  C   UNL     1      -0.575  -2.530   1.299  0.00  0.00    +0.145 C 
ATOM      6  C   UNL     1       0.821  -1.901   1.221  0.00  0.00    +0.166 C 
ATOM      7  O   UNL     1       0.694  -0.479   1.157  0.00  0.00    -0.366 OA
ATOM      8  C   UNL     1      -2.069  -2.818  -0.627  0.00  0.00    +0.302 C 
ATOM      9  O   UNL     1      -2.807  -2.356  -1.476  0.00  0.00    -0.253 OA
ATOM     10  N   UNL     1      -1.933  -4.154  -0.507  0.00  0.00    -0.299 N 
ATOM     11  H   UNL     1      -1.404  -4.525   0.216  0.00  0.00    +0.150 HD
ENDROOT
BRANCH   6  12
ATOM     12  C   UNL     1       1.613  -2.282   2.445  0.00  0.00    -0.017 A 
ATOM     13  C   UNL     1       1.411  -1.612   3.636  0.00  0.00    +0.006 A 
ATOM     14  C   UNL     1       2.138  -1.961   4.758  0.00  0.00    +0.000 A 
ATOM     15  C   UNL     1       3.068  -2.982   4.689  0.00  0.00    +0.000 A 
ATOM     16  C   UNL     1       3.270  -3.653   3.498  0.00  0.00    +0.000 A 
ATOM     17  C   UNL     1       2.540  -3.306   2.377  0.00  0.00    +0.006 A 
ENDBRANCH   6  12
BRANCH  10  18
ATOM     18  C   UNL     1      -2.585  -5.045  -1.469  0.00  0.00    +0.113 C 
BRANCH  18  19
ATOM     19  C   UNL     1      -2.274  -6.500  -1.109  0.00  0.00    +0.095 C 
BRANCH  19  20
ATOM     20  C   UNL     1      -2.944  -7.417  -2.099  0.00  0.00    +0.139 A 
ATOM     21  N   UNL     1      -4.149  -7.916  -1.998  0.00  0.00    -0.134 NA
ATOM     22  N   UNL     1      -4.412  -8.659  -3.015  0.00  0.00    -0.129 NA
ATOM     23  C   UNL     1      -3.370  -8.673  -3.832  0.00  0.00    +0.161 A 
ATOM     24  N   UNL     1      -2.409  -7.873  -3.264  0.00  0.00    -0.286 N 
ATOM     25  C   UNL     1      -1.210  -7.686  -3.886  0.00  0.00    +0.094 A 
ATOM     26  C   UNL     1      -0.951  -8.283  -5.069  0.00  0.00    +0.018 A 
ATOM     27  C   UNL     1      -1.916  -9.105  -5.676  0.00  0.00    +0.005 A 
ATOM     28  C   UNL     1      -3.113  -9.306  -5.063  0.00  0.00    +0.048 A 
ENDBRANCH  19  20
ENDBRANCH  18  19
ENDBRANCH  10  18
TORSDOF 4
