REMARK  Name = ZINC18541751
REMARK  8 active torsions:
REMARK  status: ('A' for Active; 'I' for Inactive)
REMARK    1  A    between atoms: C_1  and  C_2
REMARK    2  A    between atoms: C_5  and  C_32
REMARK    3  A    between atoms: C_6  and  N_8
REMARK    4  A    between atoms: C_9  and  C_11
REMARK    5  A    between atoms: C_11  and  C_13
REMARK    6  A    between atoms: C_11  and  S_14
REMARK    7  A    between atoms: S_14  and  C_15
REMARK    8  A    between atoms: N_19  and  C_20
REMARK                            x       y       z     vdW  Elec       q    Type
REMARK                         _______ _______ _______ _____ _____    ______ ____
ROOT
ATOM      1  C   UNL     1       1.118   0.121  -7.541  0.00  0.00    +0.198 A 
ATOM      2  N   UNL     1       0.779   1.387  -7.572  0.00  0.00    -0.120 NA
ATOM      3  N   UNL     1       0.928   1.843  -8.888  0.00  0.00    -0.112 NA
ATOM      4  C   UNL     1       1.353   0.843  -9.620  0.00  0.00    +0.225 A 
ATOM      5  N   UNL     1       1.487  -0.249  -8.806  0.00  0.00    -0.259 N 
ATOM      6  N   UNL     1       1.624   0.885 -10.982  0.00  0.00    -0.299 N 
ATOM      7  C   UNL     1       2.797   1.723 -11.259  0.00  0.00    +0.108 C 
ATOM      8  C   UNL     1       3.153   1.629 -12.745  0.00  0.00    +0.019 C 
ATOM      9  C   UNL     1       1.959   2.098 -13.581  0.00  0.00    +0.003 C 
ATOM     10  C   UNL     1       0.738   1.241 -13.237  0.00  0.00    +0.019 C 
ATOM     11  C   UNL     1       0.452   1.345 -11.738  0.00  0.00    +0.108 C 
ENDROOT
BRANCH   5  12
ATOM     12  C   UNL     1       1.923  -1.523  -9.200  0.00  0.00    +0.052 A 
ATOM     13  C   UNL     1       3.228  -1.707  -9.635  0.00  0.00    +0.026 A 
ATOM     14  C   UNL     1       3.657  -2.964 -10.017  0.00  0.00    +0.002 A 
ATOM     15  C   UNL     1       2.783  -4.035  -9.977  0.00  0.00    +0.000 A 
ATOM     16  C   UNL     1       1.481  -3.853  -9.549  0.00  0.00    +0.002 A 
ATOM     17  C   UNL     1       1.049  -2.600  -9.161  0.00  0.00    +0.026 A 
ENDBRANCH   5  12
BRANCH   1  18
ATOM     18  S   UNL     1       1.107  -0.920  -6.119  0.00  0.00    -0.073 S 
BRANCH  18  19
ATOM     19  C   UNL     1       0.534   0.166  -4.784  0.00  0.00    +0.137 C 
ATOM     20  C   UNL     1      -0.908   0.596  -5.061  0.00  0.00    +0.029 C 
BRANCH  19  22
ATOM     21  N   UNL     1       0.612   0.112  -2.312  0.00  0.00    -0.284 N 
ATOM     22  C   UNL     1       0.595  -0.574  -3.473  0.00  0.00    +0.230 C 
ATOM     23  O   UNL     1       0.628  -1.786  -3.462  0.00  0.00    -0.274 OA
ATOM     24  H   UNL     1       0.508   1.076  -2.317  0.00  0.00    +0.155 HD
BRANCH  21  30
ATOM     25  C   UNL     1       2.071  -3.904   0.119  0.00  0.00    +0.044 C 
ATOM     26  C   UNL     1       1.486  -2.516   0.107  0.00  0.00    -0.049 A 
ATOM     27  C   UNL     1       1.110  -1.914   1.294  0.00  0.00    +0.004 A 
ATOM     28  C   UNL     1       0.572  -0.640   1.287  0.00  0.00    +0.005 A 
ATOM     29  C   UNL     1       0.409   0.035   0.093  0.00  0.00    -0.029 A 
ATOM     30  C   UNL     1       0.781  -0.568  -1.101  0.00  0.00    +0.037 A 
ATOM     31  C   UNL     1       1.327  -1.845  -1.090  0.00  0.00    +0.027 A 
ATOM     32  C   UNL     1      -0.178   1.423   0.086  0.00  0.00    +0.045 C 
ENDBRANCH  21  30
ENDBRANCH  19  22
ENDBRANCH  18  19
ENDBRANCH   1  18
TORSDOF 5
