REMARK  Name = ZINC67225574
REMARK  5 active torsions:
REMARK  status: ('A' for Active; 'I' for Inactive)
REMARK    1  A    between atoms: C_6  and  N_7
REMARK    2  A    between atoms: C_8  and  S_12
REMARK    3  A    between atoms: S_12  and  C_13
REMARK    4  A    between atoms: C_13  and  C_14
REMARK    5  A    between atoms: C_14  and  C_16
REMARK                            x       y       z     vdW  Elec       q    Type
REMARK                         _______ _______ _______ _____ _____    ______ ____
ROOT
ATOM      1  C   UNL     1      -1.307  -4.286  -2.104  0.00  0.00    +0.157 C 
ENDROOT
BRANCH   1   2
ATOM      2  C   UNL     1      -0.453  -5.183  -2.962  0.00  0.00    +0.175 C 
ATOM      3  O   UNL     1       0.696  -4.879  -3.201  0.00  0.00    -0.291 OA
BRANCH   2   4
ATOM      4  C   UNL     1      -1.013  -6.429  -3.508  0.00  0.00    +0.042 A 
ATOM      5  C   UNL     1      -2.342  -6.782  -3.239  0.00  0.00    +0.052 A 
ATOM      6  C   UNL     1      -2.854  -7.955  -3.759  0.00  0.00    +0.022 A 
ATOM      7  C   UNL     1      -2.068  -8.779  -4.539  0.00  0.00    +0.025 A 
ATOM      8  C   UNL     1      -0.743  -8.441  -4.815  0.00  0.00    +0.038 A 
ATOM      9  C   UNL     1      -0.228  -7.263  -4.301  0.00  0.00    -0.006 A 
ATOM     10  C   UNL     1       1.204  -7.178  -4.777  0.00  0.00    +0.133 C 
ATOM     11  C   UNL     1       1.391  -8.432  -5.604  0.00  0.00    +0.222 C 
ATOM     12  O   UNL     1       2.402  -8.771  -6.182  0.00  0.00    -0.275 OA
ATOM     13  N   UNL     1       0.229  -9.107  -5.566  0.00  0.00    -0.285 N 
ATOM     14 CL   UNL     1      -3.339  -5.753  -2.258  0.00  0.00    -0.083 Cl
ATOM     15  H   UNL     1       0.079  -9.951  -6.018  0.00  0.00    +0.155 HD
ENDBRANCH   2   4
ENDBRANCH   1   2
BRANCH   1  16
ATOM     16  S   UNL     1      -0.339  -2.841  -1.588  0.00  0.00    -0.076 S 
BRANCH  16  18
ATOM     17  N   UNL     1      -1.202  -0.723   0.010  0.00  0.00    -0.187 N 
ATOM     18  C   UNL     1      -1.462  -1.903  -0.607  0.00  0.00    +0.214 A 
ATOM     19  N   UNL     1      -2.711  -2.213  -0.336  0.00  0.00    -0.101 NA
ATOM     20  N   UNL     1      -3.248  -1.313   0.406  0.00  0.00    -0.022 NA
ATOM     21  N   UNL     1      -2.398  -0.379   0.665  0.00  0.00    -0.038 NA
BRANCH  17  27
ATOM     22  C   UNL     1      -0.017   1.384   0.010  0.00  0.00    +0.029 A 
ATOM     23  C   UNL     1       1.171   2.090   0.002  0.00  0.00    +0.017 A 
ATOM     24  C   UNL     1       2.378   1.414  -0.013  0.00  0.00    +0.018 A 
ATOM     25  C   UNL     1       2.399   0.031  -0.021  0.00  0.00    +0.017 A 
ATOM     26  C   UNL     1       1.215  -0.679  -0.013  0.00  0.00    +0.029 A 
ATOM     27  C   UNL     1       0.002  -0.004   0.002  0.00  0.00    +0.070 A 
ATOM     28 BR   UNL     1       4.002   2.384  -0.024  0.00  0.00    -0.050 Br
ENDBRANCH  17  27
ENDBRANCH  16  18
ENDBRANCH   1  16
TORSDOF 5
