REMARK  Name = ZINC21650528
REMARK  9 active torsions:
REMARK  status: ('A' for Active; 'I' for Inactive)
REMARK    1  A    between atoms: C_1  and  C_2
REMARK    2  A    between atoms: C_5  and  C_16
REMARK    3  A    between atoms: N_8  and  C_10
REMARK    4  A    between atoms: N_18  and  C_19
REMARK    5  A    between atoms: C_19  and  C_20
REMARK    6  A    between atoms: C_20  and  N_21
REMARK    7  A    between atoms: N_21  and  C_22
REMARK    8  A    between atoms: N_21  and  C_28
REMARK    9  A    between atoms: C_22  and  C_23
REMARK                            x       y       z     vdW  Elec       q    Type
REMARK                         _______ _______ _______ _____ _____    ______ ____
ROOT
ATOM      1  C   UNL     1       0.064   1.724   3.494  0.00  0.00    +0.251 C 
ATOM      2  O   UNL     1      -0.933   2.394   3.689  0.00  0.00    -0.270 OA
ATOM      3  N   UNL     1       0.365   1.309   2.248  0.00  0.00    -0.313 N 
ATOM      4  H   UNL     1       1.266   0.704   2.071  0.00  0.00    +0.149 HD
ENDROOT
BRANCH   1   9
ATOM      5  C   UNL     1       1.190   2.044   9.277  0.00  0.00    +0.068 C 
ATOM      6  C   UNL     1       2.038   1.323   8.262  0.00  0.00    +0.069 A 
ATOM      7  C   UNL     1       1.766   1.244   6.857  0.00  0.00    +0.031 A 
ATOM      8  C   UNL     1       0.807   1.689   5.934  0.00  0.00    +0.032 A 
ATOM      9  C   UNL     1       0.939   1.369   4.616  0.00  0.00    +0.076 A 
ATOM     10  S   UNL     1       2.439   0.401   4.597  0.00  0.00    -0.064 S 
ATOM     11  C   UNL     1       2.818   0.480   6.328  0.00  0.00    +0.113 A 
ATOM     12  N   UNL     1       3.647   0.134   7.334  0.00  0.00    -0.225 N 
ATOM     13  N   UNL     1       3.133   0.673   8.521  0.00  0.00    -0.170 NA
BRANCH  12  14
ATOM     14  C   UNL     1       4.814  -0.631   7.214  0.00  0.00    +0.067 A 
ATOM     15  C   UNL     1       4.875  -1.667   6.292  0.00  0.00    +0.028 A 
ATOM     16  C   UNL     1       6.030  -2.416   6.172  0.00  0.00    +0.002 A 
ATOM     17  C   UNL     1       7.120  -2.142   6.977  0.00  0.00    +0.000 A 
ATOM     18  C   UNL     1       7.061  -1.113   7.900  0.00  0.00    +0.002 A 
ATOM     19  C   UNL     1       5.911  -0.357   8.021  0.00  0.00    +0.028 A 
ENDBRANCH  12  14
ENDBRANCH   1   9
BRANCH   3  20
ATOM     20  C   UNL     1      -0.509   1.665   1.127  0.00  0.00    +0.086 C 
BRANCH  20  21
ATOM     21  C   UNL     1       0.054   1.074  -0.167  0.00  0.00    -0.059 C 
BRANCH  21  22
ATOM     22  N   UNL     1      -0.891   1.311  -1.266  0.00  0.00    +0.387 N 
ATOM     23  H   UNL     1      -1.866   0.899  -0.968  0.00  0.00    -0.081 HD
BRANCH  22  24
ATOM     24  C   UNL     1      -1.064   2.749  -1.511  0.00  0.00    -0.068 C 
ATOM     25  C   UNL     1       0.147   3.529  -0.959  0.00  0.00    -0.015 C 
ATOM     26  C   UNL     1      -0.467   4.833  -0.393  0.00  0.00    -0.002 C 
ATOM     27  C   UNL     1      -1.799   4.343   0.228  0.00  0.00    -0.002 C 
ATOM     28  C   UNL     1      -2.301   3.267  -0.757  0.00  0.00    -0.015 C 
ENDBRANCH  22  24
BRANCH  22  29
ATOM     29  C   UNL     1      -0.462   0.617  -2.488  0.00  0.00    -0.003 C 
BRANCH  29  30
ATOM     30  C   UNL     1      -1.618   0.535  -3.451  0.00  0.00    +0.089 A 
ATOM     31  C   UNL     1      -1.865   1.392  -4.458  0.00  0.00    +0.042 A 
ATOM     32  C   UNL     1      -3.040   0.940  -5.102  0.00  0.00    +0.041 A 
ATOM     33  C   UNL     1      -3.445  -0.162  -4.445  0.00  0.00    +0.195 A 
ATOM     34  O   UNL     1      -2.580  -0.402  -3.446  0.00  0.00    -0.470 OA
ENDBRANCH  29  30
ENDBRANCH  22  29
ENDBRANCH  21  22
ENDBRANCH  20  21
ENDBRANCH   3  20
TORSDOF 8
