REMARK  Name = ZINC14161362
REMARK  7 active torsions:
REMARK  status: ('A' for Active; 'I' for Inactive)
REMARK    1  A    between atoms: C_1  and  C_2
REMARK    2  A    between atoms: C_4  and  C_34
REMARK    3  A    between atoms: N_10  and  C_11
REMARK    4  A    between atoms: C_11  and  N_13
REMARK    5  A    between atoms: N_13  and  C_14
REMARK    6  A    between atoms: C_14  and  C_15
REMARK    7  A    between atoms: N_24  and  C_27
REMARK                            x       y       z     vdW  Elec       q    Type
REMARK                         _______ _______ _______ _____ _____    ______ ____
ROOT
ATOM      1  C   UNL     1       3.079   1.642   1.566  0.00  0.00    +0.066 C 
ATOM      2  C   UNL     1       2.786   0.224   1.149  0.00  0.00    +0.044 A 
ATOM      3  C   UNL     1       3.372  -0.308   0.011  0.00  0.00    +0.046 A 
ATOM      4  C   UNL     1       3.075  -1.617  -0.337  0.00  0.00    +0.044 A 
ATOM      5  N   UNL     1       2.247  -2.314   0.423  0.00  0.00    -0.219 NA
ATOM      6  C   UNL     1       1.704  -1.776   1.504  0.00  0.00    +0.222 A 
ATOM      7  N   UNL     1       1.970  -0.530   1.867  0.00  0.00    -0.219 NA
ATOM      8  N   UNL     1       0.838  -2.537   2.278  0.00  0.00    -0.258 N 
ATOM      9  C   UNL     1       0.174  -1.962   3.328  0.00  0.00    +0.180 C 
ATOM     10  N   UNL     1      -0.227  -2.707   4.344  0.00  0.00    -0.164 NA
ATOM     11  N   UNL     1      -0.074  -0.620   3.327  0.00  0.00    -0.302 N 
ATOM     12  C   UNL     1      -0.429   0.074   2.081  0.00  0.00    +0.126 C 
ATOM     13  C   UNL     1      -1.760   0.807   2.291  0.00  0.00    +0.124 C 
ATOM     14  N   UNL     1      -1.676   1.585   3.535  0.00  0.00    -0.327 N 
ATOM     15  C   UNL     1      -1.321   0.891   4.781  0.00  0.00    +0.124 C 
ATOM     16  C   UNL     1       0.004   0.157   4.572  0.00  0.00    +0.126 C 
ATOM     17  C   UNL     1       3.688  -2.237  -1.566  0.00  0.00    +0.066 C 
ATOM     18  H   UNL     1       0.703  -3.475   2.074  0.00  0.00    +0.157 HD
ENDROOT
BRANCH  14  19
ATOM     19  C   UNL     1      -1.930   2.959   3.534  0.00  0.00    +0.030 A 
ATOM     20  C   UNL     1      -2.384   3.581   2.378  0.00  0.00    +0.024 A 
ATOM     21  C   UNL     1      -2.635   4.940   2.380  0.00  0.00    +0.022 A 
ATOM     22  C   UNL     1      -2.433   5.680   3.531  0.00  0.00    +0.041 A 
ATOM     23  C   UNL     1      -1.980   5.063   4.684  0.00  0.00    +0.022 A 
ATOM     24  C   UNL     1      -1.734   3.704   4.690  0.00  0.00    +0.024 A 
ATOM     25 CL   UNL     1      -2.748   7.388   3.529  0.00  0.00    -0.084 Cl
ENDBRANCH  14  19
BRANCH  10  26
ATOM     26  C   UNL     1      -0.064  -4.037   4.305  0.00  0.00    +0.157 C 
ATOM     27  S   UNL     1       1.512  -4.706   4.286  0.00  0.00    -0.017 S 
BRANCH  26  28
ATOM     28  N   UNL     1      -1.140  -4.848   4.281  0.00  0.00    -0.322 N 
ATOM     29  H   UNL     1      -2.033  -4.469   4.292  0.00  0.00    +0.148 HD
BRANCH  28  30
ATOM     30  C   UNL     1      -0.961  -6.301   4.239  0.00  0.00    +0.134 C 
BRANCH  30  31
ATOM     31  C   UNL     1      -2.331  -6.983   4.219  0.00  0.00    +0.135 C 
ATOM     32  C   UNL     1      -2.165  -8.523   4.209  0.00  0.00    +0.035 C 
ATOM     33  C   UNL     1      -3.518  -8.970   4.826  0.00  0.00    +0.031 C 
ATOM     34  C   UNL     1      -3.808  -7.837   5.834  0.00  0.00    +0.160 C 
ATOM     35  O   UNL     1      -3.052  -6.689   5.426  0.00  0.00    -0.375 OA
ENDBRANCH  30  31
ENDBRANCH  28  30
ENDBRANCH  26  28
ENDBRANCH  10  26
TORSDOF 5
