REMARK  Name = ZINC12635731
REMARK  17 active torsions:
REMARK  status: ('A' for Active; 'I' for Inactive)
REMARK    1  A    between atoms: C_1  and  C_2
REMARK    2  A    between atoms: C_2  and  N_78
REMARK    3  A    between atoms: C_6  and  C_8
REMARK    4  A    between atoms: C_8  and  N_9
REMARK    5  A    between atoms: N_9  and  C_10
REMARK    6  A    between atoms: N_9  and  C_25
REMARK    7  A    between atoms: C_10  and  C_11
REMARK    8  A    between atoms: C_16  and  C_24
REMARK    9  A    between atoms: C_17  and  C_23
REMARK   10  A    between atoms: C_25  and  N_27
REMARK   11  A    between atoms: N_27  and  C_28
REMARK   12  A    between atoms: C_28  and  C_29
REMARK   13  A    between atoms: C_29  and  C_30
REMARK   14  A    between atoms: C_33  and  O_38
REMARK   15  A    between atoms: C_34  and  O_36
REMARK   16  A    between atoms: O_36  and  C_37
REMARK   17  A    between atoms: O_38  and  C_39
REMARK                            x       y       z     vdW  Elec       q    Type
REMARK                         _______ _______ _______ _____ _____    ______ ____
ROOT
ATOM      1  N   UNL     1      -2.206  -3.298  -1.614  0.00  0.00    -0.310 N 
ENDROOT
BRANCH   1   2
ATOM      2  C   UNL     1      -2.992  -2.535  -2.399  0.00  0.00    +0.133 C 
ATOM      3  S   UNL     1      -3.417  -0.952  -1.904  0.00  0.00    -0.019 S 
BRANCH   2   4
ATOM      4  N   UNL     1      -3.443  -3.018  -3.573  0.00  0.00    -0.326 N 
ATOM      5  H   UNL     1      -3.203  -3.914  -3.853  0.00  0.00    +0.148 HD
BRANCH   4   6
ATOM      6  C   UNL     1      -4.298  -2.188  -4.426  0.00  0.00    +0.108 C 
BRANCH   6   7
ATOM      7  C   UNL     1      -4.668  -2.968  -5.690  0.00  0.00    +0.054 C 
BRANCH   7   8
ATOM      8  C   UNL     1      -5.547  -2.114  -6.567  0.00  0.00    -0.042 A 
ATOM      9  C   UNL     1      -6.921  -2.161  -6.421  0.00  0.00    +0.007 A 
ATOM     10  C   UNL     1      -7.731  -1.376  -7.220  0.00  0.00    +0.049 A 
ATOM     11  C   UNL     1      -7.168  -0.548  -8.177  0.00  0.00    +0.161 A 
ATOM     12  C   UNL     1      -5.785  -0.505  -8.328  0.00  0.00    +0.162 A 
ATOM     13  C   UNL     1      -4.978  -1.290  -7.520  0.00  0.00    +0.053 A 
BRANCH  12  14
ATOM     14  O   UNL     1      -5.227   0.305  -9.267  0.00  0.00    -0.491 OA
ATOM     15  C   UNL     1      -3.801   0.298  -9.366  0.00  0.00    +0.277 C 
ENDBRANCH  12  14
BRANCH  11  16
ATOM     16  O   UNL     1      -7.964   0.220  -8.968  0.00  0.00    -0.491 OA
ATOM     17  C   UNL     1      -9.374   0.125  -8.757  0.00  0.00    +0.277 C 
ENDBRANCH  11  16
ENDBRANCH   7   8
ENDBRANCH   6   7
ENDBRANCH   4   6
ENDBRANCH   2   4
ENDBRANCH   1   2
BRANCH   1  18
ATOM     18  C   UNL     1      -1.842  -4.652  -2.037  0.00  0.00    +0.092 C 
BRANCH  18  22
ATOM     19  C   UNL     1      -3.423  -7.877  -1.171  0.00  0.00    -0.078 C 
ATOM     20  C   UNL     1      -3.374  -7.186   0.209  0.00  0.00    -0.020 C 
ATOM     21  C   UNL     1      -3.062  -5.706  -0.095  0.00  0.00    -0.016 C 
ATOM     22  C   UNL     1      -2.949  -5.628  -1.633  0.00  0.00    -0.051 C 
ATOM     23  N   UNL     1      -2.620  -7.003  -2.024  0.00  0.00    +0.382 N 
ATOM     24  H   UNL     1      -1.621  -7.183  -1.868  0.00  0.00    -0.081 HD
BRANCH  23  26
ATOM     25  C   UNL     1      -2.239  -8.490  -3.973  0.00  0.00    -0.017 C 
ATOM     26  C   UNL     1      -2.940  -7.226  -3.470  0.00  0.00    -0.082 C 
ENDBRANCH  23  26
ENDBRANCH  18  22
ENDBRANCH   1  18
BRANCH   1  27
ATOM     27  C   UNL     1      -1.715  -2.773  -0.337  0.00  0.00    +0.147 C 
BRANCH  27  28
ATOM     28  C   UNL     1      -0.395  -2.079  -0.554  0.00  0.00    +0.035 A 
ATOM     29  C   UNL     1      -0.360  -0.738  -0.749  0.00  0.00    +0.020 A 
ATOM     30  C   UNL     1       0.938  -0.094  -0.957  0.00  0.00    -0.001 A 
ATOM     31  C   UNL     1       1.037   1.286  -1.163  0.00  0.00    +0.010 A 
ATOM     32  C   UNL     1       2.264   1.856  -1.353  0.00  0.00    +0.004 A 
ATOM     33  C   UNL     1       3.413   1.078  -1.344  0.00  0.00    -0.046 A 
ATOM     34  C   UNL     1       3.340  -0.283  -1.142  0.00  0.00    -0.024 A 
ATOM     35  C   UNL     1       2.102  -0.886  -0.946  0.00  0.00    +0.052 A 
ATOM     36  N   UNL     1       1.999  -2.246  -0.742  0.00  0.00    -0.322 N 
ATOM     37  H   UNL     1       2.801  -2.790  -0.736  0.00  0.00    +0.169 HD
ATOM     38  C   UNL     1       0.802  -2.828  -0.553  0.00  0.00    +0.254 A 
ATOM     39  O   UNL     1       0.748  -4.033  -0.375  0.00  0.00    -0.268 OA
ATOM     40  C   UNL     1       4.596  -1.116  -1.134  0.00  0.00    +0.046 C 
ATOM     41  C   UNL     1       4.756   1.729  -1.556  0.00  0.00    +0.044 C 
ENDBRANCH  27  28
ENDBRANCH   1  27
TORSDOF 12
