REMARK  Name = ZINC18595440
REMARK  9 active torsions:
REMARK  status: ('A' for Active; 'I' for Inactive)
REMARK    1  A    between atoms: C_1  and  C_2
REMARK    2  A    between atoms: C_5  and  N_8
REMARK    3  A    between atoms: C_12  and  S_13
REMARK    4  A    between atoms: S_13  and  C_14
REMARK    5  A    between atoms: C_14  and  C_16
REMARK    6  A    between atoms: C_14  and  C_17
REMARK    7  A    between atoms: N_22  and  C_23
REMARK    8  A    between atoms: C_23  and  C_24
REMARK    9  A    between atoms: C_23  and  C_25
REMARK                            x       y       z     vdW  Elec       q    Type
REMARK                         _______ _______ _______ _____ _____    ______ ____
ROOT
ATOM      1  N   UNL     1      -6.476   1.193   1.118  0.00  0.00    -0.259 N 
ATOM      2  C   UNL     1      -7.252   0.066   1.083  0.00  0.00    +0.225 A 
ATOM      3  N   UNL     1      -6.518  -0.916   0.621  0.00  0.00    -0.112 NA
ATOM      4  N   UNL     1      -5.240  -0.412   0.345  0.00  0.00    -0.120 NA
ATOM      5  C   UNL     1      -5.233   0.864   0.648  0.00  0.00    +0.198 A 
ATOM      6  N   UNL     1      -8.582  -0.023   1.474  0.00  0.00    -0.299 N 
ATOM      7  C   UNL     1      -8.746  -0.990   2.567  0.00  0.00    +0.108 C 
ATOM      8  C   UNL     1     -10.191  -0.955   3.068  0.00  0.00    +0.019 C 
ATOM      9  C   UNL     1     -11.135  -1.298   1.912  0.00  0.00    +0.003 C 
ATOM     10  C   UNL     1     -10.911  -0.305   0.768  0.00  0.00    +0.019 C 
ATOM     11  C   UNL     1      -9.444  -0.359   0.334  0.00  0.00    +0.108 C 
ENDROOT
BRANCH   1  16
ATOM     12  C   UNL     1      -8.129   6.327   2.886  0.00  0.00    +0.044 C 
ATOM     13  C   UNL     1      -7.690   4.964   2.417  0.00  0.00    -0.050 A 
ATOM     14  C   UNL     1      -7.378   4.760   1.085  0.00  0.00    +0.005 A 
ATOM     15  C   UNL     1      -6.975   3.512   0.652  0.00  0.00    +0.026 A 
ATOM     16  C   UNL     1      -6.884   2.462   1.555  0.00  0.00    +0.052 A 
ATOM     17  C   UNL     1      -7.203   2.668   2.890  0.00  0.00    +0.026 A 
ATOM     18  C   UNL     1      -7.601   3.920   3.318  0.00  0.00    +0.005 A 
ENDBRANCH   1  16
BRANCH   5  19
ATOM     19  S   UNL     1      -3.863   1.960   0.486  0.00  0.00    -0.073 S 
BRANCH  19  20
ATOM     20  C   UNL     1      -2.539   0.912  -0.175  0.00  0.00    +0.137 C 
ATOM     21  C   UNL     1      -2.921   0.430  -1.576  0.00  0.00    +0.029 C 
BRANCH  20  22
ATOM     22  C   UNL     1      -1.259   1.705  -0.248  0.00  0.00    +0.233 C 
ATOM     23  O   UNL     1      -1.297   2.917  -0.246  0.00  0.00    -0.274 OA
ATOM     24  N   UNL     1      -0.074   1.068  -0.316  0.00  0.00    -0.239 N 
ATOM     25  C   UNL     1       1.070   1.777  -0.387  0.00  0.00    +0.306 C 
ATOM     26  O   UNL     1       1.032   2.992  -0.385  0.00  0.00    -0.252 OA
ATOM     27  N   UNL     1       2.255   1.140  -0.460  0.00  0.00    -0.297 N 
ATOM     28  H   UNL     1      -0.044   0.098  -0.317  0.00  0.00    +0.159 HD
ATOM     29  H   UNL     1       2.285   0.170  -0.461  0.00  0.00    +0.151 HD
BRANCH  27  30
ATOM     30  C   UNL     1       3.498   1.911  -0.537  0.00  0.00    +0.068 C 
ATOM     31  C   UNL     1       4.655   1.068   0.002  0.00  0.00    +0.027 C 
ATOM     32  C   UNL     1       3.776   2.286  -1.994  0.00  0.00    +0.027 C 
ENDBRANCH  27  30
ENDBRANCH  20  22
ENDBRANCH  19  20
ENDBRANCH   5  19
TORSDOF 5
