REMARK  Name = ZINC40812797
REMARK  9 active torsions:
REMARK  status: ('A' for Active; 'I' for Inactive)
REMARK    1  A    between atoms: C_1  and  C_2
REMARK    2  A    between atoms: C_6  and  C_7
REMARK    3  A    between atoms: N_9  and  C_10
REMARK    4  A    between atoms: C_10  and  C_12
REMARK    5  A    between atoms: C_10  and  C_13
REMARK    6  A    between atoms: C_13  and  O_14
REMARK    7  A    between atoms: O_14  and  C_15
REMARK    8  A    between atoms: N_20  and  N_21
REMARK    9  A    between atoms: C_22  and  C_24
REMARK                            x       y       z     vdW  Elec       q    Type
REMARK                         _______ _______ _______ _____ _____    ______ ____
ROOT
ATOM      1  C   UNL     1      -0.018   1.503   0.010  0.00  0.00    +0.048 C 
ATOM      2  C   UNL     1       0.002  -0.004   0.002  0.00  0.00    +0.009 A 
ATOM      3  C   UNL     1       0.009  -0.838  -1.123  0.00  0.00    +0.042 A 
ATOM      4  C   UNL     1       0.027  -2.138  -0.672  0.00  0.00    +0.115 A 
ATOM      5  O   UNL     1       0.035  -2.112   0.658  0.00  0.00    -0.454 OA
ATOM      6  C   UNL     1       0.024  -0.830   1.091  0.00  0.00    +0.193 A 
ATOM      7  C   UNL     1       0.034  -3.327  -1.599  0.00  0.00    +0.075 C 
ATOM      8  C   UNL     1      -0.491  -2.903  -2.974  0.00  0.00    +0.014 C 
ATOM      9  C   UNL     1       0.279  -1.685  -3.495  0.00  0.00    +0.058 C 
ATOM     10  C   UNL     1       0.000  -0.512  -2.566  0.00  0.00    +0.070 C 
ATOM     11  N   UNL     1      -0.228   0.686  -3.008  0.00  0.00    -0.184 NA
ENDROOT
BRANCH   6  12
ATOM     12  C   UNL     1       0.031  -0.399   2.493  0.00  0.00    +0.280 C 
ATOM     13  O   UNL     1       0.017   0.786   2.766  0.00  0.00    -0.267 OA
ATOM     14  N   UNL     1       0.054  -1.317   3.480  0.00  0.00    -0.304 N 
ATOM     15  H   UNL     1       0.065  -2.263   3.263  0.00  0.00    +0.149 HD
BRANCH  14  16
ATOM     16  C   UNL     1       0.061  -0.887   4.881  0.00  0.00    +0.096 C 
ATOM     17  C   UNL     1      -1.375  -0.637   5.345  0.00  0.00    +0.030 C 
BRANCH  16  18
ATOM     18  C   UNL     1       0.694  -1.978   5.746  0.00  0.00    +0.181 C 
BRANCH  18  19
ATOM     19  O   UNL     1      -0.126  -3.148   5.714  0.00  0.00    -0.381 OA
ATOM     20  C   UNL     1       0.378  -4.233   6.495  0.00  0.00    +0.194 C 
ENDBRANCH  18  19
ENDBRANCH  16  18
ENDBRANCH  14  16
ENDBRANCH   6  12
BRANCH  11  21
ATOM     21  N   UNL     1      -0.224   0.938  -4.386  0.00  0.00    -0.203 N 
ATOM     22  C   UNL     1      -0.461   2.182  -4.845  0.00  0.00    +0.264 C 
ATOM     23  O   UNL     1      -0.679   3.087  -4.062  0.00  0.00    -0.268 OA
ATOM     24  H   UNL     1      -0.050   0.216  -5.010  0.00  0.00    +0.178 HD
BRANCH  22  25
ATOM     25  C   UNL     1      -0.457   2.447  -6.298  0.00  0.00    +0.052 A 
ATOM     26  C   UNL     1      -0.212   1.410  -7.200  0.00  0.00    +0.014 A 
ATOM     27  C   UNL     1      -0.209   1.664  -8.555  0.00  0.00    +0.001 A 
ATOM     28  C   UNL     1      -0.447   2.945  -9.023  0.00  0.00    +0.001 A 
ATOM     29  C   UNL     1      -0.690   3.978  -8.137  0.00  0.00    +0.016 A 
ATOM     30  C   UNL     1      -0.702   3.736  -6.777  0.00  0.00    +0.030 A 
ATOM     31 BR   UNL     1      -1.042   5.149  -5.566  0.00  0.00    -0.050 Br
ENDBRANCH  22  25
ENDBRANCH  11  21
TORSDOF 6
