REMARK  Name = ZINC63426834
REMARK  9 active torsions:
REMARK  status: ('A' for Active; 'I' for Inactive)
REMARK    1  A    between atoms: C_1  and  C_2
REMARK    2  A    between atoms: C_6  and  N_8
REMARK    3  A    between atoms: C_12  and  N_13
REMARK    4  A    between atoms: N_13  and  C_14
REMARK    5  A    between atoms: C_14  and  C_16
REMARK    6  A    between atoms: C_14  and  C_26
REMARK    7  A    between atoms: C_16  and  C_17
REMARK    8  A    between atoms: C_26  and  O_28
REMARK    9  A    between atoms: O_28  and  C_29
REMARK                            x       y       z     vdW  Elec       q    Type
REMARK                         _______ _______ _______ _____ _____    ______ ____
ROOT
ATOM      1  N   UNL     1       0.072  -2.797   2.399  0.00  0.00    -0.217 N 
ATOM      2  C   UNL     1      -0.034  -4.141   2.373  0.00  0.00    +0.263 C 
ATOM      3  O   UNL     1      -0.167  -4.738   1.321  0.00  0.00    -0.269 OA
ATOM      4  C   UNL     1       0.016  -4.869   3.654  0.00  0.00    +0.113 C 
ATOM      5  C   UNL     1      -0.086  -6.247   3.706  0.00  0.00    +0.086 C 
ATOM      6  C   UNL     1       0.180  -4.063   4.878  0.00  0.00    +0.256 C 
ATOM      7  O   UNL     1       0.230  -4.592   5.972  0.00  0.00    -0.270 OA
ATOM      8  N   UNL     1       0.273  -2.723   4.751  0.00  0.00    -0.263 N 
ATOM      9  C   UNL     1       0.225  -2.128   3.551  0.00  0.00    +0.150 C 
ATOM     10  S   UNL     1       0.358  -0.423   3.486  0.00  0.00    -0.018 S 
ATOM     11  H   UNL     1       0.381  -2.179   5.546  0.00  0.00    +0.157 HD
ENDROOT
BRANCH   1  17
ATOM     12  C   UNL     1       2.387  -1.043  -1.570  0.00  0.00    +0.044 C 
ATOM     13  C   UNL     1       1.135  -1.218  -0.749  0.00  0.00    -0.049 A 
ATOM     14  C   UNL     1      -0.059  -0.674  -1.185  0.00  0.00    +0.003 A 
ATOM     15  C   UNL     1      -1.209  -0.833  -0.435  0.00  0.00    +0.002 A 
ATOM     16  C   UNL     1      -1.169  -1.536   0.753  0.00  0.00    +0.024 A 
ATOM     17  C   UNL     1       0.028  -2.084   1.194  0.00  0.00    +0.044 A 
ATOM     18  C   UNL     1       1.181  -1.927   0.436  0.00  0.00    +0.027 A 
ENDBRANCH   1  17
BRANCH   5  19
ATOM     19  N   UNL     1      -0.168  -6.872   4.897  0.00  0.00    -0.336 N 
ATOM     20  H   UNL     1      -0.246  -6.353   5.713  0.00  0.00    +0.146 HD
BRANCH  19  21
ATOM     21  C   UNL     1      -0.139  -8.336   4.960  0.00  0.00    +0.184 C 
BRANCH  21  22
ATOM     22  C   UNL     1       1.291  -8.810   4.972  0.00  0.00    +0.328 C 
ATOM     23  O   UNL     1       2.194  -8.008   4.933  0.00  0.00    -0.249 OA
BRANCH  22  24
ATOM     24  O   UNL     1       1.562 -10.123   5.027  0.00  0.00    -0.467 OA
ATOM     25  C   UNL     1       2.940 -10.501   5.036  0.00  0.00    +0.280 C 
ENDBRANCH  22  24
ENDBRANCH  21  22
BRANCH  21  26
ATOM     26  C   UNL     1      -0.844  -8.806   6.234  0.00  0.00    +0.066 C 
BRANCH  26  27
ATOM     27  C   UNL     1      -2.304  -8.438   6.166  0.00  0.00    -0.039 C 
ATOM     28  C   UNL     1      -3.322  -9.226   5.751  0.00  0.00    -0.001 A 
ATOM     29  C   UNL     1      -3.373 -10.607   5.256  0.00  0.00    +0.010 A 
ATOM     30  C   UNL     1      -4.568 -11.135   4.908  0.00  0.00    +0.001 A 
ATOM     31  C   UNL     1      -5.756 -10.398   5.006  0.00  0.00    +0.002 A 
ATOM     32  C   UNL     1      -5.790  -9.124   5.452  0.00  0.00    +0.026 A 
ATOM     33  C   UNL     1      -4.591  -8.469   5.846  0.00  0.00    +0.043 A 
ATOM     34  N   UNL     1      -4.366  -7.261   6.302  0.00  0.00    -0.380 N 
ATOM     35  C   UNL     1      -2.928  -7.116   6.554  0.00  0.00    +0.144 C 
ATOM     36  H   UNL     1      -5.038  -6.578   6.452  0.00  0.00    +0.160 HD
ENDBRANCH  26  27
ENDBRANCH  21  26
ENDBRANCH  19  21
ENDBRANCH   5  19
TORSDOF 7
