REMARK  Name = ZINC44564282
REMARK  14 active torsions:
REMARK  status: ('A' for Active; 'I' for Inactive)
REMARK    1  A    between atoms: C_1  and  C_2
REMARK    2  A    between atoms: C_2  and  C_4
REMARK    3  A    between atoms: C_2  and  C_12
REMARK    4  A    between atoms: C_5  and  C_6
REMARK    5  A    between atoms: C_6  and  C_8
REMARK    6  A    between atoms: C_6  and  C_9
REMARK    7  A    between atoms: C_9  and  C_10
REMARK    8  A    between atoms: C_9  and  C_11
REMARK    9  A    between atoms: C_18  and  C_37
REMARK   10  A    between atoms: C_22  and  C_23
REMARK   11  A    between atoms: C_22  and  O_36
REMARK   12  A    between atoms: C_23  and  C_25
REMARK   13  A    between atoms: C_23  and  O_35
REMARK   14  A    between atoms: C_28  and  O_34
REMARK                            x       y       z     vdW  Elec       q    Type
REMARK                         _______ _______ _______ _____ _____    ______ ____
ROOT
ATOM      1  C   UNL     1      -1.095   0.192   0.205  0.00  0.00    +0.002 C 
ATOM      2  C   UNL     1      -1.884   0.673  -1.028  0.00  0.00    +0.005 C 
ATOM      3  C   UNL     1      -2.681  -0.547  -1.545  0.00  0.00    +0.007 C 
ATOM      4  C   UNL     1      -2.791  -1.455  -0.306  0.00  0.00    +0.030 C 
ATOM      5  C   UNL     1      -1.411  -1.319   0.363  0.00  0.00    -0.023 C 
ATOM      6  C   UNL     1      -0.345  -2.075  -0.434  0.00  0.00    +0.007 C 
ATOM      7  C   UNL     1      -0.757  -3.528  -0.652  0.00  0.00    +0.003 C 
ATOM      8  C   UNL     1      -2.050  -3.550  -1.476  0.00  0.00    +0.038 C 
ATOM      9  C   UNL     1      -3.136  -2.881  -0.660  0.00  0.00    +0.099 C 
ATOM     10  C   UNL     1      -1.444  -1.746   1.832  0.00  0.00    +0.012 C 
ENDROOT
BRANCH   1  12
ATOM     11  C   UNL     1       0.681   1.872  -0.309  0.00  0.00    +0.012 C 
ATOM     12  C   UNL     1       0.404   0.396  -0.019  0.00  0.00    +0.012 C 
BRANCH  12  13
ATOM     13  C   UNL     1       1.158  -0.024   1.216  0.00  0.00    -0.027 C 
ATOM     14  C   UNL     1       2.153  -0.871   1.121  0.00  0.00    -0.027 C 
BRANCH  14  15
ATOM     15  C   UNL     1       2.907  -1.290   2.357  0.00  0.00    +0.011 C 
ATOM     16  C   UNL     1       4.380  -0.903   2.211  0.00  0.00    +0.012 C 
BRANCH  15  17
ATOM     17  C   UNL     1       2.792  -2.805   2.535  0.00  0.00    -0.011 C 
ATOM     18  C   UNL     1       3.558  -3.230   3.790  0.00  0.00    +0.008 C 
ATOM     19  C   UNL     1       1.319  -3.191   2.681  0.00  0.00    +0.008 C 
ENDBRANCH  15  17
ENDBRANCH  14  15
ENDBRANCH  12  13
ENDBRANCH   1  12
BRANCH   9  20
ATOM     20  O   UNL     1      -3.341  -3.625   0.543  0.00  0.00    -0.385 OA
ATOM     21  H   UNL     1      -3.567  -4.554   0.398  0.00  0.00    +0.210 HD
ENDBRANCH   9  20
BRANCH   9  22
ATOM     22  C   UNL     1      -4.429  -2.894  -1.479  0.00  0.00    +0.169 C 
BRANCH  22  23
ATOM     23  C   UNL     1      -4.847  -4.319  -1.735  0.00  0.00    +0.010 C 
ATOM     24  C   UNL     1      -5.123  -4.718  -2.972  0.00  0.00    -0.044 C 
ATOM     25  C   UNL     1      -5.676  -6.100  -3.257  0.00  0.00    +0.066 C 
ATOM     26  C   UNL     1      -6.853  -5.959  -4.227  0.00  0.00    +0.119 C 
ATOM     27  C   UNL     1      -6.390  -5.262  -5.507  0.00  0.00    +0.036 C 
ATOM     28  C   UNL     1      -5.996  -3.814  -5.197  0.00  0.00    +0.037 C 
ATOM     29  C   UNL     1      -4.912  -3.829  -4.143  0.00  0.00    -0.051 C 
ATOM     30  C   UNL     1      -3.820  -3.082  -4.262  0.00  0.00    +0.012 C 
BRANCH  26  31
ATOM     31  O   UNL     1      -7.360  -7.255  -4.551  0.00  0.00    -0.391 OA
ATOM     32  H   UNL     1      -8.109  -7.243  -5.163  0.00  0.00    +0.210 HD
ENDBRANCH  26  31
ENDBRANCH  22  23
BRANCH  22  33
ATOM     33  O   UNL     1      -5.458  -2.218  -0.755  0.00  0.00    -0.385 OA
ATOM     34  H   UNL     1      -5.609  -2.568   0.134  0.00  0.00    +0.210 HD
ENDBRANCH  22  33
ENDBRANCH   9  22
TORSDOF 9
