REMARK  Name = ZINC36572994
REMARK  19 active torsions:
REMARK  status: ('A' for Active; 'I' for Inactive)
REMARK    1  A    between atoms: C_1  and  C_2
REMARK    2  A    between atoms: C_2  and  C_3
REMARK    3  A    between atoms: C_3  and  N_4
REMARK    4  A    between atoms: N_4  and  C_5
REMARK    5  A    between atoms: C_5  and  C_7
REMARK    6  A    between atoms: C_5  and  C_16
REMARK    7  A    between atoms: C_10  and  N_13
REMARK    8  A    between atoms: N_13  and  C_14
REMARK    9  A    between atoms: N_13  and  C_15
REMARK   10  A    between atoms: N_18  and  C_19
REMARK   11  A    between atoms: C_19  and  C_20
REMARK   12  A    between atoms: C_19  and  C_21
REMARK   13  A    between atoms: C_19  and  C_22
REMARK   14  A    between atoms: C_22  and  C_23
REMARK   15  A    between atoms: C_23  and  C_24
REMARK   16  A    between atoms: C_23  and  C_25
REMARK   17  A    between atoms: C_23  and  C_26
REMARK   18  A    between atoms: C_27  and  C_29
REMARK   19  A    between atoms: C_29  and  C_30
REMARK                            x       y       z     vdW  Elec       q    Type
REMARK                         _______ _______ _______ _____ _____    ______ ____
ROOT
ATOM      1  C   UNL     1      -2.359  -2.831   1.701  0.00  0.00    +0.192 C 
ENDROOT
BRANCH   1   2
ATOM      2  C   UNL     1      -0.993  -3.435   1.906  0.00  0.00    -0.018 A 
ATOM      3  C   UNL     1       0.118  -2.616   1.988  0.00  0.00    +0.008 A 
ATOM      4  C   UNL     1       1.371  -3.165   2.176  0.00  0.00    +0.023 A 
ATOM      5  C   UNL     1       1.514  -4.543   2.283  0.00  0.00    +0.029 A 
ATOM      6  C   UNL     1       0.396  -5.363   2.200  0.00  0.00    +0.023 A 
ATOM      7  C   UNL     1      -0.855  -4.806   2.018  0.00  0.00    +0.008 A 
BRANCH   5   8
ATOM      8  N   UNL     1       2.780  -5.102   2.472  0.00  0.00    -0.336 N 
ATOM      9  C   UNL     1       3.958  -4.236   2.558  0.00  0.00    +0.129 C 
ATOM     10  C   UNL     1       2.930  -6.555   2.585  0.00  0.00    +0.129 C 
ENDBRANCH   5   8
ENDBRANCH   1   2
BRANCH   1  11
ATOM     11  C   UNL     1      -2.941  -2.442   3.035  0.00  0.00    +0.238 C 
ATOM     12  O   UNL     1      -3.529  -1.387   3.156  0.00  0.00    -0.273 OA
ATOM     13  N   UNL     1      -2.808  -3.264   4.095  0.00  0.00    -0.308 N 
ATOM     14  H   UNL     1      -2.338  -4.107   3.999  0.00  0.00    +0.149 HD
BRANCH  13  15
ATOM     15  C   UNL     1      -3.374  -2.885   5.392  0.00  0.00    +0.030 C 
ATOM     16  C   UNL     1      -2.628  -1.666   5.937  0.00  0.00    +0.031 C 
ATOM     17  C   UNL     1      -4.856  -2.542   5.221  0.00  0.00    +0.031 C 
BRANCH  15  18
ATOM     18  C   UNL     1      -3.230  -4.051   6.372  0.00  0.00    +0.031 C 
BRANCH  18  19
ATOM     19  C   UNL     1      -3.341  -5.374   5.610  0.00  0.00    -0.036 C 
ATOM     20  C   UNL     1      -1.978  -5.736   5.017  0.00  0.00    +0.010 C 
ATOM     21  C   UNL     1      -3.789  -6.479   6.569  0.00  0.00    +0.010 C 
ATOM     22  C   UNL     1      -4.365  -5.229   4.484  0.00  0.00    +0.010 C 
ENDBRANCH  18  19
ENDBRANCH  15  18
ENDBRANCH  13  15
ENDBRANCH   1  11
BRANCH   1  23
ATOM     23  N   UNL     1      -2.245  -1.643   0.852  0.00  0.00    -0.286 N 
ATOM     24  C   UNL     1      -1.873  -1.769  -0.437  0.00  0.00    +0.221 C 
ATOM     25  O   UNL     1      -1.631  -2.866  -0.894  0.00  0.00    -0.275 OA
BRANCH  23  26
ATOM     26  C   UNL     1      -2.536  -0.318   1.404  0.00  0.00    +0.108 C 
BRANCH  26  28
ATOM     27  C   UNL     1      -1.776   1.431   3.019  0.00  0.00    +0.005 C 
ATOM     28  C   UNL     1      -1.497   0.029   2.473  0.00  0.00    +0.016 C 
ENDBRANCH  26  28
ENDBRANCH  23  26
BRANCH  24  29
ATOM     29  C   UNL     1      -1.756  -0.547  -1.311  0.00  0.00    +0.131 C 
BRANCH  29  30
ATOM     30  C   UNL     1      -1.327  -0.958  -2.696  0.00  0.00    -0.035 A 
ATOM     31  C   UNL     1       0.018  -1.033  -3.008  0.00  0.00    +0.008 A 
ATOM     32  C   UNL     1       0.416  -1.411  -4.276  0.00  0.00    +0.050 A 
ATOM     33  C   UNL     1      -0.533  -1.714  -5.239  0.00  0.00    +0.166 A 
ATOM     34  C   UNL     1      -1.887  -1.639  -4.925  0.00  0.00    +0.166 A 
ATOM     35  C   UNL     1      -2.279  -1.266  -3.650  0.00  0.00    +0.053 A 
ATOM     36  O   UNL     1      -2.611  -1.982  -6.030  0.00  0.00    -0.453 OA
ATOM     37  C   UNL     1      -1.698  -1.873  -7.137  0.00  0.00    +0.466 C 
ATOM     38  O   UNL     1      -0.408  -2.105  -6.541  0.00  0.00    -0.453 OA
ENDBRANCH  29  30
ENDBRANCH  24  29
ENDBRANCH   1  23
TORSDOF 11
