REMARK  Name = ZINC00353118
REMARK  7 active torsions:
REMARK  status: ('A' for Active; 'I' for Inactive)
REMARK    1  A    between atoms: C_1  and  C_2
REMARK    2  A    between atoms: C_2  and  N_47
REMARK    3  A    between atoms: N_5  and  C_8
REMARK    4  A    between atoms: C_11  and  N_14
REMARK    5  A    between atoms: C_15  and  C_16
REMARK    6  A    between atoms: C_19  and  O_23
REMARK    7  A    between atoms: C_21  and  O_22
REMARK                            x       y       z     vdW  Elec       q    Type
REMARK                         _______ _______ _______ _____ _____    ______ ____
ROOT
ATOM      1  C   UNL     1      -1.413   3.565  -2.353  0.00  0.00    +0.030 A 
ATOM      2  C   UNL     1      -1.864   2.692  -3.337  0.00  0.00    +0.025 A 
ATOM      3  C   UNL     1      -2.468   3.185  -4.473  0.00  0.00    +0.029 A 
ATOM      4  C   UNL     1      -2.617   4.564  -4.641  0.00  0.00    +0.064 A 
ATOM      5  C   UNL     1      -2.158   5.438  -3.653  0.00  0.00    +0.029 A 
ATOM      6  C   UNL     1      -1.560   4.938  -2.517  0.00  0.00    +0.025 A 
ENDROOT
BRANCH   1   9
ATOM      7  C   UNL     1      -0.013   1.086   0.008  0.00  0.00    -0.060 C 
ATOM      8  C   UNL     1      -0.754   1.593  -1.231  0.00  0.00    +0.086 C 
ATOM      9  N   UNL     1      -0.806   3.062  -1.200  0.00  0.00    -0.333 N 
ATOM     10  C   UNL     1      -1.495   3.536   0.008  0.00  0.00    +0.086 C 
ATOM     11  C   UNL     1      -0.754   3.029   1.247  0.00  0.00    -0.060 C 
ATOM     12  N   UNL     1      -0.728   1.551   1.215  0.00  0.00    +0.382 N 
ATOM     13  H   UNL     1      -1.692   1.200   1.187  0.00  0.00    -0.082 HD
BRANCH  12  15
ATOM     14  C   UNL     1      -0.640   1.734   3.658  0.00  0.00    -0.017 C 
ATOM     15  C   UNL     1      -0.062   1.031   2.429  0.00  0.00    -0.082 C 
ENDBRANCH  12  15
ENDBRANCH   1   9
BRANCH   4  16
ATOM     16  N   UNL     1      -3.211   5.057  -5.771  0.00  0.00    -0.255 NA
ATOM     17  C   UNL     1      -2.885   4.581  -6.941  0.00  0.00    +0.123 C 
BRANCH  17  18
ATOM     18  C   UNL     1      -3.522   5.110  -8.153  0.00  0.00    +0.035 A 
ATOM     19  C   UNL     1      -3.174   4.601  -9.410  0.00  0.00    +0.016 A 
ATOM     20  C   UNL     1      -3.774   5.101 -10.543  0.00  0.00    +0.046 A 
ATOM     21  C   UNL     1      -4.726   6.110 -10.445  0.00  0.00    +0.120 A 
ATOM     22  C   UNL     1      -5.079   6.622  -9.205  0.00  0.00    +0.091 A 
ATOM     23  C   UNL     1      -4.487   6.126  -8.057  0.00  0.00    +0.129 A 
BRANCH  23  24
ATOM     24  O   UNL     1      -4.836   6.621  -6.842  0.00  0.00    -0.506 OA
ATOM     25  H   UNL     1      -4.301   7.375  -6.557  0.00  0.00    +0.292 HD
ENDBRANCH  23  24
BRANCH  21  26
ATOM     26  O   UNL     1      -5.314   6.596 -11.569  0.00  0.00    -0.507 OA
ATOM     27  H   UNL     1      -6.121   6.129 -11.824  0.00  0.00    +0.292 HD
ENDBRANCH  21  26
ENDBRANCH  17  18
ENDBRANCH   4  16
TORSDOF 6
