REMARK  Name = ZINC39352782
REMARK  8 active torsions:
REMARK  status: ('A' for Active; 'I' for Inactive)
REMARK    1  A    between atoms: C_4  and  C_7
REMARK    2  A    between atoms: C_7  and  C_8
REMARK    3  A    between atoms: C_8  and  N_9
REMARK    4  A    between atoms: N_9  and  C_10
REMARK    5  A    between atoms: N_9  and  C_17
REMARK    6  A    between atoms: C_10  and  C_11
REMARK    7  A    between atoms: C_17  and  C_18
REMARK    8  A    between atoms: C_23  and  C_24
REMARK                            x       y       z     vdW  Elec       q    Type
REMARK                         _______ _______ _______ _____ _____    ______ ____
ROOT
ATOM      1  N   UNL     1       5.317  -1.608   1.198  0.00  0.00    -0.297 NA
ENDROOT
BRANCH   1   2
ATOM      2  C   UNL     1       4.077  -0.837   1.034  0.00  0.00    +0.089 C 
BRANCH   2   3
ATOM      3  C   UNL     1       3.938  -0.401  -0.426  0.00  0.00    +0.050 C 
BRANCH   3   7
ATOM      4  C   UNL     1       0.336   1.844  -0.906  0.00  0.00    +0.000 A 
ATOM      5  C   UNL     1       1.514   2.490  -0.584  0.00  0.00    +0.000 A 
ATOM      6  C   UNL     1       2.680   1.763  -0.428  0.00  0.00    +0.003 A 
ATOM      7  C   UNL     1       2.667   0.391  -0.595  0.00  0.00    -0.046 A 
ATOM      8  C   UNL     1       1.488  -0.255  -0.917  0.00  0.00    +0.003 A 
ATOM      9  C   UNL     1       0.322   0.472  -1.074  0.00  0.00    +0.000 A 
ENDBRANCH   3   7
ENDBRANCH   2   3
ENDBRANCH   1   2
BRANCH   1  10
ATOM     10  C   UNL     1       6.497  -0.764   0.971  0.00  0.00    +0.119 C 
BRANCH  10  11
ATOM     11  C   UNL     1       7.707  -1.637   0.761  0.00  0.00    -0.033 A 
ATOM     12  C   UNL     1       8.540  -1.931   1.824  0.00  0.00    +0.005 A 
ATOM     13  C   UNL     1       9.650  -2.733   1.632  0.00  0.00    +0.000 A 
ATOM     14  C   UNL     1       9.926  -3.240   0.376  0.00  0.00    +0.000 A 
ATOM     15  C   UNL     1       9.093  -2.947  -0.687  0.00  0.00    +0.000 A 
ATOM     16  C   UNL     1       7.980  -2.149  -0.493  0.00  0.00    +0.005 A 
ENDBRANCH  10  11
ENDBRANCH   1  10
BRANCH   1  17
ATOM     17  C   UNL     1       5.370  -2.243   2.522  0.00  0.00    +0.100 C 
BRANCH  17  18
ATOM     18  C   UNL     1       4.436  -3.455   2.545  0.00  0.00    +0.097 C 
ATOM     19  C   UNL     1       4.982  -4.566   1.671  0.00  0.00    +0.118 C 
ATOM     20  N   UNL     1       5.190  -5.572   2.457  0.00  0.00    -0.161 NA
ATOM     21  N   UNL     1       4.854  -5.293   3.778  0.00  0.00    -0.153 NA
ATOM     22  C   UNL     1       4.400  -4.075   3.927  0.00  0.00    +0.080 C 
BRANCH  22  23
ATOM     23  C   UNL     1       3.950  -3.439   5.174  0.00  0.00    -0.001 A 
ATOM     24  C   UNL     1       3.486  -2.119   5.162  0.00  0.00    +0.012 A 
ATOM     25  C   UNL     1       3.065  -1.528   6.333  0.00  0.00    +0.039 A 
ATOM     26  C   UNL     1       3.102  -2.239   7.524  0.00  0.00    +0.123 A 
ATOM     27  C   UNL     1       3.561  -3.547   7.543  0.00  0.00    +0.039 A 
ATOM     28  C   UNL     1       3.978  -4.152   6.377  0.00  0.00    +0.012 A 
ATOM     29  F   UNL     1       2.689  -1.654   8.669  0.00  0.00    -0.205 F 
ENDBRANCH  22  23
ENDBRANCH  17  18
ENDBRANCH   1  17
TORSDOF 8
