REMARK  Name = ZINC41510565
REMARK  13 active torsions:
REMARK  status: ('A' for Active; 'I' for Inactive)
REMARK    1  A    between atoms: C_1  and  C_2
REMARK    2  A    between atoms: C_2  and  N_3
REMARK    3  A    between atoms: N_3  and  C_4
REMARK    4  A    between atoms: N_3  and  C_6
REMARK    5  A    between atoms: C_4  and  C_5
REMARK    6  A    between atoms: C_6  and  C_7
REMARK    7  A    between atoms: C_8  and  O_29
REMARK    8  A    between atoms: C_10  and  C_28
REMARK    9  A    between atoms: C_15  and  C_16
REMARK   10  A    between atoms: C_18  and  O_24
REMARK   11  A    between atoms: C_21  and  O_22
REMARK   12  A    between atoms: O_22  and  C_23
REMARK   13  A    between atoms: O_24  and  C_25
REMARK                            x       y       z     vdW  Elec       q    Type
REMARK                         _______ _______ _______ _____ _____    ______ ____
ROOT
ATOM      1  C   UNL     1      -3.210  -1.260  -0.479  0.00  0.00    +0.020 A 
ATOM      2  C   UNL     1      -3.976  -1.177   0.673  0.00  0.00    +0.122 A 
ATOM      3  C   UNL     1      -5.299  -1.609   0.676  0.00  0.00    +0.050 A 
ATOM      4  C   UNL     1      -5.857  -2.121  -0.462  0.00  0.00    -0.033 A 
ATOM      5  C   UNL     1      -5.097  -2.211  -1.628  0.00  0.00    +0.071 A 
ATOM      6  C   UNL     1      -3.763  -1.772  -1.645  0.00  0.00    +0.145 A 
ATOM      7  O   UNL     1      -3.241  -1.952  -2.878  0.00  0.00    -0.451 OA
ATOM      8  C   UNL     1      -4.142  -2.490  -3.733  0.00  0.00    +0.176 C 
ATOM      9  C   UNL     1      -3.927  -2.792  -5.040  0.00  0.00    +0.062 C 
ATOM     10  C   UNL     1      -5.391  -2.701  -2.987  0.00  0.00    +0.232 C 
ATOM     11  O   UNL     1      -6.439  -3.165  -3.403  0.00  0.00    -0.283 OA
ATOM     12  C   UNL     1      -7.289  -2.590  -0.455  0.00  0.00    +0.045 C 
ENDROOT
BRANCH   9  13
ATOM     13  C   UNL     1      -2.583  -2.657  -5.612  0.00  0.00    +0.024 A 
ATOM     14  C   UNL     1      -1.466  -2.562  -4.773  0.00  0.00    +0.057 A 
ATOM     15  C   UNL     1      -0.204  -2.436  -5.320  0.00  0.00    +0.121 A 
ATOM     16  C   UNL     1      -0.040  -2.404  -6.700  0.00  0.00    +0.049 A 
ATOM     17  C   UNL     1      -1.135  -2.498  -7.537  0.00  0.00    +0.050 A 
ATOM     18  C   UNL     1      -2.408  -2.630  -7.006  0.00  0.00    +0.128 A 
BRANCH  18  19
ATOM     19  O   UNL     1      -3.483  -2.728  -7.829  0.00  0.00    -0.495 OA
ATOM     20  C   UNL     1      -3.229  -2.693  -9.235  0.00  0.00    +0.277 C 
ENDBRANCH  18  19
BRANCH  15  21
ATOM     21  O   UNL     1       0.881  -2.342  -4.506  0.00  0.00    -0.495 OA
ATOM     22  C   UNL     1       2.157  -2.214  -5.138  0.00  0.00    +0.277 C 
ENDBRANCH  15  21
ENDBRANCH   9  13
BRANCH   2  23
ATOM     23  O   UNL     1      -3.431  -0.670   1.808  0.00  0.00    -0.506 OA
ATOM     24  H   UNL     1      -3.538   0.287   1.903  0.00  0.00    +0.292 HD
ENDBRANCH   2  23
BRANCH   1  25
ATOM     25  C   UNL     1      -1.779  -0.788  -0.468  0.00  0.00    -0.036 C 
BRANCH  25  26
ATOM     26  N   UNL     1      -1.703   0.560  -1.047  0.00  0.00    +0.382 N 
ATOM     27  H   UNL     1      -2.116   0.555  -1.967  0.00  0.00    -0.081 HD
BRANCH  26  29
ATOM     28  C   UNL     1      -2.460   2.881  -0.853  0.00  0.00    -0.017 C 
ATOM     29  C   UNL     1      -2.432   1.504  -0.188  0.00  0.00    -0.082 C 
ENDBRANCH  26  29
BRANCH  26  30
ATOM     30  C   UNL     1      -0.297   0.973  -1.144  0.00  0.00    -0.082 C 
ATOM     31  C   UNL     1       0.420   0.103  -2.178  0.00  0.00    -0.017 C 
ENDBRANCH  26  30
ENDBRANCH  25  26
ENDBRANCH   1  25
TORSDOF 8
