REMARK  Name = ZINC01448834
REMARK  10 active torsions:
REMARK  status: ('A' for Active; 'I' for Inactive)
REMARK    1  A    between atoms: C_1  and  C_2
REMARK    2  A    between atoms: C_3  and  C_32
REMARK    3  A    between atoms: C_5  and  N_24
REMARK    4  A    between atoms: C_6  and  C_7
REMARK    5  A    between atoms: C_7  and  C_9
REMARK    6  A    between atoms: C_7  and  N_17
REMARK    7  A    between atoms: C_12  and  O_15
REMARK    8  A    between atoms: O_15  and  C_16
REMARK    9  A    between atoms: N_20  and  C_23
REMARK   10  A    between atoms: C_25  and  C_27
REMARK                            x       y       z     vdW  Elec       q    Type
REMARK                         _______ _______ _______ _____ _____    ______ ____
ROOT
ATOM      1  C   UNL     1      -1.840   3.491   2.775  0.00  0.00    +0.120 C 
ENDROOT
BRANCH   1   2
ATOM      2  N   UNL     1      -1.428   2.888   1.500  0.00  0.00    -0.295 NA
ATOM      3  C   UNL     1      -2.454   3.088   0.467  0.00  0.00    +0.067 C 
ATOM      4  C   UNL     1      -2.024   2.380  -0.820  0.00  0.00    -0.064 C 
ATOM      5  N   UNL     1      -0.727   2.911  -1.259  0.00  0.00    +0.379 N 
ATOM      6  C   UNL     1       0.299   2.711  -0.226  0.00  0.00    -0.064 C 
ATOM      7  C   UNL     1      -0.131   3.420   1.060  0.00  0.00    +0.067 C 
ATOM      8  C   UNL     1      -0.315   2.308  -2.534  0.00  0.00    -0.096 C 
ATOM      9  H   UNL     1      -0.840   3.994  -1.420  0.00  0.00    -0.082 HD
ENDBRANCH   1   2
BRANCH   1  15
ATOM     10  C   UNL     1      -1.078   5.605   4.630  0.00  0.00    +0.045 C 
ATOM     11  C   UNL     1      -0.410   4.256   4.692  0.00  0.00    -0.034 A 
ATOM     12  C   UNL     1       0.553   4.008   5.612  0.00  0.00    -0.008 A 
ATOM     13  S   UNL     1       0.987   2.315   5.251  0.00  0.00    -0.078 S 
ATOM     14  C   UNL     1      -0.149   2.045   3.900  0.00  0.00    +0.078 A 
ATOM     15  C   UNL     1      -0.772   3.254   3.811  0.00  0.00    +0.006 A 
ATOM     16  C   UNL     1       1.115   4.926   6.667  0.00  0.00    +0.052 C 
BRANCH  14  17
ATOM     17  N   UNL     1      -0.347   0.894   3.134  0.00  0.00    -0.273 N 
ATOM     18  C   UNL     1       0.274  -0.254   3.470  0.00  0.00    +0.284 C 
ATOM     19  O   UNL     1       1.007  -0.288   4.441  0.00  0.00    -0.266 OA
ATOM     20  H   UNL     1      -1.010   0.925   2.256  0.00  0.00    +0.156 HD
BRANCH  18  21
ATOM     21  C   UNL     1       0.066  -1.462   2.665  0.00  0.00    +0.189 A 
ATOM     22  C   UNL     1       0.630  -2.684   2.892  0.00  0.00    +0.054 A 
ATOM     23  C   UNL     1       0.158  -3.540   1.885  0.00  0.00    +0.042 A 
ATOM     24  C   UNL     1      -0.663  -2.812   1.097  0.00  0.00    +0.196 A 
ATOM     25  O   UNL     1      -0.721  -1.562   1.573  0.00  0.00    -0.458 OA
ENDBRANCH  18  21
ENDBRANCH  14  17
ENDBRANCH   1  15
BRANCH   1  26
ATOM     26  C   UNL     1      -3.132   2.866   3.232  0.00  0.00    -0.026 A 
ATOM     27  C   UNL     1      -3.333   1.507   3.078  0.00  0.00    +0.009 A 
ATOM     28  C   UNL     1      -4.515   0.930   3.502  0.00  0.00    +0.046 A 
ATOM     29  C   UNL     1      -5.505   1.718   4.072  0.00  0.00    +0.120 A 
ATOM     30  C   UNL     1      -5.302   3.083   4.220  0.00  0.00    +0.046 A 
ATOM     31  C   UNL     1      -4.117   3.653   3.800  0.00  0.00    +0.009 A 
BRANCH  29  32
ATOM     32  O   UNL     1      -6.671   1.154   4.484  0.00  0.00    -0.495 OA
ATOM     33  C   UNL     1      -6.810  -0.256   4.300  0.00  0.00    +0.277 C 
ENDBRANCH  29  32
ENDBRANCH   1  26
TORSDOF 6
