REMARK  Name = ZINC01827329
REMARK  6 active torsions:
REMARK  status: ('A' for Active; 'I' for Inactive)
REMARK    1  A    between atoms: C_1  and  C_2
REMARK    2  A    between atoms: C_6  and  N_9
REMARK    3  A    between atoms: C_7  and  C_8
REMARK    4  A    between atoms: C_16  and  C_23
REMARK    5  A    between atoms: C_19  and  C_21
REMARK    6  A    between atoms: C_19  and  C_22
REMARK                            x       y       z     vdW  Elec       q    Type
REMARK                         _______ _______ _______ _____ _____    ______ ____
ROOT
ATOM      1  N   UNL     1       0.003  -2.464   2.790  0.00  0.00    -0.214 N 
ATOM      2  C   UNL     1      -1.079  -3.024   3.348  0.00  0.00    +0.153 C 
ATOM      3  S   UNL     1      -2.679  -2.799   2.782  0.00  0.00    -0.017 S 
ATOM      4  N   UNL     1      -0.752  -3.787   4.409  0.00  0.00    -0.306 N 
ATOM      5  C   UNL     1       0.707  -3.709   4.550  0.00  0.00    +0.101 C 
ATOM      6  N   UNL     1       1.141  -2.829   3.452  0.00  0.00    -0.211 NA
ATOM      7  C   UNL     1       1.078  -3.104   5.900  0.00  0.00    +0.046 C 
ATOM      8  C   UNL     1       0.590  -4.023   7.023  0.00  0.00    -0.010 C 
ATOM      9  C   UNL     1       1.235  -5.401   6.870  0.00  0.00    +0.010 C 
ATOM     10  C   UNL     1       0.841  -6.005   5.521  0.00  0.00    -0.031 C 
ATOM     11  C   UNL     1       1.331  -5.093   4.393  0.00  0.00    +0.049 C 
ATOM     12  C   UNL     1       1.481  -7.386   5.373  0.00  0.00    +0.011 C 
ATOM     13  C   UNL     1      -0.681  -6.136   5.446  0.00  0.00    +0.011 C 
ATOM     14  C   UNL     1       0.978  -3.424   8.377  0.00  0.00    +0.007 C 
ATOM     15  H   UNL     1      -1.362  -4.290   4.970  0.00  0.00    +0.150 HD
ATOM     16  H   UNL     1       1.626  -2.019   3.810  0.00  0.00    +0.147 HD
ENDROOT
BRANCH   1  22
ATOM     17  C   UNL     1      -0.113   2.081   0.919  0.00  0.00    +0.044 C 
ATOM     18  C   UNL     1      -0.085   0.585   0.737  0.00  0.00    -0.046 A 
ATOM     19  C   UNL     1      -0.090   0.044  -0.536  0.00  0.00    +0.004 A 
ATOM     20  C   UNL     1      -0.065  -1.328  -0.707  0.00  0.00    +0.002 A 
ATOM     21  C   UNL     1      -0.034  -2.162   0.394  0.00  0.00    +0.025 A 
ATOM     22  C   UNL     1      -0.028  -1.622   1.673  0.00  0.00    +0.055 A 
ATOM     23  C   UNL     1      -0.049  -0.243   1.841  0.00  0.00    -0.025 A 
ATOM     24  C   UNL     1      -0.036   0.348   3.228  0.00  0.00    +0.046 C 
ENDBRANCH   1  22
TORSDOF 1
