REMARK  Name = ZINC13002288
REMARK  11 active torsions:
REMARK  status: ('A' for Active; 'I' for Inactive)
REMARK    1  A    between atoms: C_1  and  O_2
REMARK    2  A    between atoms: O_2  and  C_3
REMARK    3  A    between atoms: C_6  and  C_9
REMARK    4  A    between atoms: C_9  and  C_11
REMARK    5  A    between atoms: C_9  and  N_69
REMARK    6  A    between atoms: C_11  and  N_12
REMARK    7  A    between atoms: C_13  and  C_15
REMARK    8  A    between atoms: C_15  and  C_16
REMARK    9  A    between atoms: C_16  and  C_17
REMARK   10  A    between atoms: C_20  and  S_23
REMARK   11  A    between atoms: S_23  and  N_26
REMARK                            x       y       z     vdW  Elec       q    Type
REMARK                         _______ _______ _______ _____ _____    ______ ____
ROOT
ATOM      1  N   UNL     1      -2.440   2.567   8.629  0.00  0.00    -0.317 N 
ATOM      2  C   UNL     1      -2.596   2.972   7.353  0.00  0.00    +0.213 C 
ATOM      3  O   UNL     1      -3.354   3.883   7.094  0.00  0.00    -0.276 OA
ATOM      4  H   UNL     1      -1.834   1.839   8.836  0.00  0.00    +0.149 HD
ENDROOT
BRANCH   1   5
ATOM      5  C   UNL     1      -3.186   3.228   9.703  0.00  0.00    +0.093 C 
BRANCH   5   6
ATOM      6  C   UNL     1      -2.707   2.699  11.056  0.00  0.00    -0.020 C 
BRANCH   6  10
ATOM      7  C   UNL     1      -5.037   4.455  14.178  0.00  0.00    +0.120 A 
ATOM      8  C   UNL     1      -5.237   3.128  13.824  0.00  0.00    +0.046 A 
ATOM      9  C   UNL     1      -4.483   2.563  12.814  0.00  0.00    +0.005 A 
ATOM     10  C   UNL     1      -3.529   3.318  12.157  0.00  0.00    -0.059 A 
ATOM     11  C   UNL     1      -3.323   4.638  12.512  0.00  0.00    +0.005 A 
ATOM     12  C   UNL     1      -4.079   5.210  13.518  0.00  0.00    +0.046 A 
BRANCH   7  14
ATOM     13  C   UNL     1      -5.518   6.383  15.483  0.00  0.00    +0.277 C 
ATOM     14  O   UNL     1      -5.778   5.013  15.172  0.00  0.00    -0.495 OA
ENDBRANCH   7  14
ENDBRANCH   6  10
BRANCH   6  19
ATOM     15  C   UNL     1      -0.869   2.809  12.649  0.00  0.00    -0.078 C 
ATOM     16  C   UNL     1       0.673   2.710  12.543  0.00  0.00    -0.020 C 
ATOM     17  C   UNL     1       0.880   1.964  11.205  0.00  0.00    -0.020 C 
ATOM     18  C   UNL     1      -0.420   2.193  10.411  0.00  0.00    -0.078 C 
ATOM     19  N   UNL     1      -1.266   3.041  11.252  0.00  0.00    +0.385 N 
ATOM     20  H   UNL     1      -1.119   4.028  11.008  0.00  0.00    -0.081 HD
ENDBRANCH   6  19
ENDBRANCH   5   6
ENDBRANCH   1   5
BRANCH   2  21
ATOM     21  C   UNL     1      -1.829   2.292   6.248  0.00  0.00    +0.100 C 
BRANCH  21  22
ATOM     22  C   UNL     1      -2.187   2.938   4.907  0.00  0.00    +0.044 C 
BRANCH  22  23
ATOM     23  C   UNL     1      -1.420   2.258   3.802  0.00  0.00    -0.047 A 
ATOM     24  C   UNL     1      -1.962   1.163   3.156  0.00  0.00    +0.005 A 
ATOM     25  C   UNL     1      -1.259   0.540   2.142  0.00  0.00    +0.029 A 
ATOM     26  C   UNL     1      -0.014   1.013   1.773  0.00  0.00    +0.105 A 
ATOM     27  C   UNL     1       0.531   2.105   2.423  0.00  0.00    +0.029 A 
ATOM     28  C   UNL     1      -0.174   2.730   3.434  0.00  0.00    +0.005 A 
BRANCH  26  29
ATOM     29  S   UNL     1       0.882   0.219   0.480  0.00  0.00    +0.061 S 
ATOM     30  O   UNL     1       0.395  -1.114   0.407  0.00  0.00    -0.153 OA
ATOM     31  O   UNL     1       2.255   0.517   0.695  0.00  0.00    -0.153 OA
BRANCH  29  32
ATOM     32  N   UNL     1       0.453   0.958  -0.938  0.00  0.00    -0.177 NA
ATOM     33  C   UNL     1      -0.657   0.554  -1.813  0.00  0.00    +0.109 C 
ATOM     34  C   UNL     1      -0.659   1.513  -3.022  0.00  0.00    +0.018 C 
ATOM     35  C   UNL     1       0.800   2.041  -3.047  0.00  0.00    +0.018 C 
ATOM     36  C   UNL     1       1.126   2.126  -1.536  0.00  0.00    +0.109 C 
ENDBRANCH  29  32
ENDBRANCH  26  29
ENDBRANCH  22  23
ENDBRANCH  21  22
ENDBRANCH   2  21
TORSDOF 10
