REMARK  Name = ZINC06694676
REMARK  4 active torsions:
REMARK  status: ('A' for Active; 'I' for Inactive)
REMARK    1  A    between atoms: C_4  and  C_7
REMARK    2  A    between atoms: C_7  and  C_8
REMARK    3  A    between atoms: N_16  and  C_17
REMARK    4  A    between atoms: C_19  and  C_23
REMARK                            x       y       z     vdW  Elec       q    Type
REMARK                         _______ _______ _______ _____ _____    ______ ____
ROOT
ATOM      1  C   UNL     1      -1.350  -1.886  -0.839  0.00  0.00    +0.121 A 
ATOM      2  N   UNL     1      -2.506  -2.422  -0.580  0.00  0.00    -0.232 NA
ATOM      3  C   UNL     1      -3.077  -1.791   0.478  0.00  0.00    +0.090 A 
ATOM      4  C   UNL     1      -4.288  -1.952   1.158  0.00  0.00    +0.030 A 
ATOM      5  C   UNL     1      -4.588  -1.140   2.215  0.00  0.00    +0.002 A 
ATOM      6  C   UNL     1      -3.703  -0.153   2.624  0.00  0.00    +0.002 A 
ATOM      7  C   UNL     1      -2.502   0.024   1.968  0.00  0.00    +0.028 A 
ATOM      8  C   UNL     1      -2.180  -0.791   0.892  0.00  0.00    +0.075 A 
ATOM      9  N   UNL     1      -1.094  -0.878   0.042  0.00  0.00    -0.280 N 
ENDROOT
BRANCH   9  10
ATOM     10  C   UNL     1       0.051  -0.077   0.075  0.00  0.00    +0.135 A 
ATOM     11  C   UNL     1       0.079   1.281   0.056  0.00  0.00    +0.076 A 
ATOM     12  C   UNL     1       1.427   1.684   0.103  0.00  0.00    +0.095 A 
ATOM     13  N   UNL     1       2.176   0.603   0.150  0.00  0.00    -0.172 NA
ATOM     14  N   UNL     1       1.335  -0.517   0.133  0.00  0.00    -0.261 N 
ATOM     15  H   UNL     1       1.546  -1.596   0.158  0.00  0.00    +0.190 HD
BRANCH  12  16
ATOM     16  C   UNL     1       1.917   3.084   0.102  0.00  0.00    +0.002 A 
ATOM     17  C   UNL     1       1.013   4.142   0.043  0.00  0.00    +0.010 A 
ATOM     18  C   UNL     1       1.474   5.443   0.047  0.00  0.00    +0.001 A 
ATOM     19  C   UNL     1       2.833   5.697   0.097  0.00  0.00    +0.000 A 
ATOM     20  C   UNL     1       3.736   4.651   0.150  0.00  0.00    +0.001 A 
ATOM     21  C   UNL     1       3.285   3.346   0.153  0.00  0.00    +0.010 A 
ENDBRANCH  12  16
ENDBRANCH   9  10
BRANCH   1  22
ATOM     22  C   UNL     1      -0.427  -2.319  -1.949  0.00  0.00    +0.110 C 
BRANCH  22  26
ATOM     23  C   UNL     1      -1.212   0.009  -5.444  0.00  0.00    +0.000 A 
ATOM     24  C   UNL     1      -0.205   0.385  -4.575  0.00  0.00    +0.000 A 
ATOM     25  C   UNL     1       0.049  -0.368  -3.444  0.00  0.00    +0.004 A 
ATOM     26  C   UNL     1      -0.704  -1.497  -3.182  0.00  0.00    -0.040 A 
ATOM     27  C   UNL     1      -1.708  -1.877  -4.053  0.00  0.00    +0.004 A 
ATOM     28  C   UNL     1      -1.965  -1.121  -5.182  0.00  0.00    +0.000 A 
ENDBRANCH  22  26
ENDBRANCH   1  22
TORSDOF 4
