REMARK  Name = ZINC05194072
REMARK  4 active torsions:
REMARK  status: ('A' for Active; 'I' for Inactive)
REMARK    1  A    between atoms: C_1  and  C_2
REMARK    2  A    between atoms: C_5  and  C_8
REMARK    3  A    between atoms: N_12  and  C_16
REMARK    4  A    between atoms: C_20  and  N_22
REMARK                            x       y       z     vdW  Elec       q    Type
REMARK                         _______ _______ _______ _____ _____    ______ ____
ROOT
ATOM      1  C   UNL     1      -1.081   5.468   0.072  0.00  0.00    +0.028 C 
ATOM      2  C   UNL     1      -0.665   4.220  -0.259  0.00  0.00    +0.077 C 
ATOM      3  C   UNL     1       0.598   3.785  -0.891  0.00  0.00    +0.263 C 
ATOM      4  O   UNL     1       1.464   4.580  -1.204  0.00  0.00    -0.269 OA
ATOM      5  N   UNL     1       0.738   2.486  -1.100  0.00  0.00    -0.224 N 
ATOM      6  C   UNL     1      -0.225   1.609  -0.752  0.00  0.00    +0.125 C 
ATOM      7  S   UNL     1      -0.231  -0.093  -0.940  0.00  0.00    -0.027 S 
ATOM      8  S   UNL     1      -1.497   2.651  -0.056  0.00  0.00    -0.061 S 
ENDROOT
BRANCH   1  13
ATOM      9  C   UNL     1       2.548   9.907  -0.326  0.00  0.00    +0.044 C 
ATOM     10  C   UNL     1       1.597   8.743  -0.222  0.00  0.00    -0.050 A 
ATOM     11  C   UNL     1       0.277   8.896  -0.612  0.00  0.00    +0.004 A 
ATOM     12  C   UNL     1      -0.600   7.836  -0.520  0.00  0.00    +0.008 A 
ATOM     13  C   UNL     1      -0.153   6.604  -0.030  0.00  0.00    -0.024 A 
ATOM     14  C   UNL     1       1.181   6.459   0.368  0.00  0.00    +0.008 A 
ATOM     15  C   UNL     1       2.047   7.527   0.264  0.00  0.00    +0.004 A 
ENDBRANCH   1  13
BRANCH   5  16
ATOM     16  C   UNL     1       1.913   2.012  -1.696  0.00  0.00    +0.045 A 
ATOM     17  C   UNL     1       2.781   1.202  -0.976  0.00  0.00    +0.024 A 
ATOM     18  C   UNL     1       3.939   0.735  -1.566  0.00  0.00    +0.004 A 
ATOM     19  C   UNL     1       4.234   1.073  -2.874  0.00  0.00    +0.033 A 
ATOM     20  C   UNL     1       3.372   1.879  -3.595  0.00  0.00    +0.128 A 
ATOM     21  C   UNL     1       2.210   2.345  -3.011  0.00  0.00    +0.056 A 
BRANCH  20  22
ATOM     22  N   UNL     1       3.692   2.239  -4.995  0.00  0.00    +0.056 N 
ATOM     23  O   UNL     1       4.714   1.824  -5.511  0.00  0.00    -0.126 OA
ATOM     24  O   UNL     1       2.933   2.949  -5.630  0.00  0.00    -0.126 OA
ENDBRANCH  20  22
ENDBRANCH   5  16
TORSDOF 3
