REMARK  Name = ZINC39894112
REMARK  7 active torsions:
REMARK  status: ('A' for Active; 'I' for Inactive)
REMARK    1  A    between atoms: C_1  and  C_2
REMARK    2  A    between atoms: C_5  and  C_27
REMARK    3  A    between atoms: C_6  and  N_8
REMARK    4  A    between atoms: N_8  and  C_9
REMARK    5  A    between atoms: C_11  and  C_26
REMARK    6  A    between atoms: C_12  and  C_24
REMARK    7  A    between atoms: N_15  and  C_18
REMARK                            x       y       z     vdW  Elec       q    Type
REMARK                         _______ _______ _______ _____ _____    ______ ____
ROOT
ATOM      1  C   UNL     1      -0.043  -2.136   3.554  0.00  0.00    +0.085 C 
ATOM      2  C   UNL     1      -0.088  -2.836   4.756  0.00  0.00    +0.055 C 
ATOM      3  C   UNL     1      -0.020  -4.247   4.764  0.00  0.00    -0.015 C 
ATOM      4  C   UNL     1      -0.067  -4.910   5.982  0.00  0.00    +0.118 C 
ATOM      5  C   UNL     1      -0.186  -4.139   7.220  0.00  0.00    +0.264 C 
ATOM      6  O   UNL     1      -0.228  -4.721   8.289  0.00  0.00    -0.269 OA
ATOM      7  N   UNL     1      -0.250  -2.797   7.192  0.00  0.00    -0.230 N 
ATOM      8  C   UNL     1      -0.202  -2.118   6.032  0.00  0.00    +0.255 C 
ATOM      9  O   UNL     1      -0.257  -0.902   6.039  0.00  0.00    -0.269 OA
ATOM     10  C   UNL     1       0.102  -5.018   3.474  0.00  0.00    +0.046 C 
ENDROOT
BRANCH   7  11
ATOM     11  C   UNL     1      -0.369  -2.057   8.451  0.00  0.00    +0.085 C 
ATOM     12  C   UNL     1      -1.649  -2.482   9.173  0.00  0.00    +0.023 C 
ATOM     13  C   UNL     1      -1.774  -1.710  10.488  0.00  0.00    +0.002 C 
ATOM     14  C   UNL     1      -0.564  -2.014  11.374  0.00  0.00    +0.000 C 
ATOM     15  C   UNL     1       0.716  -1.589  10.652  0.00  0.00    +0.002 C 
ATOM     16  C   UNL     1       0.841  -2.361   9.337  0.00  0.00    +0.023 C 
ENDBRANCH   7  11
BRANCH   1  17
ATOM     17  N   UNL     1       0.326  -2.764   2.422  0.00  0.00    -0.320 N 
ATOM     18  H   UNL     1       0.504  -3.717   2.433  0.00  0.00    +0.152 HD
BRANCH  17  24
ATOM     19  C   UNL     1       0.048   1.515   0.019  0.00  0.00    +0.044 C 
ATOM     20  C   UNL     1       0.324   0.033   0.038  0.00  0.00    -0.049 A 
ATOM     21  C   UNL     1       0.703  -0.614  -1.124  0.00  0.00    +0.004 A 
ATOM     22  C   UNL     1       0.957  -1.973  -1.111  0.00  0.00    +0.005 A 
ATOM     23  C   UNL     1       0.833  -2.689   0.064  0.00  0.00    -0.029 A 
ATOM     24  C   UNL     1       0.453  -2.042   1.233  0.00  0.00    +0.034 A 
ATOM     25  C   UNL     1       0.203  -0.675   1.217  0.00  0.00    +0.026 A 
ATOM     26  C   UNL     1       1.110  -4.170   0.077  0.00  0.00    +0.045 C 
ENDBRANCH  17  24
ENDBRANCH   1  17
BRANCH   4  27
ATOM     27  C   UNL     1      -0.000  -6.340   6.027  0.00  0.00    +0.105 C 
ATOM     28  N   UNL     1       0.052  -7.474   6.063  0.00  0.00    -0.191 NA
ENDBRANCH   4  27
TORSDOF 4
