REMARK  Name = ZINC06743749
REMARK  4 active torsions:
REMARK  status: ('A' for Active; 'I' for Inactive)
REMARK    1  A    between atoms: C_1  and  C_2
REMARK    2  A    between atoms: C_2  and  C_3
REMARK    3  A    between atoms: C_10  and  C_19
REMARK    4  A    between atoms: C_12  and  C_14
REMARK                            x       y       z     vdW  Elec       q    Type
REMARK                         _______ _______ _______ _____ _____    ______ ____
ROOT
ATOM      1  C   UNL     1      -1.218   1.755   0.017  0.00  0.00    -0.045 A 
ATOM      2  C   UNL     1      -1.242   3.137   0.031  0.00  0.00    +0.005 A 
ATOM      3  C   UNL     1      -0.057   3.859   0.024  0.00  0.00    +0.026 A 
ATOM      4  C   UNL     1       1.151   3.194   0.009  0.00  0.00    +0.058 A 
ATOM      5  C   UNL     1       1.181   1.792   0.000  0.00  0.00    +0.088 A 
ATOM      6  C   UNL     1      -0.013   1.076   0.008  0.00  0.00    +0.033 A 
ATOM      7  N   UNL     1       2.278   0.973  -0.015  0.00  0.00    -0.226 NA
ATOM      8  C   UNL     1       3.556   1.311  -0.025  0.00  0.00    +0.169 C 
ATOM      9  N   UNL     1       4.132   2.529  -0.024  0.00  0.00    -0.211 NA
ATOM     10  C   UNL     1       3.591   3.733  -0.012  0.00  0.00    +0.139 C 
ATOM     11  N   UNL     1       2.250   4.077   0.002  0.00  0.00    -0.297 N 
ATOM     12  H   UNL     1       2.045   5.025   0.009  0.00  0.00    +0.154 HD
ENDROOT
BRANCH  10  13
ATOM     13  C   UNL     1       4.533   4.852  -0.015  0.00  0.00    +0.052 A 
ATOM     14  C   UNL     1       5.922   4.827  -0.023  0.00  0.00    +0.019 A 
ATOM     15  C   UNL     1       6.567   6.037  -0.028  0.00  0.00    +0.008 A 
ATOM     16  C   UNL     1       5.833   7.182  -0.014  0.00  0.00    +0.046 A 
ATOM     17  S   UNL     1       4.198   6.604  -0.002  0.00  0.00    -0.094 S 
ENDBRANCH  10  13
BRANCH   8  18
ATOM     18  C   UNL     1       4.497   0.181  -0.040  0.00  0.00    +0.056 A 
ATOM     19  C   UNL     1       5.881   0.198  -0.052  0.00  0.00    +0.019 A 
ATOM     20  C   UNL     1       6.522  -1.019  -0.065  0.00  0.00    +0.008 A 
ATOM     21  C   UNL     1       5.782  -2.157  -0.063  0.00  0.00    +0.046 A 
ATOM     22  S   UNL     1       4.151  -1.569  -0.037  0.00  0.00    -0.094 S 
ENDBRANCH   8  18
BRANCH   1  24
ATOM     23  C   UNL     1      -2.945   0.715   1.462  0.00  0.00    +0.009 C 
ATOM     24  C   UNL     1      -2.513   0.984   0.019  0.00  0.00    +0.032 C 
ENDBRANCH   1  24
TORSDOF 3
