REMARK  Name = ZINC36302987
REMARK  14 active torsions:
REMARK  status: ('A' for Active; 'I' for Inactive)
REMARK    1  A    between atoms: C_1  and  C_2
REMARK    2  A    between atoms: C_2  and  C_3
REMARK    3  A    between atoms: C_4  and  C_21
REMARK    4  A    between atoms: C_5  and  O_14
REMARK    5  A    between atoms: N_6  and  C_8
REMARK    6  A    between atoms: O_14  and  C_15
REMARK    7  A    between atoms: C_21  and  N_22
REMARK    8  A    between atoms: N_22  and  C_23
REMARK    9  A    between atoms: N_22  and  C_30
REMARK   10  A    between atoms: C_23  and  C_24
REMARK   11  A    between atoms: C_30  and  C_31
REMARK   12  A    between atoms: C_31  and  C_33
REMARK   13  A    between atoms: C_31  and  O_40
REMARK   14  A    between atoms: C_33  and  C_34
REMARK                            x       y       z     vdW  Elec       q    Type
REMARK                         _______ _______ _______ _____ _____    ______ ____
ROOT
ATOM      1  C   UNL     1      -1.212  -0.768  -0.443  0.00  0.00    +0.068 A 
ATOM      2  C   UNL     1      -2.009  -0.877   0.700  0.00  0.00    +0.021 A 
ATOM      3  C   UNL     1      -3.295  -1.060   0.296  0.00  0.00    +0.225 A 
ATOM      4  N   UNL     1      -3.299  -1.064  -1.064  0.00  0.00    -0.200 N 
ATOM      5  N   UNL     1      -1.981  -0.874  -1.497  0.00  0.00    -0.168 NA
ENDROOT
BRANCH   4   6
ATOM      6  C   UNL     1      -4.423  -1.225  -1.886  0.00  0.00    +0.069 A 
ATOM      7  C   UNL     1      -5.409  -2.142  -1.546  0.00  0.00    +0.028 A 
ATOM      8  C   UNL     1      -6.515  -2.298  -2.357  0.00  0.00    +0.002 A 
ATOM      9  C   UNL     1      -6.642  -1.542  -3.508  0.00  0.00    +0.000 A 
ATOM     10  C   UNL     1      -5.662  -0.628  -3.850  0.00  0.00    +0.002 A 
ATOM     11  C   UNL     1      -4.556  -0.463  -3.039  0.00  0.00    +0.028 A 
ENDBRANCH   4   6
BRANCH   1  13
ATOM     12  C   UNL     1       0.584   0.942  -0.462  0.00  0.00    +0.010 C 
ATOM     13  C   UNL     1       0.281  -0.558  -0.460  0.00  0.00    +0.054 C 
ENDBRANCH   1  13
BRANCH   3  14
ATOM     14  O   UNL     1      -4.376  -1.210   1.103  0.00  0.00    -0.438 OA
BRANCH  14  15
ATOM     15  C   UNL     1      -4.688  -2.464   1.524  0.00  0.00    +0.130 A 
ATOM     16  C   UNL     1      -3.847  -3.527   1.226  0.00  0.00    +0.046 A 
ATOM     17  C   UNL     1      -4.166  -4.800   1.656  0.00  0.00    +0.004 A 
ATOM     18  C   UNL     1      -5.322  -5.016   2.383  0.00  0.00    +0.000 A 
ATOM     19  C   UNL     1      -6.161  -3.959   2.682  0.00  0.00    +0.004 A 
ATOM     20  C   UNL     1      -5.844  -2.683   2.260  0.00  0.00    +0.046 A 
ENDBRANCH  14  15
ENDBRANCH   3  14
BRANCH   2  21
ATOM     21  C   UNL     1      -1.529  -0.806   2.127  0.00  0.00    -0.036 C 
BRANCH  21  22
ATOM     22  N   UNL     1      -1.566   0.589   2.586  0.00  0.00    +0.386 N 
ATOM     23  H   UNL     1      -1.050   1.169   1.942  0.00  0.00    -0.081 HD
BRANCH  22  24
ATOM     24  C   UNL     1      -2.961   1.047   2.650  0.00  0.00    -0.046 C 
BRANCH  24  25
ATOM     25  C   UNL     1      -3.720   0.225   3.693  0.00  0.00    +0.102 C 
ATOM     26  C   UNL     1      -5.224   0.570   3.637  0.00  0.00    +0.032 C 
ATOM     27  C   UNL     1      -5.619   0.571   5.139  0.00  0.00    +0.030 C 
ATOM     28  C   UNL     1      -4.319   1.115   5.784  0.00  0.00    +0.160 C 
ATOM     29  O   UNL     1      -3.249   0.551   5.006  0.00  0.00    -0.378 OA
ENDBRANCH  24  25
ENDBRANCH  22  24
BRANCH  22  30
ATOM     30  C   UNL     1      -0.960   0.680   3.921  0.00  0.00    -0.046 C 
BRANCH  30  31
ATOM     31  C   UNL     1      -0.984   2.135   4.393  0.00  0.00    +0.102 C 
BRANCH  31  32
ATOM     32  O   UNL     1      -0.263   2.949   3.466  0.00  0.00    -0.393 OA
ATOM     33  H   UNL     1       0.665   2.699   3.360  0.00  0.00    +0.210 HD
ENDBRANCH  31  32
BRANCH  31  34
ATOM     34  C   UNL     1      -0.330   2.235   5.773  0.00  0.00    +0.064 C 
BRANCH  34  35
ATOM     35  C   UNL     1      -0.463   3.643   6.292  0.00  0.00    -0.045 A 
ATOM     36  C   UNL     1       0.516   4.578   6.011  0.00  0.00    +0.004 A 
ATOM     37  C   UNL     1       0.394   5.871   6.486  0.00  0.00    +0.000 A 
ATOM     38  C   UNL     1      -0.706   6.228   7.243  0.00  0.00    +0.000 A 
ATOM     39  C   UNL     1      -1.685   5.293   7.523  0.00  0.00    +0.000 A 
ATOM     40  C   UNL     1      -1.566   4.002   7.044  0.00  0.00    +0.004 A 
ENDBRANCH  34  35
ENDBRANCH  31  34
ENDBRANCH  30  31
ENDBRANCH  22  30
ENDBRANCH  21  22
ENDBRANCH   2  21
TORSDOF 13
