REMARK  Name = ZINC57354432
REMARK  6 active torsions:
REMARK  status: ('A' for Active; 'I' for Inactive)
REMARK    1  A    between atoms: C_1  and  C_2
REMARK    2  A    between atoms: C_2  and  C_3
REMARK    3  A    between atoms: C_2  and  C_4
REMARK    4  A    between atoms: C_2  and  C_5
REMARK    5  A    between atoms: C_8  and  C_11
REMARK    6  A    between atoms: C_11  and  O_12
REMARK                            x       y       z     vdW  Elec       q    Type
REMARK                         _______ _______ _______ _____ _____    ______ ____
ROOT
ATOM      1  C   UNL     1       0.707  -0.490  -1.238  0.00  0.00    +0.156 A 
ATOM      2  N   UNL     1       1.969  -0.218  -1.568  0.00  0.00    -0.213 NA
ATOM      3  H   UNL     1       1.097  -1.981  -3.944  0.00  0.00    +0.190 HD
ATOM      4  C   UNL     1       2.265  -0.794  -2.704  0.00  0.00    +0.151 A 
ATOM      5  N   UNL     1       1.177  -1.459  -3.131  0.00  0.00    -0.261 N 
ATOM      6  N   UNL     1       0.182  -1.252  -2.161  0.00  0.00    -0.157 NA
ENDROOT
BRANCH   1   8
ATOM      7  C   UNL     1      -0.019   1.526   0.010  0.00  0.00    +0.019 C 
ATOM      8  C   UNL     1       0.002  -0.004   0.002  0.00  0.00    +0.024 C 
ATOM      9  C   UNL     1       0.742  -0.511   1.242  0.00  0.00    +0.019 C 
ATOM     10  C   UNL     1      -1.433  -0.534   0.013  0.00  0.00    +0.019 C 
ENDBRANCH   1   8
BRANCH   4  11
ATOM     11  C   UNL     1       3.594  -0.726  -3.412  0.00  0.00    +0.231 C 
BRANCH  11  12
ATOM     12  O   UNL     1       3.529  -1.482  -4.623  0.00  0.00    -0.387 OA
ATOM     13  H   UNL     1       4.351  -1.482  -5.131  0.00  0.00    +0.210 HD
ENDBRANCH  11  12
ENDBRANCH   4  11
TORSDOF 3
