REMARK  Name = ZINC00531703
REMARK  2 active torsions:
REMARK  status: ('A' for Active; 'I' for Inactive)
REMARK    1  A    between atoms: C_3  and  C_6
REMARK    2  A    between atoms: C_9  and  C_17
REMARK                            x       y       z     vdW  Elec       q    Type
REMARK                         _______ _______ _______ _____ _____    ______ ____
ROOT
ATOM      1  C   UNL     1       3.599   0.625  -0.029  0.00  0.00    +0.178 C 
ATOM      2  C   UNL     1       4.083  -0.109  -1.286  0.00  0.00    +0.062 C 
ATOM      3  C   UNL     1       3.773  -1.605  -1.164  0.00  0.00    +0.107 C 
ATOM      4  N   UNL     1       4.517  -2.148  -0.011  0.00  0.00    -0.307 N 
ATOM      5  C   UNL     1       4.509  -1.376   1.143  0.00  0.00    +0.215 A 
ATOM      6  N   UNL     1       4.084  -0.087   1.152  0.00  0.00    -0.223 N 
ATOM      7  N   UNL     1       4.213   0.368   2.465  0.00  0.00    -0.156 NA
ATOM      8  C   UNL     1       4.694  -0.629   3.165  0.00  0.00    +0.247 A 
ATOM      9  N   UNL     1       4.872  -1.689   2.357  0.00  0.00    -0.202 NA
ATOM     10  H   UNL     1       4.985  -2.997  -0.057  0.00  0.00    +0.149 HD
ENDROOT
BRANCH   3  11
ATOM     11  C   UNL     1       4.197  -2.314  -2.425  0.00  0.00    -0.009 A 
ATOM     12  C   UNL     1       5.392  -3.008  -2.458  0.00  0.00    +0.008 A 
ATOM     13  C   UNL     1       5.782  -3.659  -3.613  0.00  0.00    +0.020 A 
ATOM     14  C   UNL     1       4.977  -3.615  -4.737  0.00  0.00    +0.042 A 
ATOM     15  C   UNL     1       3.781  -2.921  -4.705  0.00  0.00    +0.040 A 
ATOM     16  C   UNL     1       3.389  -2.274  -3.546  0.00  0.00    +0.047 A 
ATOM     17 CL   UNL     1       1.885  -1.408  -3.502  0.00  0.00    -0.083 Cl
ATOM     18 CL   UNL     1       5.467  -4.432  -6.189  0.00  0.00    -0.083 Cl
ENDBRANCH   3  11
BRANCH   1  21
ATOM     19  C   UNL     1      -0.016   1.341   0.009  0.00  0.00    +0.041 A 
ATOM     20  C   UNL     1       1.331   1.769  -0.001  0.00  0.00    +0.047 A 
ATOM     21  C   UNL     1       2.092   0.660  -0.014  0.00  0.00    +0.129 A 
ATOM     22  O   UNL     1       1.282  -0.411  -0.012  0.00  0.00    -0.466 OA
ATOM     23  C   UNL     1       0.002  -0.004   0.002  0.00  0.00    +0.195 A 
ENDBRANCH   1  21
TORSDOF 2
