REMARK  Name = ZINC40986444
REMARK  7 active torsions:
REMARK  status: ('A' for Active; 'I' for Inactive)
REMARK    1  A    between atoms: C_1  and  C_2
REMARK    2  A    between atoms: C_5  and  C_8
REMARK    3  A    between atoms: C_8  and  C_10
REMARK    4  A    between atoms: C_8  and  N_27
REMARK    5  A    between atoms: C_10  and  N_11
REMARK    6  A    between atoms: C_12  and  C_14
REMARK    7  A    between atoms: C_16  and  C_19
REMARK                            x       y       z     vdW  Elec       q    Type
REMARK                         _______ _______ _______ _____ _____    ______ ____
ROOT
ATOM      1  N   UNL     1      -2.205  -4.393  -0.961  0.00  0.00    -0.311 N 
ATOM      2  C   UNL     1      -3.511  -4.721  -0.992  0.00  0.00    +0.266 C 
ATOM      3  O   UNL     1      -3.978  -5.437  -0.128  0.00  0.00    -0.268 OA
ATOM      4  H   UNL     1      -1.832  -3.821  -1.651  0.00  0.00    +0.149 HD
ENDROOT
BRANCH   2   5
ATOM      5  C   UNL     1      -4.380  -4.209  -2.080  0.00  0.00    +0.168 A 
ATOM      6  C   UNL     1      -5.760  -4.468  -2.231  0.00  0.00    +0.086 A 
ATOM      7  C   UNL     1      -6.186  -3.820  -3.348  0.00  0.00    +0.168 A 
ATOM      8  O   UNL     1      -5.131  -3.179  -3.884  0.00  0.00    -0.354 OA
ATOM      9  N   UNL     1      -4.002  -3.433  -3.067  0.00  0.00    -0.073 NA
BRANCH   7  10
ATOM     10  C   UNL     1      -7.565  -3.819  -3.880  0.00  0.00    +0.023 A 
ATOM     11  C   UNL     1      -8.571  -4.525  -3.218  0.00  0.00    +0.014 A 
ATOM     12  C   UNL     1      -9.857  -4.522  -3.717  0.00  0.00    +0.042 A 
ATOM     13  C   UNL     1     -10.152  -3.820  -4.875  0.00  0.00    +0.158 A 
ATOM     14  C   UNL     1      -9.156  -3.116  -5.537  0.00  0.00    +0.159 A 
ATOM     15  C   UNL     1      -7.867  -3.108  -5.042  0.00  0.00    +0.053 A 
ATOM     16  F   UNL     1      -9.450  -2.433  -6.665  0.00  0.00    -0.202 F 
ATOM     17  F   UNL     1     -11.413  -3.821  -5.359  0.00  0.00    -0.202 F 
ENDBRANCH   7  10
ENDBRANCH   2   5
BRANCH   1  18
ATOM     18  C   UNL     1      -1.347  -4.898   0.113  0.00  0.00    +0.094 C 
BRANCH  18  19
ATOM     19  C   UNL     1       0.045  -4.274  -0.009  0.00  0.00    -0.020 C 
BRANCH  19  24
ATOM     20  C   UNL     1      -0.311   1.419   0.913  0.00  0.00    +0.044 C 
ATOM     21  C   UNL     1      -0.218  -0.066   0.672  0.00  0.00    -0.050 A 
ATOM     22  C   UNL     1      -0.149  -0.554  -0.619  0.00  0.00    +0.003 A 
ATOM     23  C   UNL     1      -0.064  -1.916  -0.840  0.00  0.00    +0.002 A 
ATOM     24  C   UNL     1      -0.047  -2.790   0.231  0.00  0.00    -0.059 A 
ATOM     25  C   UNL     1      -0.115  -2.301   1.523  0.00  0.00    +0.002 A 
ATOM     26  C   UNL     1      -0.196  -0.939   1.743  0.00  0.00    +0.003 A 
ENDBRANCH  19  24
BRANCH  19  27
ATOM     27  N   UNL     1       0.941  -4.877   0.987  0.00  0.00    +0.385 N 
ATOM     28  C   UNL     1       1.104  -6.329   0.717  0.00  0.00    -0.078 C 
ATOM     29  C   UNL     1       2.435  -6.675   1.431  0.00  0.00    -0.020 C 
ATOM     30  C   UNL     1       3.300  -5.419   1.176  0.00  0.00    -0.020 C 
ATOM     31  C   UNL     1       2.295  -4.292   0.875  0.00  0.00    -0.078 C 
ATOM     32  H   UNL     1       0.575  -4.734   1.916  0.00  0.00    -0.081 HD
ENDBRANCH  19  27
ENDBRANCH  18  19
ENDBRANCH   1  18
TORSDOF 6
