REMARK  Name = ZINC17026677
REMARK  11 active torsions:
REMARK  status: ('A' for Active; 'I' for Inactive)
REMARK    1  A    between atoms: C_1  and  C_2
REMARK    2  A    between atoms: C_5  and  C_36
REMARK    3  A    between atoms: C_6  and  N_8
REMARK    4  A    between atoms: C_9  and  C_25
REMARK    5  A    between atoms: C_12  and  S_13
REMARK    6  A    between atoms: S_13  and  C_14
REMARK    7  A    between atoms: C_14  and  C_15
REMARK    8  A    between atoms: C_15  and  C_17
REMARK    9  A    between atoms: C_20  and  O_23
REMARK   10  A    between atoms: O_23  and  C_24
REMARK   11  A    between atoms: C_25  and  C_26
REMARK                            x       y       z     vdW  Elec       q    Type
REMARK                         _______ _______ _______ _____ _____    ______ ____
ROOT
ATOM      1  N   UNL     1       0.002  -0.004   0.002  0.00  0.00    -0.274 N 
ATOM      2  C   UNL     1       1.326  -0.355  -0.013  0.00  0.00    +0.144 A 
ATOM      3  N   UNL     1       2.019   0.748  -0.013  0.00  0.00    -0.133 NA
ATOM      4  N   UNL     1       1.234   1.765  -0.000  0.00  0.00    -0.122 NA
ATOM      5  C   UNL     1      -0.017   1.364   0.009  0.00  0.00    +0.197 A 
ENDROOT
BRANCH   1  11
ATOM      6  C   UNL     1      -3.362  -2.594  -2.482  0.00  0.00    +0.044 C 
ATOM      7  C   UNL     1      -2.753  -2.137  -1.182  0.00  0.00    -0.048 A 
ATOM      8  C   UNL     1      -3.286  -2.567   0.020  0.00  0.00    +0.004 A 
ATOM      9  C   UNL     1      -2.730  -2.150   1.215  0.00  0.00    +0.005 A 
ATOM     10  C   UNL     1      -1.641  -1.300   1.212  0.00  0.00    -0.026 A 
ATOM     11  C   UNL     1      -1.104  -0.867   0.008  0.00  0.00    +0.053 A 
ATOM     12  C   UNL     1      -1.667  -1.284  -1.191  0.00  0.00    +0.030 A 
ATOM     13  C   UNL     1      -1.036  -0.846   2.515  0.00  0.00    +0.046 C 
ENDBRANCH   1  11
BRANCH   5  14
ATOM     14  S   UNL     1      -1.447   2.393   0.022  0.00  0.00    -0.078 S 
BRANCH  14  15
ATOM     15  C   UNL     1      -0.661   4.023   0.027  0.00  0.00    +0.157 C 
BRANCH  15  16
ATOM     16  C   UNL     1      -1.723   5.092   0.038  0.00  0.00    +0.173 C 
ATOM     17  O   UNL     1      -2.896   4.782   0.042  0.00  0.00    -0.291 OA
BRANCH  16  18
ATOM     18  C   UNL     1      -1.338   6.510   0.044  0.00  0.00    +0.018 A 
ATOM     19  C   UNL     1       0.015   6.870   0.045  0.00  0.00    +0.015 A 
ATOM     20  C   UNL     1       0.369   8.195   0.046  0.00  0.00    +0.046 A 
ATOM     21  C   UNL     1      -0.613   9.180   0.056  0.00  0.00    +0.120 A 
ATOM     22  C   UNL     1      -1.958   8.827   0.060  0.00  0.00    +0.046 A 
ATOM     23  C   UNL     1      -2.323   7.505   0.054  0.00  0.00    +0.015 A 
BRANCH  21  24
ATOM     24  O   UNL     1      -0.258  10.489   0.061  0.00  0.00    -0.495 OA
ATOM     25  C   UNL     1       1.141  10.781   0.057  0.00  0.00    +0.277 C 
ENDBRANCH  21  24
ENDBRANCH  16  18
ENDBRANCH  15  16
ENDBRANCH  14  15
ENDBRANCH   5  14
BRANCH   2  26
ATOM     26  C   UNL     1       1.878  -1.758  -0.025  0.00  0.00    +0.130 C 
BRANCH  26  27
ATOM     27  C   UNL     1       2.048  -2.218  -1.450  0.00  0.00    +0.033 A 
ATOM     28  C   UNL     1       3.243  -2.088  -2.066  0.00  0.00    +0.091 A 
ATOM     29  C   UNL     1       3.378  -2.528  -3.405  0.00  0.00    +0.254 A 
ATOM     30  O   UNL     1       4.445  -2.422  -3.982  0.00  0.00    -0.268 OA
ATOM     31  N   UNL     1       2.314  -3.066  -4.036  0.00  0.00    -0.275 N 
ATOM     32  H   UNL     1       2.401  -3.379  -4.981  0.00  0.00    +0.173 HD
ATOM     33  C   UNL     1       1.135  -3.183  -3.397  0.00  0.00    +0.327 A 
ATOM     34  O   UNL     1       0.184  -3.670  -3.978  0.00  0.00    -0.247 OA
ATOM     35  N   UNL     1       0.995  -2.774  -2.123  0.00  0.00    -0.311 N 
ATOM     36  H   UNL     1       0.113  -2.878  -1.664  0.00  0.00    +0.170 HD
ENDBRANCH  26  27
ENDBRANCH   2  26
TORSDOF 8
