REMARK  Name = ZINC19324814
REMARK  8 active torsions:
REMARK  status: ('A' for Active; 'I' for Inactive)
REMARK    1  A    between atoms: C_4  and  O_35
REMARK    2  A    between atoms: C_5  and  C_7
REMARK    3  A    between atoms: C_7  and  N_8
REMARK    4  A    between atoms: N_11  and  C_27
REMARK    5  A    between atoms: C_12  and  C_13
REMARK    6  A    between atoms: C_14  and  O_26
REMARK    7  A    between atoms: C_27  and  C_28
REMARK    8  A    between atoms: C_33  and  O_34
REMARK                            x       y       z     vdW  Elec       q    Type
REMARK                         _______ _______ _______ _____ _____    ______ ____
ROOT
ATOM      1  N   UNL     1       0.968  -2.354   1.414  0.00  0.00    +0.376 N 
ATOM      2  C   UNL     1       2.246  -1.897   2.009  0.00  0.00    -0.099 C 
ATOM      3  C   UNL     1       2.733  -3.130   2.811  0.00  0.00    -0.099 C 
ATOM      4  N   UNL     1       2.311  -4.258   1.938  0.00  0.00    +0.376 N 
ATOM      5  C   UNL     1       1.012  -3.828   1.376  0.00  0.00    -0.095 C 
ATOM      6  H   UNL     1       0.193  -2.047   1.981  0.00  0.00    -0.083 HD
ATOM      7  H   UNL     1       2.983  -4.402   1.199  0.00  0.00    -0.083 HD
ENDROOT
BRANCH   5   8
ATOM      8  C   UNL     1       0.888  -4.306  -0.047  0.00  0.00    -0.025 A 
ATOM      9  C   UNL     1       1.942  -4.149  -0.927  0.00  0.00    +0.118 A 
ATOM     10  C   UNL     1       1.828  -4.590  -2.241  0.00  0.00    +0.049 A 
ATOM     11  C   UNL     1       0.667  -5.188  -2.682  0.00  0.00    +0.050 A 
ATOM     12  C   UNL     1      -0.403  -5.356  -1.813  0.00  0.00    +0.136 A 
ATOM     13  C   UNL     1      -0.288  -4.915  -0.482  0.00  0.00    +0.027 A 
ATOM     14  C   UNL     1      -1.567  -5.245   0.143  0.00  0.00    +0.002 A 
ATOM     15  C   UNL     1      -2.318  -5.836  -0.801  0.00  0.00    +0.109 A 
ATOM     16  O   UNL     1      -1.634  -5.892  -1.955  0.00  0.00    -0.459 OA
ATOM     17  C   UNL     1      -3.725  -6.335  -0.558  0.00  0.00    +0.075 C 
ATOM     18  C   UNL     1      -3.948  -6.444   0.954  0.00  0.00    +0.008 C 
ATOM     19  C   UNL     1      -3.531  -5.135   1.630  0.00  0.00    +0.005 C 
ATOM     20  C   UNL     1      -2.005  -4.993   1.561  0.00  0.00    +0.039 C 
BRANCH   9  21
ATOM     21  O   UNL     1       3.094  -3.560  -0.507  0.00  0.00    -0.507 OA
ATOM     22  H   UNL     1       3.780  -4.186  -0.237  0.00  0.00    +0.292 HD
ENDBRANCH   9  21
ENDBRANCH   5   8
BRANCH   1  23
ATOM     23  C   UNL     1       0.833  -1.823   0.051  0.00  0.00    -0.041 C 
BRANCH  23  28
ATOM     24  C   UNL     1      -0.968   1.494   0.161  0.00  0.00    +0.000 A 
ATOM     25  C   UNL     1       0.088   2.383   0.227  0.00  0.00    +0.004 A 
ATOM     26  C   UNL     1       1.388   1.915   0.237  0.00  0.00    +0.045 A 
ATOM     27  C   UNL     1       1.633   0.550   0.180  0.00  0.00    +0.118 A 
ATOM     28  C   UNL     1       0.571  -0.340   0.113  0.00  0.00    -0.023 A 
ATOM     29  C   UNL     1      -0.727   0.134   0.104  0.00  0.00    +0.005 A 
BRANCH  27  30
ATOM     30  O   UNL     1       2.910   0.087   0.189  0.00  0.00    -0.507 OA
ATOM     31  H   UNL     1       3.293   0.008   1.074  0.00  0.00    +0.292 HD
ENDBRANCH  27  30
ENDBRANCH  23  28
ENDBRANCH   1  23
BRANCH   4  32
ATOM     32  C   UNL     1       2.146  -5.484   2.730  0.00  0.00    -0.041 C 
BRANCH  32  33
ATOM     33  C   UNL     1       3.487  -5.926   3.257  0.00  0.00    -0.023 A 
ATOM     34  C   UNL     1       4.218  -6.881   2.575  0.00  0.00    +0.005 A 
ATOM     35  C   UNL     1       5.448  -7.287   3.058  0.00  0.00    +0.000 A 
ATOM     36  C   UNL     1       5.951  -6.738   4.224  0.00  0.00    +0.004 A 
ATOM     37  C   UNL     1       5.225  -5.783   4.909  0.00  0.00    +0.045 A 
ATOM     38  C   UNL     1       3.992  -5.370   4.423  0.00  0.00    +0.118 A 
BRANCH  38  39
ATOM     39  O   UNL     1       3.278  -4.427   5.092  0.00  0.00    -0.507 OA
ATOM     40  H   UNL     1       2.677  -4.788   5.758  0.00  0.00    +0.292 HD
ENDBRANCH  38  39
ENDBRANCH  32  33
ENDBRANCH   4  32
TORSDOF 8
