REMARK  Name = ZINC39324980
REMARK  7 active torsions:
REMARK  status: ('A' for Active; 'I' for Inactive)
REMARK    1  A    between atoms: C_1  and  C_2
REMARK    2  A    between atoms: C_2  and  C_3
REMARK    3  A    between atoms: C_3  and  C_4
REMARK    4  A    between atoms: C_4  and  C_5
REMARK    5  A    between atoms: C_7  and  C_19
REMARK    6  A    between atoms: C_9  and  C_17
REMARK    7  A    between atoms: C_10  and  N_16
REMARK                            x       y       z     vdW  Elec       q    Type
REMARK                         _______ _______ _______ _____ _____    ______ ____
ROOT
ATOM      1  C   UNL     1      -2.826  -2.585   0.015  0.00  0.00    +0.069 C 
ATOM      2  C   UNL     1      -3.505  -2.932  -1.052  0.00  0.00    +0.030 C 
ATOM      3  C   UNL     1      -3.149  -3.073  -2.506  0.00  0.00    +0.100 C 
ATOM      4  C   UNL     1      -3.823  -4.352  -2.968  0.00  0.00    +0.098 C 
ATOM      5  C   UNL     1      -4.702  -5.013  -2.185  0.00  0.00    +0.195 C 
ATOM      6  O   UNL     1      -5.077  -4.678  -0.938  0.00  0.00    -0.448 OA
ATOM      7  C   UNL     1      -4.891  -3.319  -0.534  0.00  0.00    +0.343 C 
ATOM      8  N   UNL     1      -4.721  -3.189   0.917  0.00  0.00    -0.138 NA
ATOM      9  N   UNL     1      -3.577  -2.769   1.131  0.00  0.00    -0.155 NA
ENDROOT
BRANCH   3  10
ATOM     10  C   UNL     1      -1.655  -3.180  -2.669  0.00  0.00    +0.000 A 
ATOM     11  C   UNL     1      -0.968  -4.220  -2.070  0.00  0.00    +0.010 A 
ATOM     12  C   UNL     1       0.403  -4.319  -2.219  0.00  0.00    +0.039 A 
ATOM     13  C   UNL     1       1.089  -3.378  -2.967  0.00  0.00    +0.126 A 
ATOM     14  C   UNL     1       0.402  -2.337  -3.567  0.00  0.00    +0.077 A 
ATOM     15  C   UNL     1      -0.971  -2.241  -3.422  0.00  0.00    +0.130 A 
ATOM     16  F   UNL     1      -1.644  -1.228  -4.012  0.00  0.00    -0.205 F 
ATOM     17  F   UNL     1       2.429  -3.475  -3.111  0.00  0.00    -0.205 F 
ENDBRANCH   3  10
BRANCH   5  18
ATOM     18  N   UNL     1      -5.272  -6.141  -2.717  0.00  0.00    -0.329 N 
ATOM     19  H   UNL     1      -5.037  -6.428  -3.614  0.00  0.00    +0.145 HD
ATOM     20  H   UNL     1      -5.911  -6.654  -2.197  0.00  0.00    +0.145 HD
ENDBRANCH   5  18
BRANCH   4  21
ATOM     21  C   UNL     1      -3.518  -4.872  -4.267  0.00  0.00    +0.101 C 
ATOM     22  N   UNL     1      -3.276  -5.284  -5.297  0.00  0.00    -0.191 NA
ENDBRANCH   4  21
BRANCH   1  23
ATOM     23  C   UNL     1      -1.413  -2.063   0.004  0.00  0.00    +0.057 C 
BRANCH  23  24
ATOM     24  C   UNL     1      -1.433  -0.534   0.013  0.00  0.00    +0.006 C 
BRANCH  24  26
ATOM     25  C   UNL     1      -0.019   1.526   0.010  0.00  0.00    +0.004 C 
ATOM     26  C   UNL     1       0.002  -0.004   0.002  0.00  0.00    -0.003 C 
ENDBRANCH  24  26
ENDBRANCH  23  24
ENDBRANCH   1  23
TORSDOF 6
