REMARK  Name = ZINC19995227
REMARK  10 active torsions:
REMARK  status: ('A' for Active; 'I' for Inactive)
REMARK    1  A    between atoms: C_1  and  C_2
REMARK    2  A    between atoms: C_7  and  N_8
REMARK    3  A    between atoms: C_12  and  N_13
REMARK    4  A    between atoms: N_13  and  C_14
REMARK    5  A    between atoms: C_14  and  C_15
REMARK    6  A    between atoms: C_15  and  N_16
REMARK    7  A    between atoms: N_16  and  C_17
REMARK    8  A    between atoms: N_16  and  C_18
REMARK    9  A    between atoms: N_21  and  C_24
REMARK   10  A    between atoms: C_29  and  C_30
REMARK                            x       y       z     vdW  Elec       q    Type
REMARK                         _______ _______ _______ _____ _____    ______ ____
ROOT
ATOM      1  N   UNL     1       2.584   3.578   0.008  0.00  0.00    -0.217 N 
ATOM      2  C   UNL     1       3.009   4.106  -1.158  0.00  0.00    +0.263 C 
ATOM      3  O   UNL     1       2.343   4.002  -2.171  0.00  0.00    -0.269 OA
ATOM      4  C   UNL     1       4.303   4.811  -1.173  0.00  0.00    +0.113 C 
ATOM      5  C   UNL     1       4.803   5.378  -2.330  0.00  0.00    +0.085 C 
ATOM      6  C   UNL     1       5.041   4.887   0.101  0.00  0.00    +0.263 C 
ATOM      7  O   UNL     1       6.116   5.453   0.168  0.00  0.00    -0.269 OA
ATOM      8  N   UNL     1       4.492   4.312   1.191  0.00  0.00    -0.217 N 
ATOM      9  C   UNL     1       3.306   3.689   1.132  0.00  0.00    +0.158 C 
ATOM     10  S   UNL     1       2.683   2.994   2.567  0.00  0.00    -0.017 S 
ENDROOT
BRANCH   1  17
ATOM     11  C   UNL     1       0.240   5.082   0.595  0.00  0.00    +0.045 C 
ATOM     12  C   UNL     1       0.189   3.599   0.329  0.00  0.00    -0.029 A 
ATOM     13  C   UNL     1      -1.019   2.931   0.367  0.00  0.00    +0.005 A 
ATOM     14  C   UNL     1      -1.067   1.572   0.119  0.00  0.00    +0.000 A 
ATOM     15  C   UNL     1       0.095   0.875  -0.157  0.00  0.00    +0.002 A 
ATOM     16  C   UNL     1       1.306   1.537  -0.197  0.00  0.00    +0.024 A 
ATOM     17  C   UNL     1       1.357   2.903   0.047  0.00  0.00    +0.046 A 
ENDBRANCH   1  17
BRANCH   8  18
ATOM     18  C   UNL     1       5.174   4.370   2.413  0.00  0.00    +0.046 A 
ATOM     19  C   UNL     1       4.958   5.434   3.280  0.00  0.00    +0.024 A 
ATOM     20  C   UNL     1       5.628   5.485   4.487  0.00  0.00    +0.002 A 
ATOM     21  C   UNL     1       6.522   4.486   4.827  0.00  0.00    +0.000 A 
ATOM     22  C   UNL     1       6.743   3.430   3.963  0.00  0.00    +0.005 A 
ATOM     23  C   UNL     1       6.072   3.369   2.757  0.00  0.00    -0.029 A 
ATOM     24  C   UNL     1       6.314   2.216   1.817  0.00  0.00    +0.045 C 
ENDBRANCH   8  18
BRANCH   5  25
ATOM     25  N   UNL     1       5.904   6.155  -2.280  0.00  0.00    -0.351 N 
ATOM     26  H   UNL     1       6.351   6.412  -1.309  0.00  0.00    +0.145 HD
BRANCH  25  27
ATOM     27  C   UNL     1       6.504   6.656  -3.519  0.00  0.00    +0.082 C 
BRANCH  27  28
ATOM     28  C   UNL     1       7.732   7.505  -3.183  0.00  0.00    -0.061 C 
BRANCH  28  29
ATOM     29  N   UNL     1       8.334   8.008  -4.426  0.00  0.00    +0.377 N 
ATOM     30  C   UNL     1       9.366   9.014  -4.141  0.00  0.00    -0.097 C 
ATOM     31  C   UNL     1       8.880   6.906  -5.229  0.00  0.00    -0.097 C 
ATOM     32  H   UNL     1       7.541   8.493  -5.013  0.00  0.00    -0.083 HD
ENDBRANCH  28  29
ENDBRANCH  27  28
ENDBRANCH  25  27
ENDBRANCH   5  25
TORSDOF 6
