REMARK  Name = ZINC39876212
REMARK  8 active torsions:
REMARK  status: ('A' for Active; 'I' for Inactive)
REMARK    1  A    between atoms: C_1  and  C_2
REMARK    2  A    between atoms: C_2  and  O_3
REMARK    3  A    between atoms: O_3  and  C_4
REMARK    4  A    between atoms: C_6  and  C_11
REMARK    5  A    between atoms: C_9  and  O_10
REMARK    6  A    between atoms: N_26  and  C_27
REMARK    7  A    between atoms: C_30  and  O_34
REMARK    8  A    between atoms: O_34  and  C_35
REMARK                            x       y       z     vdW  Elec       q    Type
REMARK                         _______ _______ _______ _____ _____    ______ ____
ROOT
ATOM      1  C   UNL     1      -0.229  -4.969   0.477  0.00  0.00    +0.150 C 
ATOM      2  C   UNL     1      -1.522  -5.536  -0.009  0.00  0.00    +0.072 A 
ATOM      3  C   UNL     1      -2.786  -4.888  -0.372  0.00  0.00    +0.199 A 
ATOM      4  O   UNL     1      -2.908  -3.681  -0.487  0.00  0.00    -0.287 OA
ATOM      5  C   UNL     1      -3.903  -5.842  -0.587  0.00  0.00    +0.067 A 
ATOM      6  C   UNL     1      -5.209  -5.377  -0.741  0.00  0.00    +0.053 A 
ATOM      7  C   UNL     1      -6.235  -6.277  -0.935  0.00  0.00    +0.124 A 
ATOM      8  C   UNL     1      -5.965  -7.641  -0.976  0.00  0.00    +0.042 A 
ATOM      9  C   UNL     1      -4.680  -8.110  -0.826  0.00  0.00    +0.050 A 
ATOM     10  C   UNL     1      -3.625  -7.218  -0.632  0.00  0.00    +0.140 A 
ATOM     11  O   UNL     1      -2.370  -7.707  -0.498  0.00  0.00    -0.450 OA
ATOM     12  C   UNL     1      -1.379  -6.893  -0.084  0.00  0.00    +0.199 A 
ATOM     13  C   UNL     1      -0.016  -7.239   0.352  0.00  0.00    +0.287 C 
ATOM     14  O   UNL     1       0.432  -8.367   0.407  0.00  0.00    -0.266 OA
ATOM     15  N   UNL     1       0.665  -6.120   0.682  0.00  0.00    -0.253 N 
ATOM     16  F   UNL     1      -7.502  -5.835  -1.085  0.00  0.00    -0.205 F 
ENDROOT
BRANCH  15  17
ATOM     17  C   UNL     1       1.987  -6.064   1.137  0.00  0.00    +0.039 A 
ATOM     18  C   UNL     1       2.564  -4.839   1.446  0.00  0.00    +0.027 A 
ATOM     19  C   UNL     1       3.869  -4.784   1.895  0.00  0.00    +0.049 A 
ATOM     20  C   UNL     1       4.603  -5.952   2.039  0.00  0.00    +0.138 A 
ATOM     21  C   UNL     1       4.027  -7.177   1.731  0.00  0.00    +0.084 A 
ATOM     22  C   UNL     1       2.720  -7.234   1.286  0.00  0.00    +0.047 A 
ATOM     23 CL   UNL     1       4.948  -8.638   1.910  0.00  0.00    -0.080 Cl
BRANCH  20  24
ATOM     24  O   UNL     1       5.888  -5.897   2.481  0.00  0.00    -0.494 OA
ATOM     25  C   UNL     1       6.417  -4.603   2.778  0.00  0.00    +0.277 C 
ENDBRANCH  20  24
ENDBRANCH  15  17
BRANCH   1  28
ATOM     26  C   UNL     1       0.777  -1.811  -1.336  0.00  0.00    +0.162 A 
ATOM     27  C   UNL     1       0.243  -2.669  -0.388  0.00  0.00    +0.055 A 
ATOM     28  C   UNL     1       0.352  -4.037  -0.555  0.00  0.00    -0.018 A 
ATOM     29  C   UNL     1       0.992  -4.552  -1.667  0.00  0.00    +0.009 A 
ATOM     30  C   UNL     1       1.526  -3.702  -2.616  0.00  0.00    +0.049 A 
ATOM     31  C   UNL     1       1.416  -2.330  -2.458  0.00  0.00    +0.158 A 
BRANCH  31  32
ATOM     32  O   UNL     1       1.936  -1.492  -3.394  0.00  0.00    -0.503 OA
ATOM     33  H   UNL     1       2.856  -1.241  -3.231  0.00  0.00    +0.292 HD
ENDBRANCH  31  32
BRANCH  26  34
ATOM     34  O   UNL     1       0.671  -0.465  -1.174  0.00  0.00    -0.489 OA
BRANCH  34  36
ATOM     35  C   UNL     1      -0.019   1.526   0.010  0.00  0.00    +0.048 C 
ATOM     36  C   UNL     1       0.002  -0.004   0.002  0.00  0.00    +0.226 C 
ENDBRANCH  34  36
ENDBRANCH  26  34
ENDBRANCH   1  28
TORSDOF 6
