REMARK  Name = ZINC40134954
REMARK  5 active torsions:
REMARK  status: ('A' for Active; 'I' for Inactive)
REMARK    1  A    between atoms: C_1  and  C_2
REMARK    2  A    between atoms: C_2  and  C_4
REMARK    3  A    between atoms: C_2  and  S_20
REMARK    4  A    between atoms: N_6  and  C_7
REMARK    5  A    between atoms: S_20  and  C_21
REMARK                            x       y       z     vdW  Elec       q    Type
REMARK                         _______ _______ _______ _____ _____    ______ ____
ROOT
ATOM      1  C   UNL     1       2.756  -0.959  -2.405  0.00  0.00    +0.037 A 
ATOM      2  C   UNL     1       2.072  -1.203  -3.589  0.00  0.00    +0.027 A 
ATOM      3  C   UNL     1       2.766  -1.557  -4.731  0.00  0.00    +0.051 A 
ATOM      4  C   UNL     1       4.144  -1.668  -4.697  0.00  0.00    +0.167 A 
ATOM      5  C   UNL     1       4.835  -1.422  -3.510  0.00  0.00    +0.169 A 
ATOM      6  C   UNL     1       4.140  -1.064  -2.369  0.00  0.00    +0.072 A 
ATOM      7  O   UNL     1       6.174  -1.596  -3.747  0.00  0.00    -0.447 OA
ATOM      8  C   UNL     1       6.212  -2.416  -4.924  0.00  0.00    +0.254 C 
ATOM      9  O   UNL     1       5.058  -1.995  -5.666  0.00  0.00    -0.448 OA
ATOM     10  C   UNL     1       6.134  -3.904  -4.568  0.00  0.00    +0.093 C 
ATOM     11  C   UNL     1       7.030  -4.590  -5.633  0.00  0.00    +0.008 C 
ATOM     12  C   UNL     1       8.186  -3.575  -5.818  0.00  0.00    +0.008 C 
ATOM     13  C   UNL     1       7.499  -2.194  -5.718  0.00  0.00    +0.093 C 
ENDROOT
BRANCH   1  16
ATOM     14  C   UNL     1       2.499  -0.988  -0.039  0.00  0.00    +0.230 C 
ATOM     15  O   UNL     1       3.458  -1.726   0.045  0.00  0.00    -0.274 OA
ATOM     16  N   UNL     1       2.051  -0.601  -1.250  0.00  0.00    -0.284 N 
ATOM     17  H   UNL     1       1.239  -0.073  -1.320  0.00  0.00    +0.155 HD
BRANCH  14  19
ATOM     18  C   UNL     1       0.620  -1.415   1.522  0.00  0.00    +0.029 C 
ATOM     19  C   UNL     1       1.809  -0.504   1.210  0.00  0.00    +0.136 C 
BRANCH  19  20
ATOM     20  S   UNL     1       2.977  -0.539   2.598  0.00  0.00    -0.085 S 
BRANCH  20  21
ATOM     21  C   UNL     1       2.078   0.184   3.930  0.00  0.00    +0.159 A 
ATOM     22  N   UNL     1       0.837   0.653   3.967  0.00  0.00    -0.135 NA
ATOM     23  N   UNL     1       0.344   1.144   5.019  0.00  0.00    -0.149 NA
ATOM     24  C   UNL     1       1.025   1.223   6.144  0.00  0.00    +0.182 A 
ATOM     25  S   UNL     1       2.574   0.490   5.623  0.00  0.00    -0.048 S 
ENDBRANCH  20  21
ENDBRANCH  19  20
ENDBRANCH  14  19
ENDBRANCH   1  16
TORSDOF 4
