REMARK  Name = ZINC44842026
REMARK  9 active torsions:
REMARK  status: ('A' for Active; 'I' for Inactive)
REMARK    1  A    between atoms: C_1  and  C_2
REMARK    2  A    between atoms: C_2  and  C_3
REMARK    3  A    between atoms: C_2  and  C_4
REMARK    4  A    between atoms: C_2  and  O_5
REMARK    5  A    between atoms: O_5  and  C_6
REMARK    6  A    between atoms: C_11  and  N_14
REMARK    7  A    between atoms: N_14  and  C_15
REMARK    8  A    between atoms: C_18  and  C_24
REMARK    9  A    between atoms: C_20  and  N_21
REMARK                            x       y       z     vdW  Elec       q    Type
REMARK                         _______ _______ _______ _____ _____    ______ ____
ROOT
ATOM      1  N   UNL     1       5.186  -3.290  -4.173  0.00  0.00    -0.339 N 
ATOM      2  H   UNL     1       5.032  -4.094  -3.652  0.00  0.00    +0.146 HD
ENDROOT
BRANCH   1   8
ATOM      3  C   UNL     1       1.787   0.034  -1.629  0.00  0.00    +0.403 C 
ATOM      4  O   UNL     1       2.272   0.893  -0.919  0.00  0.00    -0.226 OA
ATOM      5  N   UNL     1       2.488  -0.453  -2.672  0.00  0.00    -0.267 N 
ATOM      6  C   UNL     1       1.912  -1.487  -3.543  0.00  0.00    +0.113 C 
ATOM      7  C   UNL     1       2.886  -2.666  -3.619  0.00  0.00    +0.041 C 
ATOM      8  C   UNL     1       4.259  -2.160  -4.067  0.00  0.00    +0.073 C 
ATOM      9  C   UNL     1       4.794  -1.157  -3.043  0.00  0.00    +0.041 C 
ATOM     10  C   UNL     1       3.839   0.044  -2.964  0.00  0.00    +0.113 C 
BRANCH   3  11
ATOM     11  O   UNL     1       0.549  -0.430  -1.373  0.00  0.00    -0.445 OA
BRANCH  11  13
ATOM     12  C   UNL     1      -0.296   1.639  -0.455  0.00  0.00    +0.055 C 
ATOM     13  C   UNL     1      -0.135   0.131  -0.252  0.00  0.00    +0.107 C 
ATOM     14  C   UNL     1       0.672  -0.129   1.022  0.00  0.00    +0.055 C 
ATOM     15  C   UNL     1      -1.516  -0.515  -0.121  0.00  0.00    +0.055 C 
ENDBRANCH  11  13
ENDBRANCH   3  11
ENDBRANCH   1   8
BRANCH   1  16
ATOM     16  C   UNL     1       6.284  -3.211  -5.020  0.00  0.00    +0.058 A 
ATOM     17  C   UNL     1       6.573  -2.015  -5.672  0.00  0.00    +0.026 A 
ATOM     18  C   UNL     1       7.652  -1.933  -6.506  0.00  0.00    +0.017 A 
ATOM     19  C   UNL     1       8.467  -3.054  -6.704  0.00  0.00    +0.065 A 
ATOM     20  C   UNL     1       8.174  -4.254  -6.046  0.00  0.00    +0.049 A 
ATOM     21  C   UNL     1       7.096  -4.327  -5.211  0.00  0.00    +0.148 A 
BRANCH  21  22
ATOM     22  N   UNL     1       6.787  -5.594  -4.511  0.00  0.00    +0.058 N 
ATOM     23  O   UNL     1       7.684  -6.290  -4.096  0.00  0.00    -0.126 OA
ATOM     24  O   UNL     1       5.637  -5.933  -4.354  0.00  0.00    -0.126 OA
ENDBRANCH  21  22
BRANCH  19  25
ATOM     25  C   UNL     1       9.630  -2.970  -7.601  0.00  0.00    +0.387 C 
ATOM     26  O   UNL     1       9.886  -1.921  -8.176  0.00  0.00    -0.241 OA
ATOM     27  O   UNL     1      10.342  -3.951  -7.774  0.00  0.00    -0.241 OA
ENDBRANCH  19  25
ENDBRANCH   1  16
TORSDOF 6
