REMARK  Name = ZINC67211611
REMARK  12 active torsions:
REMARK  status: ('A' for Active; 'I' for Inactive)
REMARK    1  A    between atoms: C_1  and  C_2
REMARK    2  A    between atoms: C_2  and  C_4
REMARK    3  A    between atoms: C_2  and  N_21
REMARK    4  A    between atoms: N_6  and  C_7
REMARK    5  A    between atoms: C_7  and  C_9
REMARK    6  A    between atoms: C_7  and  C_17
REMARK    7  A    between atoms: N_19  and  C_20
REMARK    8  A    between atoms: C_22  and  O_24
REMARK    9  A    between atoms: O_24  and  C_25
REMARK   10  A    between atoms: C_25  and  C_26
REMARK   11  A    between atoms: C_25  and  C_27
REMARK   12  A    between atoms: C_25  and  C_28
REMARK                            x       y       z     vdW  Elec       q    Type
REMARK                         _______ _______ _______ _____ _____    ______ ____
ROOT
ATOM      1  C   UNL     1       0.707  -0.490  -1.238  0.00  0.00    +0.234 C 
ATOM      2  O   UNL     1       0.120  -1.191  -2.034  0.00  0.00    -0.274 OA
ATOM      3  N   UNL     1       1.991  -0.146  -1.462  0.00  0.00    -0.299 N 
ATOM      4  H   UNL     1       2.461   0.415  -0.825  0.00  0.00    +0.150 HD
ENDROOT
BRANCH   1   6
ATOM      5  C   UNL     1      -0.019   1.526   0.010  0.00  0.00    +0.038 C 
ATOM      6  C   UNL     1       0.002  -0.004   0.002  0.00  0.00    +0.159 C 
BRANCH   6   7
ATOM      7  N   UNL     1      -1.372  -0.511   0.012  0.00  0.00    -0.270 N 
ATOM      8  C   UNL     1      -2.029  -0.655   1.181  0.00  0.00    +0.401 C 
ATOM      9  O   UNL     1      -1.480  -0.364   2.225  0.00  0.00    -0.226 OA
ATOM     10  H   UNL     1      -1.810  -0.743  -0.822  0.00  0.00    +0.153 HD
BRANCH   8  11
ATOM     11  O   UNL     1      -3.292  -1.121   1.190  0.00  0.00    -0.445 OA
BRANCH  11  12
ATOM     12  C   UNL     1      -3.927  -1.248   2.464  0.00  0.00    +0.107 C 
ATOM     13  C   UNL     1      -3.989   0.122   3.142  0.00  0.00    +0.055 C 
ATOM     14  C   UNL     1      -5.346  -1.789   2.275  0.00  0.00    +0.055 C 
ATOM     15  C   UNL     1      -3.125  -2.215   3.339  0.00  0.00    +0.055 C 
ENDBRANCH  11  12
ENDBRANCH   8  11
ENDBRANCH   6   7
ENDBRANCH   1   6
BRANCH   3  16
ATOM     16  C   UNL     1       2.677  -0.618  -2.667  0.00  0.00    +0.190 C 
BRANCH  16  17
ATOM     17  C   UNL     1       4.163  -0.650  -2.419  0.00  0.00    -0.016 A 
ATOM     18  C   UNL     1       4.765   0.365  -1.699  0.00  0.00    +0.009 A 
ATOM     19  C   UNL     1       6.128   0.338  -1.471  0.00  0.00    +0.041 A 
ATOM     20  C   UNL     1       6.892  -0.706  -1.963  0.00  0.00    +0.158 A 
ATOM     21  C   UNL     1       6.288  -1.724  -2.686  0.00  0.00    +0.159 A 
ATOM     22  C   UNL     1       4.922  -1.697  -2.908  0.00  0.00    +0.047 A 
ATOM     23  F   UNL     1       7.031  -2.744  -3.168  0.00  0.00    -0.202 F 
ATOM     24  F   UNL     1       8.224  -0.733  -1.741  0.00  0.00    -0.202 F 
ENDBRANCH  16  17
BRANCH  16  25
ATOM     25  C   UNL     1       2.378   0.314  -3.813  0.00  0.00    +0.238 C 
ATOM     26  O   UNL     1       1.663   1.278  -3.639  0.00  0.00    -0.273 OA
ATOM     27  N   UNL     1       2.906   0.076  -5.030  0.00  0.00    -0.317 N 
ATOM     28  C   UNL     1       2.616   0.983  -6.144  0.00  0.00    +0.128 C 
ATOM     29  H   UNL     1       3.478  -0.695  -5.168  0.00  0.00    +0.148 HD
ENDBRANCH  16  25
ENDBRANCH   3  16
TORSDOF 7
