REMARK  Name = ZINC22679537
REMARK  7 active torsions:
REMARK  status: ('A' for Active; 'I' for Inactive)
REMARK    1  A    between atoms: C_4  and  C_7
REMARK    2  A    between atoms: C_7  and  C_8
REMARK    3  A    between atoms: C_7  and  N_14
REMARK    4  A    between atoms: N_17  and  C_18
REMARK    5  A    between atoms: C_18  and  C_19
REMARK    6  A    between atoms: C_19  and  C_21
REMARK    7  A    between atoms: C_19  and  N_26
REMARK                            x       y       z     vdW  Elec       q    Type
REMARK                         _______ _______ _______ _____ _____    ______ ____
ROOT
ATOM      1  N   UNL     1      -5.019   3.558  -2.736  0.00  0.00    -0.289 N 
ATOM      2  C   UNL     1      -3.874   2.851  -2.665  0.00  0.00    +0.300 C 
ATOM      3  O   UNL     1      -3.486   2.225  -3.632  0.00  0.00    -0.253 OA
ATOM      4  N   UNL     1      -3.159   2.838  -1.522  0.00  0.00    -0.301 N 
ATOM      5  H   UNL     1      -5.371   4.125  -1.861  0.00  0.00    +0.151 HD
ATOM      6  H   UNL     1      -3.511   3.405  -0.648  0.00  0.00    +0.150 HD
ENDROOT
BRANCH   1   7
ATOM      7  C   UNL     1      -5.796   3.572  -3.978  0.00  0.00    +0.135 C 
BRANCH   7  11
ATOM      8  C   UNL     1      -8.372   0.166  -4.085  0.00  0.00    +0.000 A 
ATOM      9  C   UNL     1      -7.723   0.578  -5.234  0.00  0.00    +0.000 A 
ATOM     10  C   UNL     1      -6.890   1.681  -5.199  0.00  0.00    +0.006 A 
ATOM     11  C   UNL     1      -6.705   2.370  -4.016  0.00  0.00    -0.023 A 
ATOM     12  C   UNL     1      -7.349   1.955  -2.865  0.00  0.00    +0.006 A 
ATOM     13  C   UNL     1      -8.186   0.856  -2.901  0.00  0.00    +0.000 A 
ENDBRANCH   7  11
BRANCH   7  14
ATOM     14  C   UNL     1      -6.624   4.830  -4.039  0.00  0.00    -0.023 A 
ATOM     15  C   UNL     1      -7.247   5.303  -2.900  0.00  0.00    +0.006 A 
ATOM     16  C   UNL     1      -8.003   6.459  -2.954  0.00  0.00    +0.000 A 
ATOM     17  C   UNL     1      -8.142   7.138  -4.151  0.00  0.00    +0.000 A 
ATOM     18  C   UNL     1      -7.523   6.662  -5.291  0.00  0.00    +0.000 A 
ATOM     19  C   UNL     1      -6.764   5.508  -5.235  0.00  0.00    +0.006 A 
ENDBRANCH   7  14
ENDBRANCH   1   7
BRANCH   4  20
ATOM     20  C   UNL     1      -1.915   2.070  -1.446  0.00  0.00    +0.095 C 
BRANCH  20  21
ATOM     21  C   UNL     1      -1.391   2.090  -0.008  0.00  0.00    -0.020 C 
BRANCH  21  22
ATOM     22  N   UNL     1      -2.304   1.329   0.856  0.00  0.00    +0.385 N 
ATOM     23  C   UNL     1      -3.672   1.892   0.809  0.00  0.00    -0.078 C 
ATOM     24  C   UNL     1      -4.573   1.326   1.872  0.00  0.00    -0.019 C 
ATOM     25  C   UNL     1      -4.530   2.261   3.099  0.00  0.00    -0.002 C 
ATOM     26  C   UNL     1      -3.328   2.064   3.900  0.00  0.00    -0.002 C 
ATOM     27  C   UNL     1      -2.041   2.361   3.102  0.00  0.00    -0.019 C 
ATOM     28  C   UNL     1      -1.744   1.180   2.218  0.00  0.00    -0.078 C 
ATOM     29  H   UNL     1      -2.394   0.305   0.463  0.00  0.00    -0.081 HD
ENDBRANCH  21  22
BRANCH  21  30
ATOM     30  C   UNL     1      -0.020   1.465   0.036  0.00  0.00    -0.052 A 
ATOM     31  C   UNL     1       1.111   2.258   0.064  0.00  0.00    +0.009 A 
ATOM     32  C   UNL     1       2.329   1.665   0.098  0.00  0.00    +0.045 A 
ATOM     33  S   UNL     1       1.897  -0.067   0.090  0.00  0.00    -0.105 S 
ATOM     34  C   UNL     1       0.121   0.117   0.043  0.00  0.00    +0.047 A 
ENDBRANCH  21  30
ENDBRANCH  20  21
ENDBRANCH   4  20
TORSDOF 7
