REMARK  Name = ZINC16144013
REMARK  17 active torsions:
REMARK  status: ('A' for Active; 'I' for Inactive)
REMARK    1  A    between atoms: C_1  and  C_2
REMARK    2  A    between atoms: C_5  and  S_8
REMARK    3  A    between atoms: S_8  and  N_11
REMARK    4  A    between atoms: N_11  and  C_12
REMARK    5  A    between atoms: C_12  and  C_14
REMARK    6  A    between atoms: C_12  and  C_18
REMARK    7  A    between atoms: C_14  and  C_15
REMARK    8  A    between atoms: C_15  and  C_16
REMARK    9  A    between atoms: C_15  and  C_17
REMARK   10  A    between atoms: N_20  and  C_21
REMARK   11  A    between atoms: C_21  and  C_22
REMARK   12  A    between atoms: C_22  and  C_23
REMARK   13  A    between atoms: C_25  and  O_34
REMARK   14  A    between atoms: C_26  and  O_32
REMARK   15  A    between atoms: C_28  and  N_29
REMARK   16  A    between atoms: O_32  and  C_33
REMARK   17  A    between atoms: O_34  and  C_35
REMARK                            x       y       z     vdW  Elec       q    Type
REMARK                         _______ _______ _______ _____ _____    ______ ____
ROOT
ATOM      1  C   UNL     1       3.324  -3.649   0.895  0.00  0.00    +0.232 C 
ATOM      2  O   UNL     1       3.244  -3.549  -0.311  0.00  0.00    -0.274 OA
ATOM      3  N   UNL     1       4.480  -3.350   1.520  0.00  0.00    -0.314 N 
ATOM      4  H   UNL     1       4.566  -3.494   2.475  0.00  0.00    +0.149 HD
ENDROOT
BRANCH   1   5
ATOM      5  C   UNL     1       2.132  -4.109   1.694  0.00  0.00    +0.162 C 
BRANCH   5   6
ATOM      6  N   UNL     1       0.912  -3.916   0.906  0.00  0.00    -0.178 NA
ATOM      7  H   UNL     1       0.927  -4.057  -0.054  0.00  0.00    +0.149 HD
BRANCH   6   8
ATOM      8  S   UNL     1      -0.492  -3.455   1.653  0.00  0.00    +0.059 S 
ATOM      9  O   UNL     1      -0.679  -4.343   2.747  0.00  0.00    -0.153 OA
ATOM     10  O   UNL     1      -1.463  -3.294   0.628  0.00  0.00    -0.153 OA
BRANCH   8  15
ATOM     11  C   UNL     1       0.450   2.016   4.015  0.00  0.00    +0.044 C 
ATOM     12  C   UNL     1       0.215   0.650   3.425  0.00  0.00    -0.050 A 
ATOM     13  C   UNL     1      -0.269   0.527   2.136  0.00  0.00    +0.005 A 
ATOM     14  C   UNL     1      -0.485  -0.727   1.595  0.00  0.00    +0.029 A 
ATOM     15  C   UNL     1      -0.216  -1.858   2.342  0.00  0.00    +0.105 A 
ATOM     16  C   UNL     1       0.268  -1.735   3.631  0.00  0.00    +0.029 A 
ATOM     17  C   UNL     1       0.488  -0.482   4.171  0.00  0.00    +0.005 A 
ENDBRANCH   8  15
ENDBRANCH   6   8
ENDBRANCH   5   6
BRANCH   5  18
ATOM     18  C   UNL     1       2.289  -5.592   2.036  0.00  0.00    +0.032 C 
BRANCH  18  19
ATOM     19  C   UNL     1       3.478  -5.774   2.981  0.00  0.00    -0.015 C 
ATOM     20  C   UNL     1       3.169  -5.112   4.325  0.00  0.00    +0.007 C 
ATOM     21  C   UNL     1       3.735  -7.267   3.195  0.00  0.00    +0.007 C 
ENDBRANCH  18  19
ENDBRANCH   5  18
ENDBRANCH   1   5
BRANCH   3  22
ATOM     22  C   UNL     1       5.606  -2.806   0.757  0.00  0.00    +0.109 C 
BRANCH  22  23
ATOM     23  C   UNL     1       6.786  -2.556   1.698  0.00  0.00    +0.056 C 
BRANCH  23  24
ATOM     24  C   UNL     1       7.945  -1.996   0.914  0.00  0.00    -0.012 A 
ATOM     25  C   UNL     1       8.996  -2.820   0.554  0.00  0.00    +0.055 A 
ATOM     26  C   UNL     1      10.062  -2.307  -0.167  0.00  0.00    +0.162 A 
ATOM     27  C   UNL     1      10.072  -0.963  -0.529  0.00  0.00    +0.164 A 
ATOM     28  C   UNL     1       9.015  -0.143  -0.165  0.00  0.00    +0.082 A 
ATOM     29  C   UNL     1       7.952  -0.663   0.550  0.00  0.00    +0.133 A 
BRANCH  29  30
ATOM     30  N   UNL     1       6.821   0.212   0.932  0.00  0.00    +0.057 N 
ATOM     31  O   UNL     1       6.803   1.367   0.574  0.00  0.00    -0.126 OA
ATOM     32  O   UNL     1       5.915  -0.227   1.601  0.00  0.00    -0.126 OA
ENDBRANCH  29  30
BRANCH  27  33
ATOM     33  O   UNL     1      11.116  -0.455  -1.236  0.00  0.00    -0.491 OA
ATOM     34  C   UNL     1      11.058   0.933  -1.572  0.00  0.00    +0.277 C 
ENDBRANCH  27  33
BRANCH  26  35
ATOM     35  O   UNL     1      11.097  -3.115  -0.521  0.00  0.00    -0.491 OA
ATOM     36  C   UNL     1      11.019  -4.483  -0.116  0.00  0.00    +0.277 C 
ENDBRANCH  26  35
ENDBRANCH  23  24
ENDBRANCH  22  23
ENDBRANCH   3  22
TORSDOF 12
