REMARK  Name = ZINC39578288
REMARK  8 active torsions:
REMARK  status: ('A' for Active; 'I' for Inactive)
REMARK    1  A    between atoms: C_4  and  O_24
REMARK    2  A    between atoms: C_5  and  N_7
REMARK    3  A    between atoms: C_8  and  C_10
REMARK    4  A    between atoms: C_10  and  S_11
REMARK    5  A    between atoms: S_11  and  C_12
REMARK    6  A    between atoms: C_15  and  C_18
REMARK    7  A    between atoms: N_16  and  N_17
REMARK    8  A    between atoms: O_24  and  C_25
REMARK                            x       y       z     vdW  Elec       q    Type
REMARK                         _______ _______ _______ _____ _____    ______ ____
ROOT
ATOM      1  C   UNL     1       0.115  -4.277   0.192  0.00  0.00    +0.173 C 
ENDROOT
BRANCH   1   3
ATOM      2  N   UNL     1       1.234  -2.082  -0.022  0.00  0.00    -0.282 N 
ATOM      3  C   UNL     1       0.083  -2.774   0.087  0.00  0.00    +0.228 C 
ATOM      4  O   UNL     1      -0.978  -2.188   0.102  0.00  0.00    -0.275 OA
ATOM      5  H   UNL     1       2.077  -2.553  -0.115  0.00  0.00    +0.155 HD
BRANCH   2  10
ATOM      6  C   UNL     1       0.153   1.372   0.637  0.00  0.00    +0.002 A 
ATOM      7  C   UNL     1       1.172   2.088   0.036  0.00  0.00    +0.004 A 
ATOM      8  C   UNL     1       2.214   1.426  -0.585  0.00  0.00    +0.048 A 
ATOM      9  C   UNL     1       2.240   0.041  -0.608  0.00  0.00    +0.148 A 
ATOM     10  C   UNL     1       1.214  -0.681  -0.002  0.00  0.00    +0.076 A 
ATOM     11  C   UNL     1       0.172  -0.009   0.620  0.00  0.00    +0.027 A 
BRANCH   9  12
ATOM     12  O   UNL     1       3.264  -0.612  -1.220  0.00  0.00    -0.432 OA
BRANCH  12  13
ATOM     13  C   UNL     1       4.280   0.194  -1.819  0.00  0.00    +0.541 C 
ATOM     14  F   UNL     1       3.710   1.006  -2.805  0.00  0.00    -0.166 F 
ATOM     15  F   UNL     1       4.877   0.996  -0.841  0.00  0.00    -0.166 F 
ENDBRANCH  12  13
ENDBRANCH   9  12
ENDBRANCH   2  10
ENDBRANCH   1   3
BRANCH   1  16
ATOM     16  S   UNL     1      -1.580  -4.910   0.325  0.00  0.00    -0.075 S 
BRANCH  16  17
ATOM     17  C   UNL     1      -1.375  -6.657   0.438  0.00  0.00    +0.209 A 
ATOM     18  N   UNL     1      -0.237  -7.311   0.430  0.00  0.00    -0.121 NA
ATOM     19  N   UNL     1      -0.459  -8.573   0.528  0.00  0.00    -0.132 NA
ATOM     20  C   UNL     1      -1.740  -8.798   0.604  0.00  0.00    +0.154 A 
ATOM     21  N   UNL     1      -2.370  -7.585   0.555  0.00  0.00    -0.228 N 
BRANCH  20  22
ATOM     22  C   UNL     1      -2.405 -10.144   0.730  0.00  0.00    +0.059 C 
ATOM     23  C   UNL     1      -1.925 -10.833   2.009  0.00  0.00    +0.011 C 
ATOM     24  C   UNL     1      -2.600 -12.200   2.136  0.00  0.00    +0.001 C 
ATOM     25  C   UNL     1      -2.237 -13.063   0.926  0.00  0.00    +0.000 C 
ATOM     26  C   UNL     1      -2.717 -12.374  -0.353  0.00  0.00    +0.001 C 
ATOM     27  C   UNL     1      -2.042 -11.007  -0.480  0.00  0.00    +0.011 C 
ENDBRANCH  20  22
BRANCH  21  28
ATOM     28  N   UNL     1      -3.714  -7.350   0.610  0.00  0.00    -0.295 N 
ATOM     29  H   UNL     1      -4.120  -7.355  -0.314  0.00  0.00    +0.163 HD
ATOM     30  H   UNL     1      -4.174  -8.019   1.210  0.00  0.00    +0.163 HD
ENDBRANCH  21  28
ENDBRANCH  16  17
ENDBRANCH   1  16
TORSDOF 8
