REMARK  Name = ZINC36502755
REMARK  14 active torsions:
REMARK  status: ('A' for Active; 'I' for Inactive)
REMARK    1  A    between atoms: C_1  and  C_2
REMARK    2  A    between atoms: C_5  and  S_8
REMARK    3  A    between atoms: S_8  and  C_11
REMARK    4  A    between atoms: C_11  and  N_12
REMARK    5  A    between atoms: C_13  and  C_15
REMARK    6  A    between atoms: C_15  and  C_17
REMARK    7  A    between atoms: C_15  and  N_26
REMARK    8  A    between atoms: C_17  and  C_19
REMARK    9  A    between atoms: C_17  and  C_20
REMARK   10  A    between atoms: N_26  and  C_27
REMARK   11  A    between atoms: C_27  and  C_28
REMARK   12  A    between atoms: C_33  and  C_35
REMARK   13  A    between atoms: C_36  and  C_37
REMARK   14  A    between atoms: C_36  and  C_38
REMARK                            x       y       z     vdW  Elec       q    Type
REMARK                         _______ _______ _______ _____ _____    ______ ____
ROOT
ATOM      1  C   UNL     1       3.473  -4.663   3.639  0.00  0.00    +0.170 C 
ENDROOT
BRANCH   1   3
ATOM      2  N   UNL     1       1.463  -4.533   2.203  0.00  0.00    -0.295 N 
ATOM      3  C   UNL     1       2.551  -5.228   2.589  0.00  0.00    +0.235 C 
ATOM      4  O   UNL     1       2.789  -6.309   2.092  0.00  0.00    -0.274 OA
ATOM      5  H   UNL     1       1.243  -3.695   2.639  0.00  0.00    +0.150 HD
BRANCH   2   6
ATOM      6  C   UNL     1       0.613  -5.043   1.125  0.00  0.00    +0.278 C 
BRANCH   6   7
ATOM      7  S   UNL     1      -0.770  -5.977   1.836  0.00  0.00    +0.013 S 
ATOM      8  O   UNL     1      -0.294  -6.879   2.825  0.00  0.00    -0.168 OA
ATOM      9  O   UNL     1      -1.640  -6.426   0.805  0.00  0.00    -0.168 OA
BRANCH   7  14
ATOM     10  C   UNL     1      -3.991  -1.895   4.897  0.00  0.00    +0.044 C 
ATOM     11  C   UNL     1      -3.187  -2.914   4.132  0.00  0.00    -0.050 A 
ATOM     12  C   UNL     1      -3.469  -3.161   2.802  0.00  0.00    +0.005 A 
ATOM     13  C   UNL     1      -2.731  -4.096   2.100  0.00  0.00    +0.027 A 
ATOM     14  C   UNL     1      -1.710  -4.784   2.729  0.00  0.00    +0.090 A 
ATOM     15  C   UNL     1      -1.427  -4.537   4.060  0.00  0.00    +0.027 A 
ATOM     16  C   UNL     1      -2.162  -3.599   4.760  0.00  0.00    +0.005 A 
ENDBRANCH   7  14
ENDBRANCH   6   7
ENDBRANCH   2   6
ENDBRANCH   1   3
BRANCH   1  17
ATOM     17  N   UNL     1       4.134  -5.760   4.351  0.00  0.00    -0.279 N 
ATOM     18  C   UNL     1       3.877  -5.966   5.658  0.00  0.00    +0.240 C 
ATOM     19  O   UNL     1       4.487  -6.822   6.269  0.00  0.00    -0.271 OA
BRANCH  18  20
ATOM     20  C   UNL     1       2.859  -5.156   6.344  0.00  0.00    +0.066 C 
ATOM     21  C   UNL     1       2.561  -5.401   7.617  0.00  0.00    -0.071 C 
ATOM     22  C   UNL     1       3.202  -6.564   8.330  0.00  0.00    +0.039 C 
ATOM     23  C   UNL     1       1.585  -4.515   8.347  0.00  0.00    +0.039 C 
ENDBRANCH  18  20
BRANCH  17  24
ATOM     24  C   UNL     1       5.073  -6.632   3.642  0.00  0.00    +0.183 C 
BRANCH  24  25
ATOM     25  C   UNL     1       6.464  -6.062   3.747  0.00  0.00    +0.122 A 
ATOM     26  C   UNL     1       7.356  -6.337   4.715  0.00  0.00    +0.046 A 
ATOM     27  C   UNL     1       8.521  -5.590   4.423  0.00  0.00    +0.041 A 
ATOM     28  C   UNL     1       8.271  -4.904   3.294  0.00  0.00    +0.195 A 
ATOM     29  O   UNL     1       7.026  -5.198   2.885  0.00  0.00    -0.466 OA
ENDBRANCH  24  25
ENDBRANCH  17  24
ENDBRANCH   1  17
BRANCH   1  30
ATOM     30  C   UNL     1       4.529  -3.781   2.969  0.00  0.00    +0.045 C 
ATOM     31  C   UNL     1       5.417  -3.145   4.040  0.00  0.00    +0.015 C 
BRANCH  30  32
ATOM     32  C   UNL     1       3.847  -2.697   2.174  0.00  0.00    -0.042 A 
ATOM     33  C   UNL     1       3.026  -1.785   2.812  0.00  0.00    +0.004 A 
ATOM     34  C   UNL     1       2.401  -0.791   2.083  0.00  0.00    +0.000 A 
ATOM     35  C   UNL     1       2.596  -0.708   0.717  0.00  0.00    +0.000 A 
ATOM     36  C   UNL     1       3.417  -1.619   0.080  0.00  0.00    +0.000 A 
ATOM     37  C   UNL     1       4.046  -2.611   0.809  0.00  0.00    +0.004 A 
ENDBRANCH  30  32
ENDBRANCH   1  30
TORSDOF 10
