REMARK  Name = ZINC04277863
REMARK  7 active torsions:
REMARK  status: ('A' for Active; 'I' for Inactive)
REMARK    1  A    between atoms: C_4  and  N_7
REMARK    2  A    between atoms: C_14  and  C_17
REMARK    3  A    between atoms: N_19  and  C_20
REMARK    4  A    between atoms: C_20  and  C_22
REMARK    5  A    between atoms: C_20  and  C_29
REMARK    6  A    between atoms: C_22  and  C_23
REMARK    7  A    between atoms: C_32  and  C_34
REMARK                            x       y       z     vdW  Elec       q    Type
REMARK                         _______ _______ _______ _____ _____    ______ ____
ROOT
ATOM      1  N   UNL     1      -3.173   0.068  -1.351  0.00  0.00    -0.269 N 
ATOM      2  C   UNL     1      -4.157   0.920  -1.003  0.00  0.00    +0.307 C 
ATOM      3  O   UNL     1      -3.994   2.119  -1.125  0.00  0.00    -0.252 OA
ATOM      4  N   UNL     1      -5.321   0.445  -0.519  0.00  0.00    -0.282 N 
ATOM      5  C   UNL     1      -5.500  -0.994  -0.281  0.00  0.00    +0.128 C 
ATOM      6  C   UNL     1      -5.925  -1.195   1.184  0.00  0.00    +0.128 C 
ATOM      7  N   UNL     1      -7.041  -0.284   1.476  0.00  0.00    -0.283 N 
ATOM      8  C   UNL     1      -6.864   1.154   1.233  0.00  0.00    +0.179 C 
ATOM      9  C   UNL     1      -6.437   1.355  -0.227  0.00  0.00    +0.141 C 
ATOM     10  C   UNL     1      -8.206  -0.760   1.960  0.00  0.00    +0.254 C 
ATOM     11  O   UNL     1      -9.155  -0.013   2.103  0.00  0.00    -0.269 OA
ATOM     12  H   UNL     1      -3.330  -0.889  -1.327  0.00  0.00    +0.156 HD
ENDROOT
BRANCH   1  16
ATOM     13  C   UNL     1       0.543   1.538  -2.527  0.00  0.00    +0.000 A 
ATOM     14  C   UNL     1      -0.215   2.237  -1.606  0.00  0.00    +0.002 A 
ATOM     15  C   UNL     1      -1.449   1.754  -1.217  0.00  0.00    +0.023 A 
ATOM     16  C   UNL     1      -1.925   0.562  -1.747  0.00  0.00    +0.035 A 
ATOM     17  C   UNL     1      -1.163  -0.134  -2.676  0.00  0.00    +0.023 A 
ATOM     18  C   UNL     1       0.070   0.354  -3.061  0.00  0.00    +0.002 A 
ENDBRANCH   1  16
BRANCH  10  19
ATOM     19  C   UNL     1      -8.328  -2.178   2.313  0.00  0.00    +0.074 A 
ATOM     20  C   UNL     1      -9.473  -2.946   2.456  0.00  0.00    +0.021 A 
ATOM     21  C   UNL     1      -9.301  -4.266   2.794  0.00  0.00    +0.008 A 
ATOM     22  C   UNL     1      -8.043  -4.745   2.979  0.00  0.00    +0.046 A 
ATOM     23  S   UNL     1      -7.044  -3.361   2.678  0.00  0.00    -0.092 S 
ENDBRANCH  10  19
BRANCH   8  24
ATOM     24  C   UNL     1      -8.162   1.877   1.484  0.00  0.00    +0.236 C 
ATOM     25  O   UNL     1      -9.100   1.720   0.731  0.00  0.00    -0.274 OA
ATOM     26  N   UNL     1      -8.282   2.697   2.547  0.00  0.00    -0.302 N 
ATOM     27  H   UNL     1      -7.533   2.822   3.150  0.00  0.00    +0.150 HD
BRANCH  26  28
ATOM     28  C   UNL     1      -9.544   3.399   2.791  0.00  0.00    +0.159 C 
BRANCH  28  29
ATOM     29  C   UNL     1      -9.574   4.673   1.987  0.00  0.00    +0.231 C 
ATOM     30  O   UNL     1      -8.634   4.966   1.279  0.00  0.00    -0.274 OA
ATOM     31  N   UNL     1     -10.646   5.488   2.054  0.00  0.00    -0.328 N 
ATOM     32  H   UNL     1     -11.398   5.254   2.620  0.00  0.00    +0.145 HD
ATOM     33  H   UNL     1     -10.665   6.308   1.536  0.00  0.00    +0.145 HD
ENDBRANCH  28  29
BRANCH  28  34
ATOM     34  C   UNL     1      -9.662   3.733   4.280  0.00  0.00    +0.035 C 
BRANCH  34  35
ATOM     35  C   UNL     1      -9.757   2.437   5.087  0.00  0.00    -0.009 C 
ATOM     36  C   UNL     1     -11.055   1.709   4.732  0.00  0.00    +0.003 C 
ATOM     37  C   UNL     1     -11.150   0.413   5.539  0.00  0.00    +0.000 C 
ATOM     38  C   UNL     1     -11.142   0.742   7.034  0.00  0.00    +0.000 C 
ATOM     39  C   UNL     1      -9.844   1.470   7.389  0.00  0.00    +0.000 C 
ATOM     40  C   UNL     1      -9.749   2.766   6.582  0.00  0.00    +0.003 C 
ENDBRANCH  34  35
ENDBRANCH  28  34
ENDBRANCH  26  28
ENDBRANCH   8  24
TORSDOF 7
