REMARK  Name = ZINC05098989
REMARK  9 active torsions:
REMARK  status: ('A' for Active; 'I' for Inactive)
REMARK    1  A    between atoms: C_1  and  N_2
REMARK    2  A    between atoms: N_2  and  C_3
REMARK    3  A    between atoms: N_2  and  C_4
REMARK    4  A    between atoms: C_7  and  C_10
REMARK    5  A    between atoms: C_10  and  C_12
REMARK    6  A    between atoms: C_10  and  N_59
REMARK    7  A    between atoms: C_12  and  N_13
REMARK    8  A    between atoms: N_13  and  S_14
REMARK    9  A    between atoms: S_14  and  C_17
REMARK                            x       y       z     vdW  Elec       q    Type
REMARK                         _______ _______ _______ _____ _____    ______ ____
ROOT
ATOM      1  C   UNL     1      -2.513   0.976   0.019  0.00  0.00    -0.022 C 
ENDROOT
BRANCH   1   5
ATOM      2  C   UNL     1       1.150   3.178   0.016  0.00  0.00    +0.029 A 
ATOM      3  C   UNL     1       0.970   2.125  -0.872  0.00  0.00    +0.023 A 
ATOM      4  C   UNL     1      -0.213   1.413  -0.866  0.00  0.00    +0.004 A 
ATOM      5  C   UNL     1      -1.221   1.751   0.019  0.00  0.00    -0.060 A 
ATOM      6  C   UNL     1      -1.043   2.795   0.908  0.00  0.00    +0.004 A 
ATOM      7  C   UNL     1       0.138   3.511   0.907  0.00  0.00    +0.023 A 
BRANCH   2   9
ATOM      8  C   UNL     1       3.411   3.548  -0.929  0.00  0.00    +0.129 C 
ATOM      9  N   UNL     1       2.345   3.901   0.012  0.00  0.00    -0.336 N 
ATOM     10  C   UNL     1       2.534   5.011   0.949  0.00  0.00    +0.129 C 
ENDBRANCH   2   9
ENDBRANCH   1   5
BRANCH   1  15
ATOM     11  C   UNL     1      -3.638   3.111  -0.308  0.00  0.00    -0.078 C 
ATOM     12  C   UNL     1      -4.292   3.824  -1.518  0.00  0.00    -0.020 C 
ATOM     13  C   UNL     1      -3.628   3.129  -2.729  0.00  0.00    -0.020 C 
ATOM     14  C   UNL     1      -3.129   1.775  -2.192  0.00  0.00    -0.078 C 
ATOM     15  N   UNL     1      -3.528   1.723  -0.784  0.00  0.00    +0.385 N 
ATOM     16  H   UNL     1      -4.437   1.254  -0.699  0.00  0.00    -0.081 HD
ENDBRANCH   1  15
BRANCH   1  17
ATOM     17  C   UNL     1      -3.010   0.812   1.456  0.00  0.00    +0.095 C 
BRANCH  17  18
ATOM     18  N   UNL     1      -4.324   0.164   1.448  0.00  0.00    -0.191 NA
ATOM     19  H   UNL     1      -4.833   0.110   0.624  0.00  0.00    +0.148 HD
BRANCH  18  20
ATOM     20  S   UNL     1      -4.940  -0.476   2.846  0.00  0.00    +0.058 S 
ATOM     21  O   UNL     1      -6.221  -1.000   2.522  0.00  0.00    -0.153 OA
ATOM     22  O   UNL     1      -3.912  -1.274   3.415  0.00  0.00    -0.153 OA
BRANCH  20  23
ATOM     23  C   UNL     1      -5.212   0.865   3.957  0.00  0.00    +0.106 A 
ATOM     24  C   UNL     1      -4.195   1.250   4.829  0.00  0.00    +0.029 A 
ATOM     25  C   UNL     1      -4.370   2.284   5.696  0.00  0.00    +0.010 A 
ATOM     26  C   UNL     1      -5.597   2.968   5.723  0.00  0.00    -0.018 A 
ATOM     27  C   UNL     1      -5.817   4.037   6.610  0.00  0.00    +0.008 A 
ATOM     28  C   UNL     1      -7.018   4.677   6.608  0.00  0.00    +0.001 A 
ATOM     29  C   UNL     1      -8.036   4.288   5.739  0.00  0.00    +0.001 A 
ATOM     30  C   UNL     1      -7.859   3.258   4.868  0.00  0.00    +0.008 A 
ATOM     31  C   UNL     1      -6.633   2.573   4.840  0.00  0.00    -0.016 A 
ATOM     32  C   UNL     1      -6.413   1.504   3.955  0.00  0.00    +0.037 A 
ENDBRANCH  20  23
ENDBRANCH  18  20
ENDBRANCH  17  18
ENDBRANCH   1  17
TORSDOF 7
