REMARK  Name = ZINC13098034
REMARK  12 active torsions:
REMARK  status: ('A' for Active; 'I' for Inactive)
REMARK    1  A    between atoms: C_1  and  C_2
REMARK    2  A    between atoms: C_2  and  N_3
REMARK    3  A    between atoms: N_3  and  C_4
REMARK    4  A    between atoms: N_3  and  S_6
REMARK    5  A    between atoms: C_4  and  C_5
REMARK    6  A    between atoms: S_6  and  C_9
REMARK    7  A    between atoms: C_12  and  N_29
REMARK    8  A    between atoms: C_13  and  N_15
REMARK    9  A    between atoms: C_16  and  C_18
REMARK   10  A    between atoms: C_18  and  N_68
REMARK   11  A    between atoms: C_19  and  C_20
REMARK   12  A    between atoms: C_19  and  N_68
REMARK                            x       y       z     vdW  Elec       q    Type
REMARK                         _______ _______ _______ _____ _____    ______ ____
ROOT
ATOM      1  C   UNL     1      11.028  -2.980  -2.270  0.00  0.00    +0.107 A 
ATOM      2  C   UNL     1      12.342  -3.233  -1.924  0.00  0.00    +0.030 A 
ATOM      3  C   UNL     1      12.775  -3.010  -0.630  0.00  0.00    +0.027 A 
ATOM      4  C   UNL     1      11.892  -2.526   0.323  0.00  0.00    +0.051 A 
ATOM      5  C   UNL     1      10.565  -2.276  -0.025  0.00  0.00    +0.056 A 
ATOM      6  C   UNL     1      10.139  -2.503  -1.325  0.00  0.00    +0.053 A 
ENDROOT
BRANCH   4   7
ATOM      7  N   UNL     1      12.329  -2.295   1.632  0.00  0.00    -0.328 N 
ATOM      8  C   UNL     1      13.340  -1.230   1.668  0.00  0.00    +0.105 C 
ATOM      9  C   UNL     1      13.688  -0.904   3.122  0.00  0.00    +0.019 C 
ATOM     10  C   UNL     1      14.222  -2.164   3.809  0.00  0.00    +0.003 C 
ATOM     11  C   UNL     1      13.170  -3.272   3.715  0.00  0.00    +0.019 C 
ATOM     12  C   UNL     1      12.837  -3.529   2.243  0.00  0.00    +0.105 C 
ENDBRANCH   4   7
BRANCH   5  13
ATOM     13  N   UNL     1       9.666  -1.792   0.935  0.00  0.00    -0.286 N 
ATOM     14  C   UNL     1       8.373  -2.170   0.899  0.00  0.00    +0.200 C 
ATOM     15  O   UNL     1       7.969  -2.865  -0.010  0.00  0.00    -0.278 OA
ATOM     16  H   UNL     1       9.974  -1.184   1.625  0.00  0.00    +0.155 HD
BRANCH  14  17
ATOM     17  C   UNL     1       7.428  -1.730   1.987  0.00  0.00    +0.016 C 
BRANCH  17  18
ATOM     18  N   UNL     1       6.086  -2.276   1.712  0.00  0.00    +0.387 N 
ATOM     19  H   UNL     1       6.136  -3.301   1.687  0.00  0.00    -0.085 HD
ATOM     20  H   UNL     1       5.758  -1.927   0.804  0.00  0.00    -0.085 HD
BRANCH  18  21
ATOM     21  C   UNL     1       5.138  -1.861   2.764  0.00  0.00    -0.046 C 
BRANCH  21  22
ATOM     22  C   UNL     1       3.778  -2.432   2.457  0.00  0.00    -0.061 A 
ATOM     23  C   UNL     1       3.425  -3.675   2.947  0.00  0.00    +0.005 A 
ATOM     24  C   UNL     1       2.179  -4.204   2.668  0.00  0.00    +0.050 A 
ATOM     25  C   UNL     1       1.279  -3.487   1.895  0.00  0.00    +0.166 A 
ATOM     26  C   UNL     1       1.634  -2.234   1.402  0.00  0.00    +0.166 A 
ATOM     27  C   UNL     1       2.885  -1.711   1.686  0.00  0.00    +0.051 A 
ATOM     28  O   UNL     1       0.588  -1.738   0.679  0.00  0.00    -0.453 OA
ATOM     29  C   UNL     1      -0.556  -2.516   1.074  0.00  0.00    +0.466 C 
ATOM     30  O   UNL     1       0.011  -3.776   1.481  0.00  0.00    -0.453 OA
ENDBRANCH  21  22
ENDBRANCH  18  21
ENDBRANCH  17  18
ENDBRANCH  14  17
ENDBRANCH   5  13
BRANCH   1  31
ATOM     31  S   UNL     1      10.483  -3.267  -3.921  0.00  0.00    +0.061 S 
ATOM     32  O   UNL     1      11.368  -4.229  -4.479  0.00  0.00    -0.153 OA
ATOM     33  O   UNL     1       9.079  -3.471  -3.856  0.00  0.00    -0.153 OA
BRANCH  31  34
ATOM     34  N   UNL     1      10.719  -1.862  -4.766  0.00  0.00    -0.177 NA
BRANCH  34  36
ATOM     35  C   UNL     1      11.862  -2.055  -6.919  0.00  0.00    +0.022 C 
ATOM     36  C   UNL     1      11.989  -1.627  -5.456  0.00  0.00    +0.106 C 
ENDBRANCH  34  36
BRANCH  34  37
ATOM     37  C   UNL     1       9.657  -0.854  -4.822  0.00  0.00    +0.106 C 
ATOM     38  C   UNL     1       9.888   0.192  -3.730  0.00  0.00    +0.022 C 
ENDBRANCH  34  37
ENDBRANCH  31  34
ENDBRANCH   1  31
TORSDOF 10
