REMARK  Name = ZINC13501071
REMARK  11 active torsions:
REMARK  status: ('A' for Active; 'I' for Inactive)
REMARK    1  A    between atoms: C_1  and  C_2
REMARK    2  A    between atoms: C_2  and  C_3
REMARK    3  A    between atoms: C_3  and  C_5
REMARK    4  A    between atoms: C_3  and  N_69
REMARK    5  A    between atoms: N_9  and  C_10
REMARK    6  A    between atoms: C_10  and  C_11
REMARK    7  A    between atoms: C_17  and  C_18
REMARK    8  A    between atoms: C_17  and  N_69
REMARK    9  A    between atoms: C_22  and  C_31
REMARK   10  A    between atoms: C_24  and  C_30
REMARK   11  A    between atoms: C_32  and  N_69
REMARK                            x       y       z     vdW  Elec       q    Type
REMARK                         _______ _______ _______ _____ _____    ______ ____
ROOT
ATOM      1  N   UNL     1       2.248   7.691  -2.203  0.00  0.00    +0.391 N 
ATOM      2  H   UNL     1       3.268   7.698  -2.094  0.00  0.00    -0.080 HD
ENDROOT
BRANCH   1   3
ATOM      3  C   UNL     1       1.920   7.665  -3.644  0.00  0.00    -0.067 C 
ATOM      4  C   UNL     1       2.238   6.271  -4.225  0.00  0.00    -0.015 C 
ATOM      5  C   UNL     1       2.813   6.570  -5.633  0.00  0.00    -0.002 C 
ATOM      6  C   UNL     1       3.653   7.850  -5.395  0.00  0.00    -0.002 C 
ATOM      7  C   UNL     1       2.819   8.668  -4.388  0.00  0.00    -0.015 C 
ENDBRANCH   1   3
BRANCH   1   8
ATOM      8  C   UNL     1       1.701   6.489  -1.539  0.00  0.00    +0.003 C 
BRANCH   8   9
ATOM      9  C   UNL     1       0.195   6.505  -1.572  0.00  0.00    +0.138 A 
ATOM     10  N   UNL     1      -0.584   7.505  -1.240  0.00  0.00    -0.115 NA
ATOM     11  N   UNL     1      -1.806   7.130  -1.405  0.00  0.00    -0.023 NA
ATOM     12  N   UNL     1      -1.826   5.918  -1.839  0.00  0.00    -0.044 NA
ATOM     13  N   UNL     1      -0.612   5.496  -1.950  0.00  0.00    -0.226 N 
BRANCH  13  14
ATOM     14  C   UNL     1      -0.190   4.169  -2.406  0.00  0.00    +0.182 C 
BRANCH  14  15
ATOM     15  C   UNL     1      -0.081   3.242  -1.223  0.00  0.00    -0.026 A 
ATOM     16  C   UNL     1      -1.177   2.501  -0.822  0.00  0.00    +0.005 A 
ATOM     17  C   UNL     1      -1.077   1.651   0.263  0.00  0.00    +0.000 A 
ATOM     18  C   UNL     1       0.117   1.546   0.951  0.00  0.00    +0.000 A 
ATOM     19  C   UNL     1       1.215   2.283   0.547  0.00  0.00    +0.000 A 
ATOM     20  C   UNL     1       1.115   3.133  -0.539  0.00  0.00    +0.005 A 
ENDBRANCH  14  15
ENDBRANCH  13  14
ENDBRANCH   8   9
BRANCH   8  22
ATOM     21  C   UNL     1       3.701   6.312  -0.052  0.00  0.00    +0.002 C 
ATOM     22  C   UNL     1       2.179   6.466  -0.086  0.00  0.00    -0.011 C 
ENDBRANCH   8  22
ENDBRANCH   1   8
BRANCH   1  23
ATOM     23  C   UNL     1       1.690   8.910  -1.580  0.00  0.00    -0.036 C 
BRANCH  23  24
ATOM     24  C   UNL     1       2.551  10.085  -1.963  0.00  0.00    +0.001 A 
ATOM     25  C   UNL     1       2.153  10.921  -2.954  0.00  0.00    +0.017 A 
ATOM     26  C   UNL     1       3.010  12.056  -3.298  0.00  0.00    -0.001 A 
ATOM     27  C   UNL     1       2.650  12.954  -4.309  0.00  0.00    +0.013 A 
ATOM     28  C   UNL     1       3.475  14.001  -4.610  0.00  0.00    -0.050 A 
ATOM     29  C   UNL     1       4.668  14.181  -3.923  0.00  0.00    +0.008 A 
ATOM     30  C   UNL     1       5.042  13.309  -2.923  0.00  0.00    -0.026 A 
ATOM     31  C   UNL     1       4.218  12.236  -2.599  0.00  0.00    +0.052 A 
ATOM     32  N   UNL     1       4.568  11.348  -1.604  0.00  0.00    -0.322 N 
ATOM     33  H   UNL     1       5.401  11.473  -1.123  0.00  0.00    +0.169 HD
ATOM     34  C   UNL     1       3.772  10.310  -1.292  0.00  0.00    +0.251 A 
ATOM     35  O   UNL     1       4.114   9.545  -0.407  0.00  0.00    -0.268 OA
ATOM     36  C   UNL     1       6.338  13.518  -2.184  0.00  0.00    +0.046 C 
ATOM     37  C   UNL     1       3.087  14.968  -5.699  0.00  0.00    +0.044 C 
ENDBRANCH  23  24
ENDBRANCH   1  23
TORSDOF 8
