REMARK  Name = ZINC35747350
REMARK  13 active torsions:
REMARK  status: ('A' for Active; 'I' for Inactive)
REMARK    1  A    between atoms: C_1  and  O_2
REMARK    2  A    between atoms: O_2  and  C_3
REMARK    3  A    between atoms: C_3  and  C_4
REMARK    4  A    between atoms: C_4  and  N_5
REMARK    5  A    between atoms: N_5  and  C_6
REMARK    6  A    between atoms: N_5  and  C_25
REMARK    7  A    between atoms: C_6  and  C_7
REMARK    8  A    between atoms: C_13  and  C_18
REMARK    9  A    between atoms: C_25  and  C_26
REMARK   10  A    between atoms: C_26  and  C_28
REMARK   11  A    between atoms: C_26  and  O_36
REMARK   12  A    between atoms: C_28  and  O_29
REMARK   13  A    between atoms: O_29  and  C_30
REMARK                            x       y       z     vdW  Elec       q    Type
REMARK                         _______ _______ _______ _____ _____    ______ ____
ROOT
ATOM      1  C   UNL     1       0.547  -3.446  -0.565  0.00  0.00    -0.003 C 
ENDROOT
BRANCH   1   2
ATOM      2  C   UNL     1      -0.851  -3.126  -1.027  0.00  0.00    +0.094 A 
ATOM      3  N   UNL     1      -1.714  -4.141  -1.291  0.00  0.00    -0.312 N 
ATOM      4  H   UNL     1      -1.419  -5.058  -1.179  0.00  0.00    +0.170 HD
ATOM      5  C   UNL     1      -2.972  -3.898  -1.705  0.00  0.00    +0.260 A 
ATOM      6  O   UNL     1      -3.735  -4.820  -1.937  0.00  0.00    -0.267 OA
ATOM      7  C   UNL     1      -3.400  -2.542  -1.867  0.00  0.00    +0.080 A 
ATOM      8  C   UNL     1      -4.695  -2.029  -2.297  0.00  0.00    +0.004 A 
ATOM      9  C   UNL     1      -4.870  -0.687  -2.377  0.00  0.00    +0.056 A 
ATOM     10  S   UNL     1      -3.290  -0.034  -1.873  0.00  0.00    -0.076 S 
ATOM     11  C   UNL     1      -2.439  -1.562  -1.571  0.00  0.00    +0.116 A 
ATOM     12  N   UNL     1      -1.214  -1.879  -1.161  0.00  0.00    -0.229 NA
BRANCH   8  13
ATOM     13  C   UNL     1      -5.799  -2.956  -2.642  0.00  0.00    -0.016 A 
ATOM     14  C   UNL     1      -5.574  -4.016  -3.519  0.00  0.00    +0.010 A 
ATOM     15  C   UNL     1      -6.604  -4.877  -3.835  0.00  0.00    +0.020 A 
ATOM     16  C   UNL     1      -7.861  -4.689  -3.284  0.00  0.00    +0.041 A 
ATOM     17  C   UNL     1      -8.089  -3.638  -2.413  0.00  0.00    +0.020 A 
ATOM     18  C   UNL     1      -7.064  -2.775  -2.085  0.00  0.00    +0.010 A 
ATOM     19 CL   UNL     1      -9.153  -5.776  -3.687  0.00  0.00    -0.084 Cl
ENDBRANCH   8  13
ENDBRANCH   1   2
BRANCH   1  20
ATOM     20  N   UNL     1       1.286  -2.196  -0.339  0.00  0.00    +0.388 N 
ATOM     21  H   UNL     1       1.253  -1.630  -1.174  0.00  0.00    -0.081 HD
BRANCH  20  22
ATOM     22  C   UNL     1       0.673  -1.460   0.774  0.00  0.00    -0.050 C 
BRANCH  22  23
ATOM     23  C   UNL     1       1.338  -0.088   0.907  0.00  0.00    +0.141 C 
BRANCH  23  25
ATOM     24  C   UNL     1       1.679   1.979  -0.257  0.00  0.00    +0.193 C 
ATOM     25  O   UNL     1       1.097   0.674  -0.278  0.00  0.00    -0.385 OA
ENDBRANCH  23  25
ENDBRANCH  22  23
ENDBRANCH  20  22
BRANCH  20  26
ATOM     26  C   UNL     1       2.684  -2.505  -0.011  0.00  0.00    -0.043 C 
BRANCH  26  27
ATOM     27  C   UNL     1       3.380  -3.086  -1.243  0.00  0.00    +0.135 C 
BRANCH  27  28
ATOM     28  O   UNL     1       2.849  -4.383  -1.523  0.00  0.00    -0.390 OA
ATOM     29  H   UNL     1       2.964  -5.019  -0.804  0.00  0.00    +0.210 HD
ENDBRANCH  27  28
BRANCH  27  30
ATOM     30  C   UNL     1       4.882  -3.197  -0.975  0.00  0.00    +0.258 C 
BRANCH  30  31
ATOM     31  O   UNL     1       5.548  -3.630  -2.163  0.00  0.00    -0.489 OA
BRANCH  31  32
ATOM     32  C   UNL     1       6.897  -3.780  -2.095  0.00  0.00    +0.121 A 
ATOM     33  C   UNL     1       7.566  -3.522  -0.907  0.00  0.00    +0.045 A 
ATOM     34  C   UNL     1       8.937  -3.676  -0.841  0.00  0.00    +0.004 A 
ATOM     35  C   UNL     1       9.643  -4.087  -1.957  0.00  0.00    +0.000 A 
ATOM     36  C   UNL     1       8.979  -4.343  -3.142  0.00  0.00    +0.004 A 
ATOM     37  C   UNL     1       7.607  -4.197  -3.212  0.00  0.00    +0.045 A 
ENDBRANCH  31  32
ENDBRANCH  30  31
ENDBRANCH  27  30
ENDBRANCH  26  27
ENDBRANCH  20  26
ENDBRANCH   1  20
TORSDOF 12
