REMARK  Name = ZINC01474498
REMARK  9 active torsions:
REMARK  status: ('A' for Active; 'I' for Inactive)
REMARK    1  A    between atoms: C_1  and  C_2
REMARK    2  A    between atoms: C_5  and  N_8
REMARK    3  A    between atoms: C_9  and  C_27
REMARK    4  A    between atoms: C_12  and  S_13
REMARK    5  A    between atoms: S_13  and  C_14
REMARK    6  A    between atoms: C_14  and  C_15
REMARK    7  A    between atoms: N_17  and  N_18
REMARK    8  A    between atoms: C_19  and  C_20
REMARK    9  A    between atoms: C_25  and  O_26
REMARK                            x       y       z     vdW  Elec       q    Type
REMARK                         _______ _______ _______ _____ _____    ______ ____
ROOT
ATOM      1  N   UNL     1     -11.373   1.185   0.068  0.00  0.00    -0.270 N 
ATOM      2  C   UNL     1     -12.046  -0.018   0.059  0.00  0.00    +0.169 A 
ATOM      3  N   UNL     1     -11.138  -0.966   0.050  0.00  0.00    -0.128 NA
ATOM      4  N   UNL     1      -9.962  -0.449   0.047  0.00  0.00    -0.122 NA
ATOM      5  C   UNL     1     -10.045   0.864   0.054  0.00  0.00    +0.197 A 
ENDROOT
BRANCH   1  10
ATOM      6  C   UNL     1     -13.644   6.386   0.134  0.00  0.00    +0.044 C 
ATOM      7  C   UNL     1     -13.041   5.005   0.117  0.00  0.00    -0.050 A 
ATOM      8  C   UNL     1     -12.311   4.585  -0.980  0.00  0.00    +0.005 A 
ATOM      9  C   UNL     1     -11.757   3.320  -0.999  0.00  0.00    +0.026 A 
ATOM     10  C   UNL     1     -11.934   2.470   0.084  0.00  0.00    +0.051 A 
ATOM     11  C   UNL     1     -12.674   2.892   1.181  0.00  0.00    +0.026 A 
ATOM     12  C   UNL     1     -13.221   4.160   1.196  0.00  0.00    +0.005 A 
ENDBRANCH   1  10
BRANCH   2  13
ATOM     13  C   UNL     1     -13.511  -0.205   0.064  0.00  0.00    +0.022 A 
ATOM     14  C   UNL     1     -14.374   0.858  -0.231  0.00  0.00    +0.031 A 
ATOM     15  C   UNL     1     -15.735   0.638  -0.219  0.00  0.00    +0.111 A 
ATOM     16  N   UNL     1     -16.227  -0.551   0.075  0.00  0.00    -0.263 NA
ATOM     17  C   UNL     1     -15.450  -1.578   0.364  0.00  0.00    +0.111 A 
ATOM     18  C   UNL     1     -14.077  -1.449   0.371  0.00  0.00    +0.031 A 
ENDBRANCH   2  13
BRANCH   5  19
ATOM     19  S   UNL     1      -8.695   1.997   0.054  0.00  0.00    -0.076 S 
BRANCH  19  20
ATOM     20  C   UNL     1      -7.308   0.834   0.041  0.00  0.00    +0.174 C 
BRANCH  20  21
ATOM     21  C   UNL     1      -6.011   1.599   0.039  0.00  0.00    +0.242 C 
ATOM     22  O   UNL     1      -6.022   2.812   0.046  0.00  0.00    -0.273 OA
ATOM     23  N   UNL     1      -4.837   0.936   0.030  0.00  0.00    -0.206 N 
ATOM     24  H   UNL     1      -4.828  -0.034   0.025  0.00  0.00    +0.177 HD
BRANCH  23  25
ATOM     25  N   UNL     1      -3.630   1.648   0.028  0.00  0.00    -0.188 NA
ATOM     26  C   UNL     1      -2.500   1.010   0.019  0.00  0.00    +0.142 C 
BRANCH  26  27
ATOM     27  C   UNL     1      -1.231   1.759   0.017  0.00  0.00    +0.036 A 
ATOM     28  C   UNL     1      -0.013   1.076   0.008  0.00  0.00    +0.013 A 
ATOM     29  C   UNL     1       1.171   1.783   0.000  0.00  0.00    +0.001 A 
ATOM     30  C   UNL     1       1.158   3.167   0.007  0.00  0.00    +0.004 A 
ATOM     31  C   UNL     1      -0.041   3.854   0.023  0.00  0.00    +0.046 A 
ATOM     32  C   UNL     1      -1.240   3.160   0.030  0.00  0.00    +0.125 A 
BRANCH  32  33
ATOM     33  O   UNL     1      -2.418   3.835   0.045  0.00  0.00    -0.506 OA
ATOM     34  H   UNL     1      -2.768   4.035  -0.834  0.00  0.00    +0.292 HD
ENDBRANCH  32  33
ENDBRANCH  26  27
ENDBRANCH  23  25
ENDBRANCH  20  21
ENDBRANCH  19  20
ENDBRANCH   5  19
TORSDOF 8
