REMARK  Name = ZINC64215349
REMARK  11 active torsions:
REMARK  status: ('A' for Active; 'I' for Inactive)
REMARK    1  A    between atoms: C_1  and  C_2
REMARK    2  A    between atoms: C_3  and  C_32
REMARK    3  A    between atoms: C_7  and  S_11
REMARK    4  A    between atoms: S_11  and  C_12
REMARK    5  A    between atoms: C_12  and  C_13
REMARK    6  A    between atoms: N_15  and  C_16
REMARK    7  A    between atoms: C_16  and  C_18
REMARK    8  A    between atoms: C_16  and  C_28
REMARK    9  A    between atoms: C_18  and  C_19
REMARK   10  A    between atoms: C_28  and  O_30
REMARK   11  A    between atoms: O_30  and  C_31
REMARK                            x       y       z     vdW  Elec       q    Type
REMARK                         _______ _______ _______ _____ _____    ______ ____
ROOT
ATOM      1  C   UNL     1       0.458   3.012   5.136  0.00  0.00    +0.224 C 
ATOM      2  O   UNL     1       0.365   3.888   4.302  0.00  0.00    -0.275 OA
ATOM      3  N   UNL     1       0.579   3.332   6.439  0.00  0.00    -0.301 N 
ATOM      4  H   UNL     1       0.653   2.631   7.106  0.00  0.00    +0.150 HD
ENDROOT
BRANCH   1   5
ATOM      5  C   UNL     1       0.436   1.565   4.713  0.00  0.00    +0.171 C 
BRANCH   5   6
ATOM      6  S   UNL     1       0.264   1.464   2.910  0.00  0.00    -0.096 S 
BRANCH   6  13
ATOM      7  C   UNL     1      -0.018   1.503   0.010  0.00  0.00    +0.045 C 
ATOM      8  C   UNL     1       0.002  -0.004   0.002  0.00  0.00    -0.029 A 
ATOM      9  C   UNL     1      -0.095  -0.678  -1.154  0.00  0.00    -0.008 A 
ATOM     10  S   UNL     1      -0.024  -2.386  -0.648  0.00  0.00    -0.074 S 
ATOM     11  C   UNL     1       0.134  -2.149   1.102  0.00  0.00    +0.113 A 
ATOM     12  C   UNL     1       0.133  -0.744   1.245  0.00  0.00    +0.043 A 
ATOM     13  C   UNL     1       0.256  -0.266   2.579  0.00  0.00    +0.109 A 
ATOM     14  N   UNL     1       0.363  -1.139   3.570  0.00  0.00    -0.229 NA
ATOM     15  C   UNL     1       0.362  -2.443   3.361  0.00  0.00    +0.223 A 
ATOM     16  N   UNL     1       0.241  -2.946   2.147  0.00  0.00    -0.228 NA
ATOM     17  C   UNL     1      -0.232  -0.123  -2.548  0.00  0.00    +0.052 C 
ENDBRANCH   6  13
ENDBRANCH   5   6
ENDBRANCH   1   5
BRANCH   3  18
ATOM     18  C   UNL     1       0.599   4.738   6.850  0.00  0.00    +0.186 C 
BRANCH  18  19
ATOM     19  C   UNL     1       2.003   5.274   6.736  0.00  0.00    +0.328 C 
ATOM     20  O   UNL     1       2.895   4.555   6.352  0.00  0.00    -0.249 OA
BRANCH  19  21
ATOM     21  O   UNL     1       2.263   6.550   7.062  0.00  0.00    -0.467 OA
ATOM     22  C   UNL     1       3.616   6.991   6.931  0.00  0.00    +0.280 C 
ENDBRANCH  19  21
ENDBRANCH  18  19
BRANCH  18  23
ATOM     23  C   UNL     1       0.125   4.853   8.300  0.00  0.00    +0.067 C 
BRANCH  23  24
ATOM     24  C   UNL     1      -1.319   4.431   8.391  0.00  0.00    -0.039 C 
ATOM     25  C   UNL     1      -1.790   3.207   8.720  0.00  0.00    -0.001 A 
ATOM     26  C   UNL     1      -1.123   1.948   9.075  0.00  0.00    +0.010 A 
ATOM     27  C   UNL     1      -1.880   0.863   9.359  0.00  0.00    +0.001 A 
ATOM     28  C   UNL     1      -3.280   0.911   9.323  0.00  0.00    +0.002 A 
ATOM     29  C   UNL     1      -3.963   2.031   9.005  0.00  0.00    +0.026 A 
ATOM     30  C   UNL     1      -3.269   3.231   8.688  0.00  0.00    +0.043 A 
ATOM     31  N   UNL     1      -3.697   4.424   8.354  0.00  0.00    -0.380 N 
ATOM     32  C   UNL     1      -2.535   5.295   8.141  0.00  0.00    +0.144 C 
ATOM     33  H   UNL     1      -4.626   4.689   8.266  0.00  0.00    +0.160 HD
ENDBRANCH  23  24
ENDBRANCH  18  23
ENDBRANCH   3  18
TORSDOF 8
