REMARK  Name = ZINC40010923
REMARK  9 active torsions:
REMARK  status: ('A' for Active; 'I' for Inactive)
REMARK    1  A    between atoms: C_1  and  C_2
REMARK    2  A    between atoms: C_8  and  C_14
REMARK    3  A    between atoms: C_18  and  O_31
REMARK    4  A    between atoms: C_19  and  O_29
REMARK    5  A    between atoms: N_24  and  C_25
REMARK    6  A    between atoms: C_25  and  N_27
REMARK    7  A    between atoms: N_27  and  C_28
REMARK    8  A    between atoms: O_29  and  C_30
REMARK    9  A    between atoms: O_31  and  C_32
REMARK                            x       y       z     vdW  Elec       q    Type
REMARK                         _______ _______ _______ _____ _____    ______ ____
ROOT
ATOM      1  C   UNL     1       1.285  -2.406   4.449  0.00  0.00    +0.121 C 
ATOM      2  C   UNL     1       1.444  -1.671   5.756  0.00  0.00    -0.019 A 
ATOM      3  C   UNL     1       0.316  -1.513   6.550  0.00  0.00    +0.055 A 
ATOM      4  C   UNL     1       0.397  -0.857   7.765  0.00  0.00    +0.162 A 
ATOM      5  C   UNL     1       1.623  -0.355   8.193  0.00  0.00    +0.162 A 
ATOM      6  C   UNL     1       2.742  -0.512   7.398  0.00  0.00    +0.053 A 
ATOM      7  C   UNL     1       2.655  -1.166   6.174  0.00  0.00    -0.037 A 
ATOM      8  C   UNL     1       3.913  -1.273   5.352  0.00  0.00    +0.054 C 
ATOM      9  C   UNL     1       3.792  -2.390   4.316  0.00  0.00    +0.112 C 
ATOM     10  N   UNL     1       2.495  -2.237   3.637  0.00  0.00    -0.304 N 
ENDROOT
BRANCH   1  18
ATOM     11  C   UNL     1      -3.596   1.050   5.827  0.00  0.00    +0.045 C 
ATOM     12  C   UNL     1      -2.393   1.324   4.963  0.00  0.00    -0.029 A 
ATOM     13  C   UNL     1      -2.104   2.599   4.593  0.00  0.00    +0.005 A 
ATOM     14  C   UNL     1      -1.006   2.921   3.796  0.00  0.00    +0.001 A 
ATOM     15  C   UNL     1      -0.156   1.964   3.342  0.00  0.00    +0.009 A 
ATOM     16  C   UNL     1      -0.408   0.568   3.703  0.00  0.00    -0.007 A 
ATOM     17  C   UNL     1       0.418  -0.426   3.270  0.00  0.00    -0.003 C 
ATOM     18  C   UNL     1       0.081  -1.843   3.692  0.00  0.00    +0.123 C 
ATOM     19  C   UNL     1      -1.143  -2.037   4.558  0.00  0.00    +0.226 C 
ATOM     20  O   UNL     1      -1.460  -3.153   4.926  0.00  0.00    -0.275 OA
ATOM     21  N   UNL     1      -1.868  -0.990   4.915  0.00  0.00    -0.284 N 
ATOM     22  C   UNL     1      -1.572   0.258   4.550  0.00  0.00    +0.043 A 
ATOM     23  H   UNL     1      -2.649  -1.136   5.471  0.00  0.00    +0.155 HD
ENDBRANCH   1  18
BRANCH  10  24
ATOM     24  C   UNL     1       2.422  -1.954   2.321  0.00  0.00    +0.133 C 
ATOM     25  S   UNL     1       0.896  -1.848   1.552  0.00  0.00    -0.019 S 
BRANCH  24  26
ATOM     26  N   UNL     1       3.550  -1.755   1.611  0.00  0.00    -0.329 N 
ATOM     27  C   UNL     1       3.469  -1.340   0.209  0.00  0.00    +0.127 C 
ATOM     28  H   UNL     1       4.415  -1.886   2.029  0.00  0.00    +0.147 HD
ENDBRANCH  24  26
ENDBRANCH  10  24
BRANCH   5  29
ATOM     29  O   UNL     1       1.718   0.287   9.388  0.00  0.00    -0.491 OA
ATOM     30  C   UNL     1       3.008   0.776   9.761  0.00  0.00    +0.277 C 
ENDBRANCH   5  29
BRANCH   4  31
ATOM     31  O   UNL     1      -0.713  -0.704   8.536  0.00  0.00    -0.491 OA
ATOM     32  C   UNL     1      -1.934  -1.246   8.029  0.00  0.00    +0.277 C 
ENDBRANCH   4  31
TORSDOF 5
