REMARK  Name = ZINC16348039
REMARK  6 active torsions:
REMARK  status: ('A' for Active; 'I' for Inactive)
REMARK    1  A    between atoms: C_1  and  C_2
REMARK    2  A    between atoms: C_5  and  C_7
REMARK    3  A    between atoms: C_10  and  C_23
REMARK    4  A    between atoms: C_11  and  C_21
REMARK    5  A    between atoms: C_15  and  C_18
REMARK    6  A    between atoms: C_16  and  C_17
REMARK                            x       y       z     vdW  Elec       q    Type
REMARK                         _______ _______ _______ _____ _____    ______ ____
ROOT
ATOM      1  C   UNL     1       2.626  -1.316   1.011  0.00  0.00    +0.055 C 
ATOM      2  C   UNL     1       3.846  -1.770   0.521  0.00  0.00    -0.008 C 
ATOM      3  C   UNL     1       4.147  -3.144   0.076  0.00  0.00    +0.013 A 
ATOM      4  C   UNL     1       3.392  -4.308  -0.005  0.00  0.00    -0.020 A 
ATOM      5  C   UNL     1       4.009  -5.463  -0.495  0.00  0.00    +0.095 A 
ATOM      6  C   UNL     1       5.360  -5.404  -0.892  0.00  0.00    +0.135 A 
ATOM      7  N   UNL     1       6.045  -4.279  -0.807  0.00  0.00    -0.230 NA
ATOM      8  C   UNL     1       5.495  -3.157  -0.346  0.00  0.00    +0.092 A 
ATOM      9  C   UNL     1       6.021  -1.798  -0.150  0.00  0.00    +0.081 C 
ATOM     10  C   UNL     1       5.015  -1.000   0.366  0.00  0.00    -0.023 C 
ATOM     11  C   UNL     1       5.149   0.461   0.708  0.00  0.00    +0.046 C 
ATOM     12  N   UNL     1       5.978  -6.543  -1.379  0.00  0.00    -0.342 N 
ATOM     13  C   UNL     1       1.949  -4.326   0.430  0.00  0.00    +0.046 C 
ATOM     14  H   UNL     1       7.032  -6.506  -1.690  0.00  0.00    +0.144 HD
ATOM     15  H   UNL     1       5.415  -7.485  -1.454  0.00  0.00    +0.144 HD
ENDROOT
BRANCH   1  20
ATOM     16  C   UNL     1       3.782   2.681   3.691  0.00  0.00    +0.086 C 
ATOM     17  C   UNL     1       3.033   1.733   2.791  0.00  0.00    +0.103 A 
ATOM     18  C   UNL     1       1.820   1.971   2.235  0.00  0.00    +0.045 A 
ATOM     19  C   UNL     1       1.484   0.846   1.474  0.00  0.00    +0.049 A 
ATOM     20  C   UNL     1       2.537  -0.048   1.607  0.00  0.00    +0.129 A 
ATOM     21  O   UNL     1       3.459   0.522   2.412  0.00  0.00    -0.461 OA
ENDBRANCH   1  20
BRANCH   9  22
ATOM     22  C   UNL     1       7.356  -1.369  -0.445  0.00  0.00    +0.102 C 
ATOM     23  N   UNL     1       8.414  -1.030  -0.679  0.00  0.00    -0.191 NA
ENDBRANCH   9  22
BRANCH   5  24
ATOM     24  C   UNL     1       3.277  -6.690  -0.593  0.00  0.00    +0.103 C 
ATOM     25  N   UNL     1       2.697  -7.663  -0.671  0.00  0.00    -0.191 NA
ENDBRANCH   5  24
TORSDOF 3
