REMARK  Name = ZINC02593352
REMARK  3 active torsions:
REMARK  status: ('A' for Active; 'I' for Inactive)
REMARK    1  A    between atoms: C_5  and  C_7
REMARK    2  A    between atoms: C_8  and  C_9
REMARK    3  A    between atoms: C_15  and  C_23
REMARK                            x       y       z     vdW  Elec       q    Type
REMARK                         _______ _______ _______ _____ _____    ______ ____
ROOT
ATOM      1  C   UNL     1       0.127  -4.314  -0.023  0.00  0.00    +0.243 C 
ATOM      2  O   UNL     1       1.193  -4.902  -0.037  0.00  0.00    -0.270 OA
ATOM      3  N   UNL     1      -1.026  -5.011  -0.016  0.00  0.00    -0.252 N 
ATOM      4  C   UNL     1      -0.999  -6.400  -0.024  0.00  0.00    +0.229 C 
ATOM      5  N   UNL     1      -2.046  -7.180  -0.023  0.00  0.00    -0.143 NA
ATOM      6  N   UNL     1      -1.601  -8.498  -0.030  0.00  0.00    -0.184 N 
ATOM      7  C   UNL     1      -2.370  -9.745  -0.011  0.00  0.00    +0.140 C 
ATOM      8  C   UNL     1      -1.558 -10.816  -0.748  0.00  0.00    +0.127 C 
ATOM      9  C   UNL     1      -0.104 -10.739  -0.372  0.00  0.00    +0.241 C 
ATOM     10  O   UNL     1       0.549 -11.764  -0.333  0.00  0.00    -0.274 OA
ATOM     11  N   UNL     1       0.489  -9.587  -0.082  0.00  0.00    -0.148 NA
ATOM     12  C   UNL     1      -0.246  -8.475  -0.049  0.00  0.00    +0.222 C 
ATOM     13  N   UNL     1       0.136  -7.179  -0.040  0.00  0.00    -0.149 NA
ATOM     14  H   UNL     1      -1.876  -4.543  -0.005  0.00  0.00    +0.158 HD
ENDROOT
BRANCH   7  15
ATOM     15  C   UNL     1      -2.609 -10.175   1.413  0.00  0.00    -0.025 A 
ATOM     16  C   UNL     1      -1.605 -10.035   2.354  0.00  0.00    +0.007 A 
ATOM     17  C   UNL     1      -1.823 -10.430   3.661  0.00  0.00    +0.020 A 
ATOM     18  C   UNL     1      -3.046 -10.963   4.027  0.00  0.00    +0.041 A 
ATOM     19  C   UNL     1      -4.050 -11.102   3.086  0.00  0.00    +0.020 A 
ATOM     20  C   UNL     1      -3.832 -10.703   1.780  0.00  0.00    +0.007 A 
ATOM     21 CL   UNL     1      -3.320 -11.459   5.668  0.00  0.00    -0.084 Cl
ENDBRANCH   7  15
BRANCH   1  23
ATOM     22  C   UNL     1       1.254  -2.155  -0.022  0.00  0.00    +0.014 C 
ATOM     23  C   UNL     1       0.099  -2.852  -0.015  0.00  0.00    +0.068 C 
BRANCH  22  28
ATOM     24  C   UNL     1      -0.017   1.374   0.010  0.00  0.00    +0.001 A 
ATOM     25  C   UNL     1       1.170   2.087   0.002  0.00  0.00    +0.001 A 
ATOM     26  C   UNL     1       2.384   1.424  -0.013  0.00  0.00    +0.020 A 
ATOM     27  C   UNL     1       2.421   0.044  -0.021  0.00  0.00    +0.048 A 
ATOM     28  C   UNL     1       1.225  -0.683  -0.013  0.00  0.00    -0.007 A 
ATOM     29  C   UNL     1       0.002  -0.004   0.002  0.00  0.00    +0.009 A 
ATOM     30 CL   UNL     1       3.945  -0.787  -0.040  0.00  0.00    -0.083 Cl
ENDBRANCH  22  28
ENDBRANCH   1  23
TORSDOF 3
