REMARK  Name = ZINC26499396
REMARK  12 active torsions:
REMARK  status: ('A' for Active; 'I' for Inactive)
REMARK    1  A    between atoms: C_1  and  C_2
REMARK    2  A    between atoms: C_2  and  C_3
REMARK    3  A    between atoms: C_2  and  C_4
REMARK    4  A    between atoms: C_4  and  C_6
REMARK    5  A    between atoms: C_4  and  N_31
REMARK    6  A    between atoms: C_10  and  C_12
REMARK    7  A    between atoms: C_12  and  O_13
REMARK    8  A    between atoms: O_13  and  C_14
REMARK    9  A    between atoms: C_24  and  C_27
REMARK   10  A    between atoms: N_31  and  C_32
REMARK   11  A    between atoms: C_32  and  C_33
REMARK   12  A    between atoms: C_33  and  C_34
REMARK                            x       y       z     vdW  Elec       q    Type
REMARK                         _______ _______ _______ _____ _____    ______ ____
ROOT
ATOM      1  C   UNL     1      -0.875   1.585  -0.627  0.00  0.00    +0.028 A 
ATOM      2  C   UNL     1      -1.694   0.603  -1.151  0.00  0.00    +0.022 A 
ATOM      3  C   UNL     1      -2.662   0.955  -2.079  0.00  0.00    +0.004 A 
ATOM      4  C   UNL     1      -2.772   2.288  -2.445  0.00  0.00    +0.027 A 
ATOM      5  C   UNL     1      -1.919   3.214  -1.877  0.00  0.00    +0.079 A 
ATOM      6  N   UNL     1      -1.012   2.844  -0.995  0.00  0.00    -0.255 NA
ENDROOT
BRANCH   1   7
ATOM      7  C   UNL     1       0.181   1.214   0.382  0.00  0.00    -0.019 C 
BRANCH   7   9
ATOM      8  C   UNL     1       1.826   0.762  -1.443  0.00  0.00    +0.006 C 
ATOM      9  C   UNL     1       1.562   1.571  -0.171  0.00  0.00    -0.026 C 
ATOM     10  C   UNL     1       1.611   3.065  -0.497  0.00  0.00    +0.006 C 
ENDBRANCH   7   9
BRANCH   7  11
ATOM     11  N   UNL     1      -0.052   1.954   1.630  0.00  0.00    +0.385 N 
ATOM     12  H   UNL     1       0.432   2.939   1.568  0.00  0.00    -0.085 HD
ATOM     13  H   UNL     1      -1.134   2.086   1.781  0.00  0.00    -0.085 HD
BRANCH  11  14
ATOM     14  C   UNL     1       0.499   1.229   2.782  0.00  0.00    -0.077 C 
BRANCH  14  15
ATOM     15  C   UNL     1       0.142   1.972   4.071  0.00  0.00    +0.016 C 
BRANCH  15  16
ATOM     16  C   UNL     1       0.708   1.229   5.253  0.00  0.00    -0.049 A 
ATOM     17  C   UNL     1      -0.047   0.258   5.884  0.00  0.00    +0.003 A 
ATOM     18  C   UNL     1       0.474  -0.428   6.966  0.00  0.00    +0.000 A 
ATOM     19  C   UNL     1       1.745  -0.135   7.423  0.00  0.00    +0.000 A 
ATOM     20  C   UNL     1       2.498   0.841   6.795  0.00  0.00    +0.000 A 
ATOM     21  C   UNL     1       1.979   1.522   5.710  0.00  0.00    +0.003 A 
ENDBRANCH  15  16
ENDBRANCH  14  15
ENDBRANCH  11  14
ENDBRANCH   7  11
ENDBRANCH   1   7
BRANCH   5  22
ATOM     22  C   UNL     1      -2.029   4.666  -2.268  0.00  0.00    +0.286 C 
BRANCH  22  23
ATOM     23  O   UNL     1      -3.078   4.823  -3.226  0.00  0.00    -0.469 OA
BRANCH  23  24
ATOM     24  C   UNL     1      -3.310   6.077  -3.685  0.00  0.00    +0.241 A 
ATOM     25  C   UNL     1      -4.368   6.309  -4.674  0.00  0.00    +0.049 A 
ATOM     26  C   UNL     1      -5.160   5.267  -5.158  0.00  0.00    +0.014 A 
ATOM     27  C   UNL     1      -6.145   5.534  -6.082  0.00  0.00    +0.001 A 
ATOM     28  C   UNL     1      -6.362   6.829  -6.535  0.00  0.00    +0.001 A 
ATOM     29  C   UNL     1      -5.596   7.873  -6.068  0.00  0.00    +0.012 A 
ATOM     30  C   UNL     1      -4.593   7.627  -5.131  0.00  0.00    +0.033 A 
ATOM     31  C   UNL     1      -3.746   8.698  -4.599  0.00  0.00    +0.186 A 
ATOM     32  N   UNL     1      -3.681   9.997  -4.803  0.00  0.00    -0.127 NA
ATOM     33  N   UNL     1      -2.744  10.499  -4.077  0.00  0.00    -0.123 NA
ATOM     34  C   UNL     1      -2.165   9.558  -3.376  0.00  0.00    +0.258 A 
ATOM     35  N   UNL     1      -2.778   8.384  -3.680  0.00  0.00    -0.185 N 
ATOM     36  N   UNL     1      -2.588   7.072  -3.248  0.00  0.00    -0.125 NA
BRANCH  34  37
ATOM     37  C   UNL     1      -1.026   9.743  -2.406  0.00  0.00    +0.454 C 
ATOM     38  F   UNL     1      -0.891  11.102  -2.100  0.00  0.00    -0.163 F 
ATOM     39  F   UNL     1      -1.290   9.025  -1.235  0.00  0.00    -0.163 F 
ATOM     40  F   UNL     1       0.159   9.275  -2.984  0.00  0.00    -0.163 F 
ENDBRANCH  34  37
ENDBRANCH  23  24
ENDBRANCH  22  23
ENDBRANCH   5  22
TORSDOF 10
