REMARK  Name = ZINC40570758
REMARK  5 active torsions:
REMARK  status: ('A' for Active; 'I' for Inactive)
REMARK    1  A    between atoms: C_1  and  O_2
REMARK    2  A    between atoms: O_2  and  C_3
REMARK    3  A    between atoms: C_6  and  C_9
REMARK    4  A    between atoms: N_14  and  N_15
REMARK    5  A    between atoms: C_16  and  C_17
REMARK                            x       y       z     vdW  Elec       q    Type
REMARK                         _______ _______ _______ _____ _____    ______ ____
ROOT
ATOM      1  C   UNL     1      -4.960  -2.618   0.036  0.00  0.00    +0.055 A 
ATOM      2  C   UNL     1      -6.104  -1.902   0.040  0.00  0.00    +0.075 A 
ATOM      3  S   UNL     1      -7.348  -3.183   0.051  0.00  0.00    -0.056 S 
ATOM      4  C   UNL     1      -6.252  -4.593   0.049  0.00  0.00    +0.192 A 
ATOM      5  N   UNL     1      -5.018  -3.984   0.035  0.00  0.00    -0.332 N 
ATOM      6  N   UNL     1      -6.548  -5.881   0.055  0.00  0.00    -0.124 NA
ATOM      7  H   UNL     1      -4.205  -4.514   0.028  0.00  0.00    +0.168 HD
ENDROOT
BRANCH   1  11
ATOM      8  C   UNL     1      -1.200  -0.637   0.010  0.00  0.00    +0.120 A 
ATOM      9  C   UNL     1      -2.374   0.104   0.020  0.00  0.00    +0.046 A 
ATOM     10  C   UNL     1      -3.596  -0.534   0.028  0.00  0.00    +0.013 A 
ATOM     11  C   UNL     1      -3.652  -1.929   0.027  0.00  0.00    -0.001 A 
ATOM     12  C   UNL     1      -2.470  -2.671   0.017  0.00  0.00    +0.013 A 
ATOM     13  C   UNL     1      -1.252  -2.025   0.003  0.00  0.00    +0.046 A 
BRANCH   8  15
ATOM     14  C   UNL     1      -0.017   1.425   0.010  0.00  0.00    +0.277 C 
ATOM     15  O   UNL     1       0.002  -0.004   0.002  0.00  0.00    -0.495 OA
ENDBRANCH   8  15
ENDBRANCH   1  11
BRANCH   6  16
ATOM     16  N   UNL     1      -7.888  -6.292   0.063  0.00  0.00    -0.155 NA
ATOM     17  C   UNL     1      -8.180  -7.566   0.068  0.00  0.00    +0.145 C 
BRANCH  17  18
ATOM     18  C   UNL     1      -9.586  -7.997   0.077  0.00  0.00    +0.020 A 
ATOM     19  C   UNL     1     -10.043  -9.279   0.089  0.00  0.00    +0.093 A 
ATOM     20  N   UNL     1     -11.410  -9.278   0.095  0.00  0.00    -0.360 N 
ATOM     21  H   UNL     1     -11.964 -10.074   0.103  0.00  0.00    +0.165 HD
ATOM     22  C   UNL     1     -11.886  -7.985   0.086  0.00  0.00    +0.047 A 
ATOM     23  C   UNL     1     -10.774  -7.126   0.080  0.00  0.00    +0.008 A 
ATOM     24  C   UNL     1     -10.960  -5.745   0.075  0.00  0.00    +0.010 A 
ATOM     25  C   UNL     1     -12.237  -5.228   0.080  0.00  0.00    +0.001 A 
ATOM     26  C   UNL     1     -13.335  -6.075   0.089  0.00  0.00    +0.002 A 
ATOM     27  C   UNL     1     -13.168  -7.443   0.086  0.00  0.00    +0.026 A 
ENDBRANCH  17  18
ENDBRANCH   6  16
TORSDOF 4
