REMARK  Name = ZINC01097112
REMARK  7 active torsions:
REMARK  status: ('A' for Active; 'I' for Inactive)
REMARK    1  A    between atoms: C_1  and  N_2
REMARK    2  A    between atoms: N_2  and  C_3
REMARK    3  A    between atoms: N_2  and  C_4
REMARK    4  A    between atoms: C_7  and  N_10
REMARK    5  A    between atoms: C_14  and  C_15
REMARK    6  A    between atoms: N_16  and  N_17
REMARK    7  A    between atoms: C_18  and  C_20
REMARK                            x       y       z     vdW  Elec       q    Type
REMARK                         _______ _______ _______ _____ _____    ______ ____
ROOT
ATOM      1  N   UNL     1       4.858   1.261  -0.035  0.00  0.00    -0.315 N 
ATOM      2  C   UNL     1       5.764   2.280  -0.024  0.00  0.00    +0.092 A 
ATOM      3  C   UNL     1       5.096   3.456  -0.016  0.00  0.00    +0.020 A 
ATOM      4  C   UNL     1       3.723   3.172  -0.027  0.00  0.00    +0.029 A 
ATOM      5  C   UNL     1       3.592   1.800  -0.033  0.00  0.00    +0.066 A 
ENDROOT
BRANCH   1   9
ATOM      6  C   UNL     1       5.773  -2.809  -0.065  0.00  0.00    +0.029 A 
ATOM      7  C   UNL     1       6.377  -1.954  -0.979  0.00  0.00    +0.025 A 
ATOM      8  C   UNL     1       6.074  -0.608  -0.969  0.00  0.00    +0.028 A 
ATOM      9  C   UNL     1       5.165  -0.107  -0.045  0.00  0.00    +0.047 A 
ATOM     10  C   UNL     1       4.566  -0.961   0.871  0.00  0.00    +0.028 A 
ATOM     11  C   UNL     1       4.865  -2.308   0.858  0.00  0.00    +0.025 A 
BRANCH   6  13
ATOM     12  C   UNL     1       6.941  -4.723  -1.126  0.00  0.00    +0.129 C 
ATOM     13  N   UNL     1       6.081  -4.173  -0.075  0.00  0.00    -0.336 N 
ATOM     14  C   UNL     1       5.542  -5.053   0.965  0.00  0.00    +0.129 C 
ENDBRANCH   6  13
ENDBRANCH   1   9
BRANCH   5  15
ATOM     15  C   UNL     1       2.331   1.050  -0.042  0.00  0.00    +0.156 C 
ATOM     16  N   UNL     1       1.196   1.686  -0.039  0.00  0.00    -0.186 NA
BRANCH  16  17
ATOM     17  N   UNL     1      -0.008   0.970  -0.048  0.00  0.00    -0.203 N 
ATOM     18  C   UNL     1      -1.183   1.629  -0.050  0.00  0.00    +0.264 C 
ATOM     19  O   UNL     1      -1.199   2.845  -0.040  0.00  0.00    -0.268 OA
ATOM     20  H   UNL     1       0.005   0.001  -0.056  0.00  0.00    +0.178 HD
BRANCH  18  21
ATOM     21  C   UNL     1      -2.453   0.874  -0.065  0.00  0.00    +0.052 A 
ATOM     22  C   UNL     1      -2.439  -0.522  -0.083  0.00  0.00    +0.014 A 
ATOM     23  C   UNL     1      -3.628  -1.221  -0.092  0.00  0.00    +0.001 A 
ATOM     24  C   UNL     1      -4.834  -0.541  -0.094  0.00  0.00    +0.001 A 
ATOM     25  C   UNL     1      -4.856   0.841  -0.082  0.00  0.00    +0.016 A 
ATOM     26  C   UNL     1      -3.674   1.554  -0.068  0.00  0.00    +0.030 A 
ATOM     27 BR   UNL     1      -3.706   3.445  -0.053  0.00  0.00    -0.050 Br
ENDBRANCH  18  21
ENDBRANCH  16  17
ENDBRANCH   5  15
TORSDOF 5
