REMARK  Name = ZINC39530307
REMARK  10 active torsions:
REMARK  status: ('A' for Active; 'I' for Inactive)
REMARK    1  A    between atoms: C_1  and  C_2
REMARK    2  A    between atoms: C_2  and  C_3
REMARK    3  A    between atoms: C_2  and  S_4
REMARK    4  A    between atoms: S_4  and  C_7
REMARK    5  A    between atoms: C_10  and  N_20
REMARK    6  A    between atoms: C_11  and  C_13
REMARK    7  A    between atoms: C_18  and  O_19
REMARK    8  A    between atoms: C_24  and  S_27
REMARK    9  A    between atoms: S_27  and  O_30
REMARK   10  A    between atoms: O_30  and  C_31
REMARK                            x       y       z     vdW  Elec       q    Type
REMARK                         _______ _______ _______ _____ _____    ______ ____
ROOT
ATOM      1  C   UNL     1      -1.536  -2.381   0.152  0.00  0.00    +0.089 A 
ATOM      2  C   UNL     1      -1.442  -3.156  -0.990  0.00  0.00    +0.029 A 
ATOM      3  C   UNL     1      -1.313  -4.528  -0.894  0.00  0.00    +0.025 A 
ATOM      4  C   UNL     1      -1.278  -5.137   0.353  0.00  0.00    +0.038 A 
ATOM      5  C   UNL     1      -1.373  -4.355   1.510  0.00  0.00    +0.008 A 
ATOM      6  C   UNL     1      -1.497  -2.972   1.399  0.00  0.00    +0.037 A 
ENDROOT
BRANCH   4   7
ATOM      7  N   UNL     1      -1.149  -6.522   0.453  0.00  0.00    -0.331 N 
ATOM      8  C   UNL     1      -2.334  -7.393   0.478  0.00  0.00    +0.086 C 
ATOM      9  C   UNL     1      -2.145  -8.501  -0.563  0.00  0.00    -0.061 C 
ATOM     10  N   UNL     1      -0.877  -9.197  -0.312  0.00  0.00    +0.398 N 
ATOM     11  C   UNL     1       0.248  -8.274  -0.509  0.00  0.00    +0.133 C 
ATOM     12  C   UNL     1       0.177  -7.155   0.529  0.00  0.00    +0.115 C 
ATOM     13  H   UNL     1      -0.866  -9.541   0.637  0.00  0.00    -0.083 HD
ATOM     14  H   UNL     1      -0.789  -9.974  -0.949  0.00  0.00    -0.083 HD
BRANCH  11  15
ATOM     15  S   UNL     1       1.810  -9.176  -0.324  0.00  0.00    +0.109 S 
ATOM     16  O   UNL     1       2.903  -8.342  -0.686  0.00  0.00    -0.138 OA
ATOM     17  O   UNL     1       1.821  -9.891   0.904  0.00  0.00    -0.138 OA
BRANCH  15  18
ATOM     18  O   UNL     1       1.770 -10.252  -1.400  0.00  0.00    -0.347 OA
BRANCH  18  19
ATOM     19  C   UNL     1       1.992  -9.786  -2.657  0.00  0.00    +0.156 A 
ATOM     20  C   UNL     1       0.928  -9.358  -3.437  0.00  0.00    +0.048 A 
ATOM     21  C   UNL     1       1.157  -8.884  -4.715  0.00  0.00    +0.004 A 
ATOM     22  C   UNL     1       2.445  -8.836  -5.215  0.00  0.00    +0.000 A 
ATOM     23  C   UNL     1       3.507  -9.263  -4.439  0.00  0.00    +0.004 A 
ATOM     24  C   UNL     1       3.284  -9.732  -3.159  0.00  0.00    +0.048 A 
ENDBRANCH  18  19
ENDBRANCH  15  18
ENDBRANCH  11  15
ENDBRANCH   4   7
BRANCH   5  25
ATOM     25  C   UNL     1      -1.337  -4.995   2.847  0.00  0.00    +0.025 A 
ATOM     26  C   UNL     1      -2.457  -4.948   3.675  0.00  0.00    +0.012 A 
ATOM     27  C   UNL     1      -2.418  -5.546   4.919  0.00  0.00    +0.001 A 
ATOM     28  C   UNL     1      -1.272  -6.192   5.346  0.00  0.00    +0.004 A 
ATOM     29  C   UNL     1      -0.156  -6.244   4.532  0.00  0.00    +0.046 A 
ATOM     30  C   UNL     1      -0.182  -5.653   3.279  0.00  0.00    +0.125 A 
BRANCH  30  31
ATOM     31  O   UNL     1       0.912  -5.709   2.476  0.00  0.00    -0.506 OA
ATOM     32  H   UNL     1       1.526  -4.971   2.596  0.00  0.00    +0.292 HD
ENDBRANCH  30  31
ENDBRANCH   5  25
BRANCH   1  33
ATOM     33  S   UNL     1      -1.700  -0.632   0.015  0.00  0.00    -0.001 S 
ATOM     34  O   UNL     1      -2.359  -0.234   1.209  0.00  0.00    -0.169 OA
ATOM     35  O   UNL     1      -2.308  -0.423  -1.252  0.00  0.00    -0.169 OA
BRANCH  33  37
ATOM     36  C   UNL     1      -0.019   1.526   0.010  0.00  0.00    +0.032 C 
ATOM     37  C   UNL     1       0.002  -0.004   0.002  0.00  0.00    +0.130 C 
ATOM     38  C   UNL     1       0.742  -0.511   1.242  0.00  0.00    +0.032 C 
ENDBRANCH  33  37
ENDBRANCH   1  33
TORSDOF 8
