REMARK  Name = ZINC39774490
REMARK  9 active torsions:
REMARK  status: ('A' for Active; 'I' for Inactive)
REMARK    1  A    between atoms: C_6  and  C_7
REMARK    2  A    between atoms: N_8  and  N_9
REMARK    3  A    between atoms: N_9  and  C_10
REMARK    4  A    between atoms: C_16  and  N_20
REMARK    5  A    between atoms: N_21  and  C1*_22
REMARK    6  A    between atoms: C2*_24  and  O2*_34
REMARK    7  A    between atoms: C3*_26  and  O3*_33
REMARK    8  A    between atoms: C4*_28  and  C5*_31
REMARK    9  A    between atoms: C5*_31  and  O5*_32
REMARK                            x       y       z     vdW  Elec       q    Type
REMARK                         _______ _______ _______ _____ _____    ______ ____
ROOT
ATOM      1  C   UNL     1      -2.421  -4.244   0.003  0.00  0.00    +0.302 C 
ATOM      2  N   UNL     1      -2.449  -4.755   1.378  0.00  0.00    -0.233 NA
ATOM      3  C   UNL     1      -3.506  -5.476   1.532  0.00  0.00    +0.166 C 
ATOM      4  C   UNL     1      -4.284  -5.512   0.266  0.00  0.00    +0.160 C 
ATOM      5  N   UNL     1      -5.401  -6.208   0.245  0.00  0.00    -0.198 NA
ATOM      6  C   UNL     1      -5.837  -6.867   1.319  0.00  0.00    +0.226 C 
ATOM      7  N   UNL     1      -5.217  -6.894   2.485  0.00  0.00    -0.141 NA
ATOM      8  C   UNL     1      -4.065  -6.242   2.684  0.00  0.00    +0.292 C 
ATOM      9  O   UNL     1      -3.498  -6.271   3.762  0.00  0.00    -0.266 OA
ATOM     10  N   UNL     1      -3.623  -4.763  -0.664  0.00  0.00    -0.246 N 
ENDROOT
BRANCH  10  11
ATOM     11  C1* UNL     1      -4.030  -4.524  -2.051  0.00  0.00    +0.242 C 
ATOM     12  C2* UNL     1      -4.091  -5.856  -2.830  0.00  0.00    +0.193 C 
ATOM     13  C3* UNL     1      -3.574  -5.490  -4.240  0.00  0.00    +0.178 C 
ATOM     14  C4* UNL     1      -3.261  -3.980  -4.144  0.00  0.00    +0.177 C 
ATOM     15  O4* UNL     1      -3.034  -3.736  -2.738  0.00  0.00    -0.348 OA
BRANCH  13  16
ATOM     16  O3* UNL     1      -2.391  -6.231  -4.547  0.00  0.00    -0.386 OA
ATOM     17  H3* UNL     1      -2.023  -6.040  -5.420  0.00  0.00    +0.210 HD
ENDBRANCH  13  16
BRANCH  12  18
ATOM     18  O2* UNL     1      -3.244  -6.832  -2.221  0.00  0.00    -0.385 OA
ATOM     19  H2* UNL     1      -3.245  -7.689  -2.671  0.00  0.00    +0.210 HD
ENDBRANCH  12  18
BRANCH  14  20
ATOM     20  C5* UNL     1      -2.009  -3.644  -4.956  0.00  0.00    +0.190 C 
BRANCH  20  21
ATOM     21  O5* UNL     1      -1.804  -2.229  -4.951  0.00  0.00    -0.392 OA
ATOM     22  H5* UNL     1      -1.026  -1.943  -5.448  0.00  0.00    +0.210 HD
ENDBRANCH  20  21
ENDBRANCH  14  20
ENDBRANCH  10  11
BRANCH   1  23
ATOM     23  N   UNL     1      -2.444  -2.779   0.011  0.00  0.00    -0.229 N 
ATOM     24  H   UNL     1      -3.292  -2.308   0.022  0.00  0.00    +0.172 HD
BRANCH  23  26
ATOM     25  C   UNL     1      -1.263  -0.762   0.011  0.00  0.00    +0.138 C 
ATOM     26  N   UNL     1      -1.242  -2.059   0.003  0.00  0.00    -0.192 NA
BRANCH  25  32
ATOM     27  C   UNL     1      -0.017   1.393   0.010  0.00  0.00    +0.010 A 
ATOM     28  C   UNL     1       1.170   2.095   0.002  0.00  0.00    +0.016 A 
ATOM     29  C   UNL     1       2.378   1.419  -0.013  0.00  0.00    +0.018 A 
ATOM     30  C   UNL     1       2.404   0.035  -0.021  0.00  0.00    +0.016 A 
ATOM     31  C   UNL     1       1.224  -0.680  -0.013  0.00  0.00    +0.010 A 
ATOM     32  C   UNL     1       0.002  -0.004   0.002  0.00  0.00    -0.005 A 
ATOM     33 BR   UNL     1       4.000   2.391  -0.025  0.00  0.00    -0.050 Br
ENDBRANCH  25  32
ENDBRANCH  23  26
ENDBRANCH   1  23
BRANCH   6  34
ATOM     34  N   UNL     1      -7.011  -7.566   1.206  0.00  0.00    -0.234 NA
ATOM     35  H   UNL     1      -7.359  -8.057   1.966  0.00  0.00    +0.173 HD
ENDBRANCH   6  34
TORSDOF 9
