REMARK  Name = ZINC00926505
REMARK  9 active torsions:
REMARK  status: ('A' for Active; 'I' for Inactive)
REMARK    1  A    between atoms: C_1  and  C_2
REMARK    2  A    between atoms: C_7  and  C_15
REMARK    3  A    between atoms: C_13  and  C_14
REMARK    4  A    between atoms: C_15  and  N_16
REMARK    5  A    between atoms: N_16  and  C_17
REMARK    6  A    between atoms: N_16  and  C_27
REMARK    7  A    between atoms: C_17  and  C_18
REMARK    8  A    between atoms: C_27  and  C_28
REMARK    9  A    between atoms: N_32  and  C_33
REMARK                            x       y       z     vdW  Elec       q    Type
REMARK                         _______ _______ _______ _____ _____    ______ ____
ROOT
ATOM      1  N   UNL     1       5.971  -1.055   1.134  0.00  0.00    +0.390 N 
ATOM      2  H   UNL     1       6.034  -0.367   0.278  0.00  0.00    -0.080 HD
ENDROOT
BRANCH   1   3
ATOM      3  C   UNL     1       7.296  -1.112   1.766  0.00  0.00    -0.036 C 
BRANCH   3  10
ATOM      4  C   UNL     1      12.944  -1.787  -3.825  0.00  0.00    +0.044 C 
ATOM      5  C   UNL     1      11.913  -1.429  -2.786  0.00  0.00    -0.046 A 
ATOM      6  C   UNL     1      11.692  -0.096  -2.468  0.00  0.00    +0.004 A 
ATOM      7  C   UNL     1      10.762   0.250  -1.529  0.00  0.00    +0.010 A 
ATOM      8  C   UNL     1      10.025  -0.748  -0.883  0.00  0.00    -0.001 A 
ATOM      9  C   UNL     1       9.017  -0.413   0.124  0.00  0.00    +0.017 A 
ATOM     10  C   UNL     1       8.337  -1.423   0.722  0.00  0.00    +0.001 A 
ATOM     11  C   UNL     1       8.598  -2.763   0.365  0.00  0.00    +0.251 A 
ATOM     12  O   UNL     1       7.972  -3.656   0.912  0.00  0.00    -0.268 OA
ATOM     13  N   UNL     1       9.518  -3.081  -0.561  0.00  0.00    -0.322 N 
ATOM     14  H   UNL     1       9.700  -4.135  -0.818  0.00  0.00    +0.169 HD
ATOM     15  C   UNL     1      10.246  -2.101  -1.202  0.00  0.00    +0.052 A 
ATOM     16  C   UNL     1      11.199  -2.429  -2.161  0.00  0.00    -0.024 A 
ATOM     17  C   UNL     1      11.450  -3.872  -2.516  0.00  0.00    +0.046 C 
ENDBRANCH   3  10
ENDBRANCH   1   3
BRANCH   1  18
ATOM     18  C   UNL     1       4.966  -0.525   2.065  0.00  0.00    -0.042 C 
BRANCH  18  19
ATOM     19  C   UNL     1       5.127   0.969   2.181  0.00  0.00    -0.060 A 
ATOM     20  C   UNL     1       4.534   1.800   1.249  0.00  0.00    +0.005 A 
ATOM     21  C   UNL     1       4.679   3.171   1.350  0.00  0.00    +0.050 A 
ATOM     22  C   UNL     1       5.419   3.716   2.388  0.00  0.00    +0.166 A 
ATOM     23  C   UNL     1       6.015   2.878   3.327  0.00  0.00    +0.166 A 
ATOM     24  C   UNL     1       5.865   1.505   3.219  0.00  0.00    +0.051 A 
ATOM     25  O   UNL     1       6.680   3.647   4.238  0.00  0.00    -0.453 OA
ATOM     26  C   UNL     1       6.147   4.975   4.082  0.00  0.00    +0.466 C 
ATOM     27  O   UNL     1       5.710   5.010   2.710  0.00  0.00    -0.453 OA
ENDBRANCH  18  19
ENDBRANCH   1  18
BRANCH   1  28
ATOM     28  C   UNL     1       5.573  -2.374   0.625  0.00  0.00    +0.001 C 
BRANCH  28  29
ATOM     29  C   UNL     1       4.305  -2.241  -0.178  0.00  0.00    +0.135 A 
ATOM     30  N   UNL     1       3.082  -2.439   0.250  0.00  0.00    -0.115 NA
ATOM     31  N   UNL     1       2.276  -2.224  -0.732  0.00  0.00    -0.023 NA
ATOM     32  N   UNL     1       2.954  -1.903  -1.778  0.00  0.00    -0.044 NA
ATOM     33  N   UNL     1       4.209  -1.902  -1.477  0.00  0.00    -0.228 N 
BRANCH  33  34
ATOM     34  C   UNL     1       5.320  -1.590  -2.380  0.00  0.00    +0.111 C 
ATOM     35  C   UNL     1       5.144  -0.173  -2.964  0.00  0.00    +0.027 C 
ATOM     36  C   UNL     1       5.649  -0.299  -4.423  0.00  0.00    +0.002 C 
ATOM     37  C   UNL     1       5.141  -1.702  -4.842  0.00  0.00    +0.002 C 
ATOM     38  C   UNL     1       5.318  -2.562  -3.573  0.00  0.00    +0.027 C 
ENDBRANCH  33  34
ENDBRANCH  28  29
ENDBRANCH   1  28
TORSDOF 7
