REMARK  Name = ZINC36925962
REMARK  3 active torsions:
REMARK  status: ('A' for Active; 'I' for Inactive)
REMARK    1  A    between atoms: C_2  and  C_12
REMARK    2  A    between atoms: C_12  and  C_14
REMARK    3  A    between atoms: C_12  and  N_20
REMARK                            x       y       z     vdW  Elec       q    Type
REMARK                         _______ _______ _______ _____ _____    ______ ____
ROOT
ATOM      1  C   UNL     1      -0.017   1.382   0.010  0.00  0.00    +0.052 A 
ATOM      2  C   UNL     1       1.170   2.091   0.002  0.00  0.00    -0.042 A 
ATOM      3  C   UNL     1       2.379   1.420  -0.014  0.00  0.00    +0.023 A 
ATOM      4  C   UNL     1       2.404   0.037  -0.024  0.00  0.00    +0.065 A 
ATOM      5  C   UNL     1       1.217  -0.679  -0.017  0.00  0.00    +0.163 A 
ATOM      6  C   UNL     1       0.002  -0.004   0.002  0.00  0.00    +0.162 A 
ATOM      7  O   UNL     1      -1.175  -0.688   0.016  0.00  0.00    -0.485 OA
ATOM      8  C   UNL     1      -1.122  -2.066  -0.368  0.00  0.00    +0.270 C 
ATOM      9  C   UNL     1       0.060  -2.723   0.357  0.00  0.00    +0.270 C 
ATOM     10  O   UNL     1       1.258  -2.040  -0.031  0.00  0.00    -0.485 OA
ATOM     11 BR   UNL     1       4.000   2.394  -0.023  0.00  0.00    -0.050 Br
ENDROOT
BRANCH   2  12
ATOM     12  C   UNL     1       1.146   3.598   0.011  0.00  0.00    -0.014 C 
BRANCH  12  13
ATOM     13  C   UNL     1       1.402   4.104   1.432  0.00  0.00    +0.108 C 
ATOM     14  C   UNL     1       1.224   5.642   1.496  0.00  0.00    +0.032 C 
ATOM     15  C   UNL     1       0.880   5.837   2.998  0.00  0.00    +0.030 C 
ATOM     16  C   UNL     1       0.078   4.558   3.319  0.00  0.00    +0.160 C 
ATOM     17  O   UNL     1       0.420   3.573   2.335  0.00  0.00    -0.378 OA
ENDBRANCH  12  13
BRANCH  12  18
ATOM     18  N   UNL     1      -0.168   4.070  -0.448  0.00  0.00    +0.384 N 
ATOM     19  H   UNL     1      -0.885   3.719   0.169  0.00  0.00    -0.089 HD
ATOM     20  H   UNL     1      -0.183   5.079  -0.442  0.00  0.00    -0.089 HD
ATOM     21  H   UNL     1      -0.336   3.736  -1.385  0.00  0.00    -0.089 HD
ENDBRANCH  12  18
ENDBRANCH   2  12
TORSDOF 3
