REMARK  Name = ZINC14083081
REMARK  7 active torsions:
REMARK  status: ('A' for Active; 'I' for Inactive)
REMARK    1  A    between atoms: C_5  and  C_7
REMARK    2  A    between atoms: C_10  and  S_15
REMARK    3  A    between atoms: N_11  and  C_12
REMARK    4  A    between atoms: S_15  and  C_16
REMARK    5  A    between atoms: C_16  and  C_17
REMARK    6  A    between atoms: C_17  and  O_18
REMARK    7  A    between atoms: O_18  and  C_19
REMARK                            x       y       z     vdW  Elec       q    Type
REMARK                         _______ _______ _______ _____ _____    ______ ____
ROOT
ATOM      1  C   UNL     1       1.167   3.566   0.070  0.00  0.00    +0.168 A 
ATOM      2  N   UNL     1       0.110   4.337  -0.039  0.00  0.00    -0.128 NA
ATOM      3  N   UNL     1       0.468   5.571  -0.069  0.00  0.00    -0.122 NA
ATOM      4  C   UNL     1       1.776   5.663   0.009  0.00  0.00    +0.192 A 
ATOM      5  N   UNL     1       2.267   4.392   0.100  0.00  0.00    -0.299 N 
ENDROOT
BRANCH   1  10
ATOM      6  C   UNL     1       2.057  -0.023  -0.585  0.00  0.00    +0.001 A 
ATOM      7  C   UNL     1       1.190  -0.678   0.272  0.00  0.00    +0.003 A 
ATOM      8  C   UNL     1       0.314   0.043   1.064  0.00  0.00    +0.039 A 
ATOM      9  C   UNL     1       0.300   1.423   1.004  0.00  0.00    +0.134 A 
ATOM     10  C   UNL     1       1.174   2.090   0.140  0.00  0.00    +0.054 A 
ATOM     11  C   UNL     1       2.054   1.354  -0.655  0.00  0.00    +0.014 A 
ATOM     12  F   UNL     1      -0.555   2.127   1.777  0.00  0.00    -0.205 F 
ENDBRANCH   1  10
BRANCH   5  13
ATOM     13  C   UNL     1       3.672   3.991   0.207  0.00  0.00    +0.091 C 
ATOM     14  C   UNL     1       4.684   5.064   0.614  0.00  0.00    +0.027 C 
ATOM     15  C   UNL     1       4.648   4.553  -0.829  0.00  0.00    +0.027 C 
ENDBRANCH   5  13
BRANCH   4  16
ATOM     16  S   UNL     1       2.721   7.150  -0.002  0.00  0.00    -0.083 S 
BRANCH  16  17
ATOM     17  C   UNL     1       1.390   8.368  -0.143  0.00  0.00    +0.118 C 
BRANCH  17  18
ATOM     18  C   UNL     1       1.987   9.776  -0.172  0.00  0.00    +0.240 C 
BRANCH  18  19
ATOM     19  O   UNL     1       0.936  10.738  -0.284  0.00  0.00    -0.488 OA
BRANCH  19  20
ATOM     20  C   UNL     1       1.299  12.047  -0.323  0.00  0.00    +0.156 A 
ATOM     21  C   UNL     1       2.638  12.400  -0.249  0.00  0.00    +0.048 A 
ATOM     22  C   UNL     1       3.005  13.731  -0.294  0.00  0.00    +0.004 A 
ATOM     23  C   UNL     1       2.038  14.713  -0.401  0.00  0.00    +0.003 A 
ATOM     24  C   UNL     1       0.701  14.367  -0.470  0.00  0.00    +0.042 A 
ATOM     25  C   UNL     1       0.328  13.035  -0.431  0.00  0.00    +0.165 A 
ATOM     26  F   UNL     1      -0.978  12.696  -0.497  0.00  0.00    -0.202 F 
ENDBRANCH  19  20
ENDBRANCH  18  19
ENDBRANCH  17  18
ENDBRANCH  16  17
ENDBRANCH   4  16
TORSDOF 7
