REMARK  Name = ZINC36597665
REMARK  18 active torsions:
REMARK  status: ('A' for Active; 'I' for Inactive)
REMARK    1  A    between atoms: C_1  and  C_2
REMARK    2  A    between atoms: C_5  and  C_7
REMARK    3  A    between atoms: C_7  and  N_8
REMARK    4  A    between atoms: N_8  and  C_9
REMARK    5  A    between atoms: C_9  and  C_11
REMARK    6  A    between atoms: C_9  and  C_18
REMARK    7  A    between atoms: C_14  and  O_17
REMARK    8  A    between atoms: N_20  and  C_21
REMARK    9  A    between atoms: C_21  and  C_22
REMARK   10  A    between atoms: C_21  and  C_23
REMARK   11  A    between atoms: C_21  and  C_24
REMARK   12  A    between atoms: C_24  and  C_25
REMARK   13  A    between atoms: C_25  and  C_26
REMARK   14  A    between atoms: C_25  and  C_27
REMARK   15  A    between atoms: C_25  and  C_28
REMARK   16  A    between atoms: C_29  and  C_31
REMARK   17  A    between atoms: C_35  and  O_38
REMARK   18  A    between atoms: C_36  and  O_37
REMARK                            x       y       z     vdW  Elec       q    Type
REMARK                         _______ _______ _______ _____ _____    ______ ____
ROOT
ATOM      1  C   UNL     1       3.075  -3.305  -1.311  0.00  0.00    +0.193 C 
ENDROOT
BRANCH   1   2
ATOM      2  C   UNL     1       2.500  -2.185  -2.139  0.00  0.00    -0.018 A 
ATOM      3  C   UNL     1       1.564  -2.461  -3.119  0.00  0.00    +0.009 A 
ATOM      4  C   UNL     1       1.036  -1.436  -3.879  0.00  0.00    +0.046 A 
ATOM      5  C   UNL     1       1.445  -0.129  -3.659  0.00  0.00    +0.117 A 
ATOM      6  C   UNL     1       2.384   0.146  -2.675  0.00  0.00    +0.046 A 
ATOM      7  C   UNL     1       2.905  -0.882  -1.914  0.00  0.00    +0.009 A 
BRANCH   5   8
ATOM      8  O   UNL     1       0.927   0.882  -4.406  0.00  0.00    -0.507 OA
ATOM      9  H   UNL     1       0.128   1.278  -4.033  0.00  0.00    +0.292 HD
ENDBRANCH   5   8
ENDBRANCH   1   2
BRANCH   1  10
ATOM     10  C   UNL     1       4.405  -3.722  -1.884  0.00  0.00    +0.239 C 
ATOM     11  O   UNL     1       4.561  -4.853  -2.294  0.00  0.00    -0.273 OA
ATOM     12  N   UNL     1       5.421  -2.838  -1.940  0.00  0.00    -0.308 N 
ATOM     13  H   UNL     1       5.296  -1.934  -1.612  0.00  0.00    +0.149 HD
BRANCH  12  14
ATOM     14  C   UNL     1       6.714  -3.243  -2.497  0.00  0.00    +0.030 C 
ATOM     15  C   UNL     1       7.412  -4.196  -1.525  0.00  0.00    +0.031 C 
ATOM     16  C   UNL     1       6.494  -3.951  -3.836  0.00  0.00    +0.031 C 
BRANCH  14  17
ATOM     17  C   UNL     1       7.587  -2.005  -2.712  0.00  0.00    +0.031 C 
BRANCH  17  18
ATOM     18  C   UNL     1       6.734  -0.874  -3.292  0.00  0.00    -0.036 C 
ATOM     19  C   UNL     1       5.725  -0.406  -2.241  0.00  0.00    +0.010 C 
ATOM     20  C   UNL     1       7.638   0.295  -3.688  0.00  0.00    +0.010 C 
ATOM     21  C   UNL     1       5.986  -1.381  -4.527  0.00  0.00    +0.010 C 
ENDBRANCH  17  18
ENDBRANCH  14  17
ENDBRANCH  12  14
ENDBRANCH   1  10
BRANCH   1  22
ATOM     22  N   UNL     1       2.156  -4.447  -1.329  0.00  0.00    -0.275 N 
ATOM     23  C   UNL     1       0.948  -4.349  -0.740  0.00  0.00    +0.252 C 
ATOM     24  O   UNL     1       0.163  -5.275  -0.806  0.00  0.00    -0.270 OA
BRANCH  23  25
ATOM     25  C   UNL     1       0.579  -3.119  -0.014  0.00  0.00    +0.082 A 
ATOM     26  C   UNL     1       1.446  -2.022  -0.004  0.00  0.00    +0.017 A 
ATOM     27  C   UNL     1       1.097  -0.874   0.674  0.00  0.00    +0.005 A 
ATOM     28  C   UNL     1      -0.111  -0.799   1.348  0.00  0.00    +0.049 A 
ATOM     29  C   UNL     1      -0.980  -1.877   1.347  0.00  0.00    +0.159 A 
ATOM     30  C   UNL     1      -0.644  -3.041   0.662  0.00  0.00    +0.171 A 
BRANCH  30  31
ATOM     31  O   UNL     1      -1.496  -4.098   0.654  0.00  0.00    -0.503 OA
ATOM     32  H   UNL     1      -1.359  -4.719   1.383  0.00  0.00    +0.292 HD
ENDBRANCH  30  31
BRANCH  29  33
ATOM     33  O   UNL     1      -2.164  -1.796   2.012  0.00  0.00    -0.503 OA
ATOM     34  H   UNL     1      -2.894  -1.460   1.475  0.00  0.00    +0.292 HD
ENDBRANCH  29  33
ENDBRANCH  23  25
BRANCH  22  35
ATOM     35  C   UNL     1       2.551  -5.694  -1.988  0.00  0.00    +0.183 C 
BRANCH  35  40
ATOM     36  C   UNL     1       6.340  -7.880   0.525  0.00  0.00    +0.086 C 
ATOM     37  C   UNL     1       4.947  -7.514   0.083  0.00  0.00    +0.102 A 
ATOM     38  C   UNL     1       3.804  -8.009   0.593  0.00  0.00    +0.045 A 
ATOM     39  C   UNL     1       2.742  -7.396  -0.111  0.00  0.00    +0.046 A 
ATOM     40  C   UNL     1       3.299  -6.564  -1.010  0.00  0.00    +0.122 A 
ATOM     41  O   UNL     1       4.634  -6.635  -0.884  0.00  0.00    -0.463 OA
ENDBRANCH  35  40
ENDBRANCH  22  35
ENDBRANCH   1  22
TORSDOF 12
