REMARK  Name = ZINC59461866
REMARK  8 active torsions:
REMARK  status: ('A' for Active; 'I' for Inactive)
REMARK    1  A    between atoms: C_1  and  C_2
REMARK    2  A    between atoms: C_5  and  C_8
REMARK    3  A    between atoms: C_15  and  C_24
REMARK    4  A    between atoms: C_16  and  C_18
REMARK    5  A    between atoms: C_24  and  C_26
REMARK    6  A    between atoms: C_24  and  C_32
REMARK    7  A    between atoms: C_32  and  C_34
REMARK    8  A    between atoms: C_32  and  C_36
REMARK                            x       y       z     vdW  Elec       q    Type
REMARK                         _______ _______ _______ _____ _____    ______ ____
ROOT
ATOM      1  C   UNL     1      -0.230  -3.746  -0.873  0.00  0.00    +0.080 A 
ATOM      2  C   UNL     1       0.118  -4.278   0.336  0.00  0.00    +0.077 A 
ATOM      3  S   UNL     1       0.336  -5.996  -0.108  0.00  0.00    -0.056 S 
ATOM      4  C   UNL     1      -0.056  -5.829  -1.844  0.00  0.00    +0.196 A 
ATOM      5  N   UNL     1      -0.313  -4.537  -1.932  0.00  0.00    -0.221 NA
ATOM      6  N   UNL     1      -0.086  -6.801  -2.835  0.00  0.00    -0.194 N 
ATOM      7  C   UNL     1       0.185  -8.111  -2.669  0.00  0.00    +0.278 A 
ATOM      8  C   UNL     1       0.041  -8.747  -3.918  0.00  0.00    +0.053 A 
ATOM      9  C   UNL     1      -0.321  -7.802  -4.832  0.00  0.00    +0.072 A 
ATOM     10  N   UNL     1      -0.410  -6.593  -4.182  0.00  0.00    -0.287 N 
ATOM     11  O   UNL     1       0.501  -8.650  -1.623  0.00  0.00    -0.265 OA
ATOM     12  H   UNL     1      -0.653  -5.745  -4.586  0.00  0.00    +0.188 HD
ENDROOT
BRANCH   1  17
ATOM     13  C   UNL     1      -1.354   1.882  -1.357  0.00  0.00    +0.044 C 
ATOM     14  C   UNL     1      -1.059   0.409  -1.230  0.00  0.00    -0.050 A 
ATOM     15  C   UNL     1      -1.147  -0.409  -2.342  0.00  0.00    +0.004 A 
ATOM     16  C   UNL     1      -0.879  -1.758  -2.232  0.00  0.00    +0.010 A 
ATOM     17  C   UNL     1      -0.519  -2.296  -0.998  0.00  0.00    +0.001 A 
ATOM     18  C   UNL     1      -0.432  -1.467   0.119  0.00  0.00    +0.010 A 
ATOM     19  C   UNL     1      -0.697  -0.118  -0.004  0.00  0.00    +0.004 A 
ENDBRANCH   1  17
BRANCH   9  20
ATOM     20  C   UNL     1      -0.576  -8.037  -6.268  0.00  0.00    +0.000 A 
ATOM     21  C   UNL     1      -1.399  -9.091  -6.671  0.00  0.00    +0.010 A 
ATOM     22  C   UNL     1      -1.633  -9.305  -8.013  0.00  0.00    +0.001 A 
ATOM     23  C   UNL     1      -1.055  -8.478  -8.960  0.00  0.00    +0.000 A 
ATOM     24  C   UNL     1      -0.239  -7.431  -8.568  0.00  0.00    +0.001 A 
ATOM     25  C   UNL     1      -0.001  -7.203  -7.229  0.00  0.00    +0.010 A 
ENDBRANCH   9  20
BRANCH   8  26
ATOM     26  C   UNL     1       0.248 -10.213  -4.194  0.00  0.00    +0.082 C 
BRANCH  26  27
ATOM     27  C   UNL     1      -0.829 -11.012  -3.506  0.00  0.00    -0.038 A 
ATOM     28  C   UNL     1      -0.880 -11.057  -2.125  0.00  0.00    +0.004 A 
ATOM     29  C   UNL     1      -1.869 -11.789  -1.494  0.00  0.00    +0.000 A 
ATOM     30  C   UNL     1      -2.805 -12.476  -2.244  0.00  0.00    +0.000 A 
ATOM     31  C   UNL     1      -2.754 -12.430  -3.624  0.00  0.00    +0.000 A 
ATOM     32  C   UNL     1      -1.768 -11.694  -4.255  0.00  0.00    +0.004 A 
ENDBRANCH  26  27
BRANCH  26  33
ATOM     33  C   UNL     1       1.618 -10.643  -3.665  0.00  0.00    +0.189 C 
BRANCH  33  34
ATOM     34  C   UNL     1       1.826 -12.110  -3.941  0.00  0.00    +0.228 C 
ATOM     35  O   UNL     1       2.757 -12.471  -4.629  0.00  0.00    -0.275 OA
ATOM     36  N   UNL     1       0.977 -13.020  -3.424  0.00  0.00    -0.328 N 
ATOM     37  H   UNL     1       0.233 -12.731  -2.873  0.00  0.00    +0.145 HD
ATOM     38  H   UNL     1       1.111 -13.964  -3.601  0.00  0.00    +0.145 HD
ENDBRANCH  33  34
BRANCH  33  39
ATOM     39  C   UNL     1       2.671  -9.863  -4.337  0.00  0.00    +0.076 C 
ATOM     40  N   UNL     1       3.482  -9.261  -4.855  0.00  0.00    -0.196 NA
ENDBRANCH  33  39
ENDBRANCH  26  33
ENDBRANCH   8  26
TORSDOF 7
