REMARK  Name = ZINC35839440
REMARK  12 active torsions:
REMARK  status: ('A' for Active; 'I' for Inactive)
REMARK    1  A    between atoms: C_1  and  C_2
REMARK    2  A    between atoms: C_2  and  C_3
REMARK    3  A    between atoms: C_3  and  C_4
REMARK    4  A    between atoms: C_4  and  C_5
REMARK    5  A    between atoms: C_5  and  C_7
REMARK    6  A    between atoms: C_5  and  O_35
REMARK    7  A    between atoms: C_7  and  N_8
REMARK    8  A    between atoms: N_11  and  C_14
REMARK    9  A    between atoms: C_14  and  C_15
REMARK   10  A    between atoms: C_17  and  C_20
REMARK   11  A    between atoms: N_25  and  C_28
REMARK   12  A    between atoms: C_28  and  C_29
REMARK                            x       y       z     vdW  Elec       q    Type
REMARK                         _______ _______ _______ _____ _____    ______ ____
ROOT
ATOM      1  C   UNL     1       4.127  -8.497  -6.257  0.00  0.00    +0.179 A 
ATOM      2  N   UNL     1       3.127  -9.045  -6.880  0.00  0.00    -0.210 NA
ATOM      3  C   UNL     1       3.248 -10.397  -6.785  0.00  0.00    +0.164 A 
ATOM      4  C   UNL     1       4.378 -10.648  -6.069  0.00  0.00    +0.230 A 
ATOM      5  O   UNL     1       4.914  -9.459  -5.753  0.00  0.00    -0.449 OA
ENDROOT
BRANCH   3   6
ATOM      6  C   UNL     1       2.328 -11.400  -7.351  0.00  0.00    +0.268 C 
ATOM      7  O   UNL     1       2.486 -12.580  -7.101  0.00  0.00    -0.268 OA
ATOM      8  N   UNL     1       1.311 -11.010  -8.145  0.00  0.00    -0.294 N 
ATOM      9  C   UNL     1       1.058  -9.584  -8.401  0.00  0.00    +0.123 C 
ATOM     10  C   UNL     1       0.954  -9.373  -9.915  0.00  0.00    +0.103 C 
ATOM     11  N   UNL     1      -0.050 -10.291 -10.468  0.00  0.00    -0.295 NA
ATOM     12  C   UNL     1       0.348 -11.693 -10.278  0.00  0.00    +0.103 C 
ATOM     13  C   UNL     1       0.430 -11.999  -8.783  0.00  0.00    +0.123 C 
BRANCH  11  14
ATOM     14  C   UNL     1      -0.304 -10.004 -11.886  0.00  0.00    +0.119 C 
BRANCH  14  15
ATOM     15  C   UNL     1      -1.502 -10.791 -12.351  0.00  0.00    -0.033 A 
ATOM     16  C   UNL     1      -1.335 -12.060 -12.872  0.00  0.00    +0.005 A 
ATOM     17  C   UNL     1      -2.434 -12.782 -13.299  0.00  0.00    +0.000 A 
ATOM     18  C   UNL     1      -3.700 -12.234 -13.205  0.00  0.00    +0.000 A 
ATOM     19  C   UNL     1      -3.867 -10.965 -12.684  0.00  0.00    +0.000 A 
ATOM     20  C   UNL     1      -2.768 -10.245 -12.253  0.00  0.00    +0.005 A 
ENDBRANCH  14  15
ENDBRANCH  11  14
ENDBRANCH   3   6
BRANCH   1  21
ATOM     21  C   UNL     1       4.368  -7.015  -6.127  0.00  0.00    +0.019 C 
BRANCH  21  25
ATOM     22  N   UNL     1       1.924  -4.754  -3.550  0.00  0.00    -0.303 NA
ATOM     23  C   UNL     1       3.380  -4.586  -3.441  0.00  0.00    +0.066 C 
ATOM     24  C   UNL     1       4.047  -5.100  -4.719  0.00  0.00    -0.063 C 
ATOM     25  N   UNL     1       3.713  -6.518  -4.910  0.00  0.00    +0.387 N 
ATOM     26  C   UNL     1       2.258  -6.666  -5.042  0.00  0.00    -0.063 C 
ATOM     27  C   UNL     1       1.576  -6.165  -3.767  0.00  0.00    +0.066 C 
ATOM     28  H   UNL     1       4.034  -7.049  -4.114  0.00  0.00    -0.081 HD
BRANCH  22  29
ATOM     29  C   UNL     1       1.242  -4.219  -2.364  0.00  0.00    +0.115 C 
BRANCH  29  30
ATOM     30  C   UNL     1      -0.227  -3.951  -2.698  0.00  0.00    +0.128 C 
BRANCH  30  31
ATOM     31  O   UNL     1      -0.309  -2.956  -3.720  0.00  0.00    -0.391 OA
ATOM     32  H   UNL     1       0.088  -2.108  -3.477  0.00  0.00    +0.210 HD
ENDBRANCH  30  31
BRANCH  30  33
ATOM     33  C   UNL     1      -0.953  -3.456  -1.445  0.00  0.00    +0.032 C 
BRANCH  33  34
ATOM     34  C   UNL     1      -2.446  -3.307  -1.746  0.00  0.00    +0.002 C 
BRANCH  34  36
ATOM     35  C   UNL     1      -4.664  -2.663  -0.794  0.00  0.00    +0.004 C 
ATOM     36  C   UNL     1      -3.171  -2.812  -0.493  0.00  0.00    -0.003 C 
ENDBRANCH  34  36
ENDBRANCH  33  34
ENDBRANCH  30  33
ENDBRANCH  29  30
ENDBRANCH  22  29
ENDBRANCH  21  25
ENDBRANCH   1  21
TORSDOF 11
