REMARK  Name = ZINC66555298
REMARK  7 active torsions:
REMARK  status: ('A' for Active; 'I' for Inactive)
REMARK    1  A    between atoms: C_1  and  C_2
REMARK    2  A    between atoms: C_2  and  C_4
REMARK    3  A    between atoms: C_2  and  N_18
REMARK    4  A    between atoms: N_6  and  N_7
REMARK    5  A    between atoms: C_8  and  C_10
REMARK    6  A    between atoms: C_10  and  C_11
REMARK    7  A    between atoms: C_11  and  C_12
REMARK                            x       y       z     vdW  Elec       q    Type
REMARK                         _______ _______ _______ _____ _____    ______ ____
ROOT
ATOM      1  C   UNL     1       0.731  -0.503   1.223  0.00  0.00    +0.250 C 
ATOM      2  O   UNL     1       0.159  -1.213   2.023  0.00  0.00    -0.272 OA
ATOM      3  N   UNL     1       2.019  -0.161   1.426  0.00  0.00    -0.233 N 
ATOM      4  H   UNL     1       2.476   0.406   0.786  0.00  0.00    +0.173 HD
ENDROOT
BRANCH   3   5
ATOM      5  N   UNL     1       2.696  -0.625   2.561  0.00  0.00    -0.234 N 
ATOM      6  C   UNL     1       3.984  -0.283   2.764  0.00  0.00    +0.229 C 
ATOM      7  O   UNL     1       4.556   0.426   1.964  0.00  0.00    -0.274 OA
ATOM      8  H   UNL     1       2.239  -1.193   3.201  0.00  0.00    +0.173 HD
BRANCH   6   9
ATOM      9  C   UNL     1       4.713  -0.783   3.985  0.00  0.00    +0.097 C 
BRANCH   9  10
ATOM     10  C   UNL     1       6.148  -0.253   3.974  0.00  0.00    +0.013 C 
BRANCH  10  11
ATOM     11  C   UNL     1       6.888  -0.760   5.213  0.00  0.00    -0.011 C 
ATOM     12  C   UNL     1       6.247  -0.165   6.469  0.00  0.00    +0.003 C 
ATOM     13  C   UNL     1       6.987  -0.672   7.708  0.00  0.00    +0.000 C 
ATOM     14  C   UNL     1       8.455  -0.247   7.635  0.00  0.00    +0.000 C 
ATOM     15  C   UNL     1       9.096  -0.842   6.380  0.00  0.00    +0.000 C 
ATOM     16  C   UNL     1       8.356  -0.335   5.140  0.00  0.00    +0.003 C 
ENDBRANCH  10  11
ENDBRANCH   9  10
ENDBRANCH   6   9
ENDBRANCH   3   5
BRANCH   1  18
ATOM     17  C   UNL     1      -0.019   1.526   0.010  0.00  0.00    +0.038 C 
ATOM     18  C   UNL     1       0.002  -0.004   0.002  0.00  0.00    +0.170 C 
BRANCH  18  19
ATOM     19  N   UNL     1      -1.372  -0.511   0.012  0.00  0.00    -0.212 N 
ATOM     20  C   UNL     1      -1.899  -1.297  -0.951  0.00  0.00    +0.247 C 
ATOM     21  O   UNL     1      -1.348  -1.703  -1.952  0.00  0.00    -0.273 OA
ATOM     22  C   UNL     1      -3.318  -1.562  -0.517  0.00  0.00    +0.113 C 
ATOM     23  C   UNL     1      -3.565  -3.065  -0.327  0.00  0.00    +0.035 C 
ATOM     24  C   UNL     1      -5.033  -3.264  -0.785  0.00  0.00    +0.003 C 
ATOM     25  C   UNL     1      -5.156  -2.288  -1.982  0.00  0.00    +0.003 C 
ATOM     26  C   UNL     1      -4.321  -1.060  -1.558  0.00  0.00    +0.035 C 
ATOM     27  N   UNL     1      -3.455  -0.840   0.749  0.00  0.00    -0.285 N 
ATOM     28  C   UNL     1      -2.261  -0.258   0.982  0.00  0.00    +0.310 C 
ATOM     29  O   UNL     1      -2.020   0.423   1.959  0.00  0.00    -0.252 OA
ATOM     30  H   UNL     1      -4.245  -0.792   1.310  0.00  0.00    +0.151 HD
ENDBRANCH  18  19
ENDBRANCH   1  18
TORSDOF 6
