REMARK  Name = ZINC14548214
REMARK  7 active torsions:
REMARK  status: ('A' for Active; 'I' for Inactive)
REMARK    1  A    between atoms: C_1  and  C_2
REMARK    2  A    between atoms: C_2  and  C_3
REMARK    3  A    between atoms: C_3  and  C_4
REMARK    4  A    between atoms: C_4  and  O_5
REMARK    5  A    between atoms: O_5  and  C_6
REMARK    6  A    between atoms: C_13  and  C_22
REMARK    7  A    between atoms: C_31  and  O_32
REMARK                            x       y       z     vdW  Elec       q    Type
REMARK                         _______ _______ _______ _____ _____    ______ ____
ROOT
ATOM      1  C   UNL     1       2.375   1.406  -0.015  0.00  0.00    +0.142 A 
ATOM      2  C   UNL     1       1.170   2.085   0.002  0.00  0.00    +0.047 A 
ATOM      3  C   UNL     1      -0.017   1.375   0.010  0.00  0.00    +0.004 A 
ATOM      4  C   UNL     1       0.002  -0.004   0.002  0.00  0.00    +0.006 A 
ATOM      5  C   UNL     1       1.208  -0.697  -0.012  0.00  0.00    -0.016 A 
ATOM      6  C   UNL     1       2.394   0.008  -0.023  0.00  0.00    +0.074 A 
ATOM      7  N   UNL     1       3.638  -0.631  -0.041  0.00  0.00    -0.334 N 
ATOM      8  C   UNL     1       3.576  -1.947   0.597  0.00  0.00    +0.109 C 
ATOM      9  C   UNL     1       2.555  -2.820  -0.114  0.00  0.00    +0.029 C 
ATOM     10  C   UNL     1       1.146  -2.201  -0.010  0.00  0.00    +0.049 C 
ATOM     11  C   UNL     1       0.476  -2.644  -1.300  0.00  0.00    -0.023 C 
ATOM     12  C   UNL     1       1.373  -2.956  -2.201  0.00  0.00    -0.030 C 
ATOM     13  C   UNL     1       2.772  -2.765  -1.646  0.00  0.00    +0.033 C 
ATOM     14  H   UNL     1       4.347  -0.054   0.387  0.00  0.00    +0.147 HD
ENDROOT
BRANCH   8  15
ATOM     15  C   UNL     1       4.931  -2.602   0.526  0.00  0.00    +0.022 A 
ATOM     16  C   UNL     1       5.470  -3.236   1.657  0.00  0.00    -0.009 A 
ATOM     17  C   UNL     1       4.763  -3.286   2.871  0.00  0.00    +0.009 A 
ATOM     18  C   UNL     1       5.313  -3.914   3.946  0.00  0.00    +0.001 A 
ATOM     19  C   UNL     1       6.568  -4.514   3.861  0.00  0.00    +0.001 A 
ATOM     20  C   UNL     1       7.279  -4.490   2.702  0.00  0.00    +0.008 A 
ATOM     21  C   UNL     1       6.744  -3.851   1.570  0.00  0.00    -0.017 A 
ATOM     22  C   UNL     1       7.451  -3.807   0.356  0.00  0.00    +0.012 A 
ATOM     23  C   UNL     1       6.904  -3.181  -0.720  0.00  0.00    +0.046 A 
ATOM     24  C   UNL     1       5.645  -2.578  -0.638  0.00  0.00    +0.122 A 
BRANCH  24  25
ATOM     25  O   UNL     1       5.125  -1.960  -1.731  0.00  0.00    -0.506 OA
ATOM     26  H   UNL     1       5.354  -1.023  -1.799  0.00  0.00    +0.292 HD
ENDBRANCH  24  25
ENDBRANCH   8  15
BRANCH   1  27
ATOM     27  O   UNL     1       3.545   2.100  -0.026  0.00  0.00    -0.490 OA
BRANCH  27  28
ATOM     28  C   UNL     1       3.452   3.526  -0.018  0.00  0.00    +0.229 C 
BRANCH  28  29
ATOM     29  C   UNL     1       4.859   4.128  -0.031  0.00  0.00    +0.041 C 
BRANCH  29  31
ATOM     30  C   UNL     1       6.167   6.257  -0.036  0.00  0.00    +0.004 C 
ATOM     31  C   UNL     1       4.760   5.655  -0.023  0.00  0.00    -0.000 C 
ENDBRANCH  29  31
ENDBRANCH  28  29
ENDBRANCH  27  28
ENDBRANCH   1  27
TORSDOF 6
