REMARK  Name = ZINC34262941
REMARK  10 active torsions:
REMARK  status: ('A' for Active; 'I' for Inactive)
REMARK    1  A    between atoms: C_1  and  C_2
REMARK    2  A    between atoms: C_3  and  C_22
REMARK    3  A    between atoms: C_5  and  C_11
REMARK    4  A    between atoms: N_6  and  C_7
REMARK    5  A    between atoms: C_7  and  C_8
REMARK    6  A    between atoms: C_8  and  C_9
REMARK    7  A    between atoms: C_8  and  C_10
REMARK    8  A    between atoms: C_14  and  C_16
REMARK    9  A    between atoms: N_24  and  C_25
REMARK   10  A    between atoms: C_25  and  C_26
REMARK                            x       y       z     vdW  Elec       q    Type
REMARK                         _______ _______ _______ _____ _____    ______ ____
ROOT
ATOM      1  C   UNL     1      -0.722   1.625   0.078  0.00  0.00    +0.064 C 
ATOM      2  C   UNL     1      -0.365   0.165  -0.028  0.00  0.00    +0.028 A 
ATOM      3  C   UNL     1      -0.273  -0.561  -1.195  0.00  0.00    +0.058 A 
ATOM      4  C   UNL     1       0.086  -1.885  -0.832  0.00  0.00    +0.042 A 
ATOM      5  C   UNL     1       0.197  -1.911   0.521  0.00  0.00    +0.069 A 
ATOM      6  N   UNL     1      -0.074  -0.655   1.003  0.00  0.00    -0.342 N 
ENDROOT
BRANCH   5   7
ATOM      7  C   UNL     1       0.554  -3.093   1.337  0.00  0.00    +0.095 A 
ATOM      8  C   UNL     1       0.745  -2.968   2.691  0.00  0.00    +0.077 A 
ATOM      9  S   UNL     1       1.140  -4.657   3.126  0.00  0.00    -0.073 S 
ATOM     10  C   UNL     1       1.012  -5.346   1.482  0.00  0.00    +0.129 A 
ATOM     11  N   UNL     1       0.688  -4.277   0.771  0.00  0.00    -0.236 NA
BRANCH  10  12
ATOM     12  C   UNL     1       1.210  -6.741   1.034  0.00  0.00    +0.114 A 
ATOM     13  C   UNL     1       1.541  -7.734   1.959  0.00  0.00    +0.141 A 
ATOM     14  N   UNL     1       1.716  -8.977   1.554  0.00  0.00    -0.260 NA
ATOM     15  C   UNL     1       1.578  -9.284   0.275  0.00  0.00    +0.130 A 
ATOM     16  C   UNL     1       1.250  -8.303  -0.646  0.00  0.00    +0.131 A 
ATOM     17  N   UNL     1       1.067  -7.057  -0.251  0.00  0.00    -0.250 NA
ENDBRANCH  10  12
ENDBRANCH   5   7
BRANCH   3  18
ATOM     18  C   UNL     1      -0.504  -0.058  -2.561  0.00  0.00    +0.246 C 
ATOM     19  O   UNL     1      -0.809   1.106  -2.737  0.00  0.00    -0.270 OA
ATOM     20  N   UNL     1      -0.378  -0.888  -3.615  0.00  0.00    -0.309 N 
ATOM     21  H   UNL     1      -0.134  -1.817  -3.474  0.00  0.00    +0.149 HD
BRANCH  20  22
ATOM     22  C   UNL     1      -0.607  -0.389  -4.973  0.00  0.00    +0.136 C 
BRANCH  22  23
ATOM     23  C   UNL     1      -0.400  -1.525  -5.976  0.00  0.00    +0.135 C 
ATOM     24  C   UNL     1      -0.605  -1.009  -7.423  0.00  0.00    +0.035 C 
ATOM     25  C   UNL     1       0.242  -2.035  -8.224  0.00  0.00    +0.031 C 
ATOM     26  C   UNL     1       1.400  -2.337  -7.249  0.00  0.00    +0.160 C 
ATOM     27  O   UNL     1       0.958  -1.990  -5.930  0.00  0.00    -0.375 OA
ENDBRANCH  22  23
ENDBRANCH  20  22
ENDBRANCH   3  18
BRANCH   6  28
ATOM     28  C   UNL     1      -0.055  -0.267   2.416  0.00  0.00    +0.125 C 
BRANCH  28  29
ATOM     29  C   UNL     1       1.379   0.070   2.833  0.00  0.00    +0.003 C 
ATOM     30  C   UNL     1       1.858   1.301   2.061  0.00  0.00    +0.009 C 
ATOM     31  C   UNL     1       1.418   0.361   4.334  0.00  0.00    +0.009 C 
ENDBRANCH  28  29
ENDBRANCH   6  28
TORSDOF 7
