REMARK  Name = ZINC59897176
REMARK  9 active torsions:
REMARK  status: ('A' for Active; 'I' for Inactive)
REMARK    1  A    between atoms: C_1  and  O_2
REMARK    2  A    between atoms: O_2  and  C_3
REMARK    3  A    between atoms: C_3  and  C_4
REMARK    4  A    between atoms: C_4  and  N_5
REMARK    5  A    between atoms: N_5  and  S_6
REMARK    6  A    between atoms: S_6  and  C_9
REMARK    7  A    between atoms: C_12  and  C_15
REMARK    8  A    between atoms: C_25  and  O_27
REMARK    9  A    between atoms: O_27  and  C_28
REMARK                            x       y       z     vdW  Elec       q    Type
REMARK                         _______ _______ _______ _____ _____    ______ ____
ROOT
ATOM      1  C   UNL     1       0.947  -7.285   3.287  0.00  0.00    +0.251 C 
ATOM      2  O   UNL     1       2.076  -7.734   3.270  0.00  0.00    -0.270 OA
ATOM      3  N   UNL     1       0.176  -7.439   4.382  0.00  0.00    -0.267 N 
ATOM      4  C   UNL     1      -1.208  -6.946   4.397  0.00  0.00    +0.114 C 
ATOM      5  C   UNL     1      -1.434  -6.229   5.734  0.00  0.00    +0.024 C 
ATOM      6  C   UNL     1      -1.286  -7.241   6.870  0.00  0.00    +0.038 C 
ATOM      7  C   UNL     1       0.010  -7.997   6.736  0.00  0.00    -0.022 A 
ATOM      8  C   UNL     1       0.681  -8.078   5.524  0.00  0.00    +0.040 A 
ATOM      9  C   UNL     1       1.870  -8.792   5.430  0.00  0.00    +0.027 A 
ATOM     10  C   UNL     1       2.387  -9.427   6.542  0.00  0.00    +0.048 A 
ATOM     11  C   UNL     1       1.717  -9.350   7.754  0.00  0.00    +0.130 A 
ATOM     12  C   UNL     1       0.534  -8.628   7.851  0.00  0.00    +0.051 A 
ENDROOT
BRANCH   1  16
ATOM     13  C   UNL     1      -0.573  -5.234  -0.108  0.00  0.00    +0.105 A 
ATOM     14  C   UNL     1       0.706  -4.963   0.345  0.00  0.00    +0.029 A 
ATOM     15  C   UNL     1       1.205  -5.625   1.447  0.00  0.00    +0.015 A 
ATOM     16  C   UNL     1       0.417  -6.571   2.106  0.00  0.00    +0.037 A 
ATOM     17  C   UNL     1      -0.872  -6.839   1.643  0.00  0.00    +0.015 A 
ATOM     18  C   UNL     1      -1.361  -6.166   0.543  0.00  0.00    +0.029 A 
BRANCH  13  19
ATOM     19  S   UNL     1      -1.204  -4.383  -1.516  0.00  0.00    +0.058 S 
ATOM     20  O   UNL     1      -2.225  -5.205  -2.064  0.00  0.00    -0.153 OA
ATOM     21  O   UNL     1      -0.078  -3.960  -2.273  0.00  0.00    -0.153 OA
BRANCH  19  22
ATOM     22  N   UNL     1      -1.946  -3.009  -0.966  0.00  0.00    -0.188 NA
ATOM     23  H   UNL     1      -2.904  -2.898  -1.074  0.00  0.00    +0.148 HD
BRANCH  22  24
ATOM     24  C   UNL     1      -1.157  -1.960  -0.315  0.00  0.00    +0.134 C 
BRANCH  24  25
ATOM     25  C   UNL     1      -1.981  -0.673  -0.242  0.00  0.00    +0.176 C 
BRANCH  25  27
ATOM     26  C   UNL     1      -3.952   0.270   0.745  0.00  0.00    +0.194 C 
ATOM     27  O   UNL     1      -3.111  -0.878   0.608  0.00  0.00    -0.382 OA
ENDBRANCH  25  27
ENDBRANCH  24  25
ENDBRANCH  22  24
ENDBRANCH  19  22
ENDBRANCH  13  19
ENDBRANCH   1  16
BRANCH  11  28
ATOM     28  O   UNL     1       2.225  -9.973   8.851  0.00  0.00    -0.406 OA
BRANCH  28  29
ATOM     29  C   UNL     1       3.450 -10.688   8.682  0.00  0.00    +0.575 C 
ATOM     30  F   UNL     1       4.449  -9.806   8.255  0.00  0.00    -0.133 F 
ATOM     31  F   UNL     1       3.826 -11.263   9.901  0.00  0.00    -0.133 F 
ATOM     32  F   UNL     1       3.276 -11.694   7.726  0.00  0.00    -0.133 F 
ENDBRANCH  28  29
ENDBRANCH  11  28
TORSDOF 8
