REMARK  Name = ZINC39603559
REMARK  8 active torsions:
REMARK  status: ('A' for Active; 'I' for Inactive)
REMARK    1  A    between atoms: C_1  and  O_2
REMARK    2  A    between atoms: O_2  and  C_3
REMARK    3  A    between atoms: C_3  and  C_4
REMARK    4  A    between atoms: C_4  and  N_5
REMARK    5  A    between atoms: C_6  and  C_8
REMARK    6  A    between atoms: C_19  and  C_21
REMARK    7  A    between atoms: C_26  and  S_27
REMARK    8  A    between atoms: S_27  and  C_28
REMARK                            x       y       z     vdW  Elec       q    Type
REMARK                         _______ _______ _______ _____ _____    ______ ____
ROOT
ATOM      1  C   UNL     1      -2.838  -4.518  -1.611  0.00  0.00    +0.100 C 
ATOM      2  C   UNL     1      -3.423  -3.973  -0.289  0.00  0.00    +0.121 C 
ATOM      3  N   UNL     1      -4.250  -5.082   0.240  0.00  0.00    -0.296 N 
ATOM      4  C   UNL     1      -3.462  -6.303  -0.056  0.00  0.00    +0.115 C 
ATOM      5  C   UNL     1      -2.865  -6.047  -1.454  0.00  0.00    -0.004 C 
ATOM      6  C   UNL     1      -1.450  -6.611  -1.533  0.00  0.00    -0.010 C 
ATOM      7  C   UNL     1      -1.507  -8.138  -1.433  0.00  0.00    -0.082 C 
ATOM      8  N   UNL     1      -2.330  -8.671  -2.526  0.00  0.00    +0.379 N 
ATOM      9  C   UNL     1      -3.713  -8.198  -2.388  0.00  0.00    -0.082 C 
ATOM     10  C   UNL     1      -3.748  -6.673  -2.529  0.00  0.00    -0.010 C 
ATOM     11  C   UNL     1      -5.448  -5.001   0.852  0.00  0.00    +0.249 C 
ATOM     12  O   UNL     1      -5.962  -5.999   1.318  0.00  0.00    -0.270 OA
ATOM     13  H   UNL     1      -1.956  -8.361  -3.410  0.00  0.00    -0.086 HD
ATOM     14  H   UNL     1      -2.317  -9.680  -2.494  0.00  0.00    -0.086 HD
ENDROOT
BRANCH  11  15
ATOM     15  C   UNL     1      -6.136  -3.701   0.956  0.00  0.00    +0.069 A 
ATOM     16  C   UNL     1      -5.406  -2.521   1.140  0.00  0.00    +0.017 A 
ATOM     17  C   UNL     1      -6.098  -1.327   1.231  0.00  0.00    +0.020 A 
ATOM     18  C   UNL     1      -7.479  -1.331   1.138  0.00  0.00    +0.112 A 
ATOM     19  N   UNL     1      -8.149  -2.452   0.964  0.00  0.00    -0.248 NA
ATOM     20  C   UNL     1      -7.537  -3.623   0.865  0.00  0.00    +0.114 A 
BRANCH  20  21
ATOM     21  S   UNL     1      -8.483  -5.090   0.626  0.00  0.00    -0.069 S 
BRANCH  21  22
ATOM     22  C   UNL     1     -10.154  -4.542   0.735  0.00  0.00    +0.014 A 
ATOM     23  C   UNL     1     -10.858  -4.220  -0.419  0.00  0.00    +0.015 A 
ATOM     24  C   UNL     1     -12.168  -3.792  -0.329  0.00  0.00    +0.001 A 
ATOM     25  C   UNL     1     -12.778  -3.682   0.907  0.00  0.00    +0.000 A 
ATOM     26  C   UNL     1     -12.080  -4.002   2.057  0.00  0.00    +0.001 A 
ATOM     27  C   UNL     1     -10.772  -4.437   1.975  0.00  0.00    +0.015 A 
ENDBRANCH  21  22
ENDBRANCH  20  21
ENDBRANCH  11  15
BRANCH   1  29
ATOM     28  N   UNL     1      -0.924  -3.874  -3.039  0.00  0.00    -0.313 N 
ATOM     29  C   UNL     1      -1.423  -4.034  -1.798  0.00  0.00    +0.218 C 
ATOM     30  O   UNL     1      -0.734  -3.789  -0.831  0.00  0.00    -0.275 OA
ATOM     31  H   UNL     1      -1.475  -4.070  -3.813  0.00  0.00    +0.149 HD
BRANCH  28  32
ATOM     32  C   UNL     1       0.452  -3.404  -3.220  0.00  0.00    +0.132 C 
BRANCH  32  33
ATOM     33  C   UNL     1       0.766  -3.309  -4.715  0.00  0.00    +0.178 C 
BRANCH  33  35
ATOM     34  C   UNL     1       0.157  -2.137  -6.715  0.00  0.00    +0.194 C 
ATOM     35  O   UNL     1      -0.058  -2.307  -5.312  0.00  0.00    -0.381 OA
ENDBRANCH  33  35
ENDBRANCH  32  33
ENDBRANCH  28  32
ENDBRANCH   1  29
TORSDOF 7
