REMARK  Name = ZINC12854498
REMARK  4 active torsions:
REMARK  status: ('A' for Active; 'I' for Inactive)
REMARK    1  A    between atoms: C_5  and  N_7
REMARK    2  A    between atoms: C_8  and  C_10
REMARK    3  A    between atoms: C_12  and  S_17
REMARK    4  A    between atoms: S_17  and  N_20
REMARK                            x       y       z     vdW  Elec       q    Type
REMARK                         _______ _______ _______ _____ _____    ______ ____
ROOT
ATOM      1  C   UNL     1      -2.573   1.423   3.123  0.00  0.00    +0.057 A 
ATOM      2  C   UNL     1      -1.857   1.041   1.986  0.00  0.00    +0.043 A 
ATOM      3  C   UNL     1      -0.947   1.912   1.423  0.00  0.00    +0.106 A 
ATOM      4  C   UNL     1      -0.739   3.160   1.985  0.00  0.00    +0.030 A 
ATOM      5  C   UNL     1      -1.448   3.547   3.107  0.00  0.00    +0.022 A 
ATOM      6  C   UNL     1      -2.362   2.686   3.682  0.00  0.00    +0.053 A 
ATOM      7 CL   UNL     1      -3.247   3.171   5.094  0.00  0.00    -0.083 Cl
ENDROOT
BRANCH   1   9
ATOM      8  N   UNL     1      -3.751  -0.722   3.188  0.00  0.00    -0.281 N 
ATOM      9  C   UNL     1      -3.550   0.496   3.731  0.00  0.00    +0.250 C 
ATOM     10  O   UNL     1      -4.171   0.831   4.720  0.00  0.00    -0.270 OA
ATOM     11  H   UNL     1      -3.304  -0.964   2.362  0.00  0.00    +0.155 HD
BRANCH   8  16
ATOM     12  C   UNL     1      -6.574  -2.084   5.098  0.00  0.00    +0.002 A 
ATOM     13  C   UNL     1      -6.282  -3.432   5.058  0.00  0.00    +0.004 A 
ATOM     14  C   UNL     1      -5.149  -3.893   4.399  0.00  0.00    -0.042 A 
ATOM     15  C   UNL     1      -4.311  -2.998   3.775  0.00  0.00    -0.023 A 
ATOM     16  C   UNL     1      -4.603  -1.635   3.817  0.00  0.00    +0.037 A 
ATOM     17  C   UNL     1      -5.731  -1.179   4.482  0.00  0.00    +0.023 A 
ATOM     18  C   UNL     1      -3.075  -3.429   3.029  0.00  0.00    +0.037 C 
ATOM     19  C   UNL     1      -2.670  -4.845   3.431  0.00  0.00    +0.005 C 
ATOM     20  C   UNL     1      -3.899  -5.754   3.305  0.00  0.00    +0.005 C 
ATOM     21  C   UNL     1      -4.891  -5.378   4.404  0.00  0.00    +0.035 C 
ENDBRANCH   8  16
ENDBRANCH   1   9
BRANCH   3  22
ATOM     22  S   UNL     1      -0.043   1.431  -0.010  0.00  0.00    +0.061 S 
ATOM     23  O   UNL     1      -0.017   0.011  -0.017  0.00  0.00    -0.153 OA
ATOM     24  O   UNL     1       1.143   2.215  -0.024  0.00  0.00    -0.153 OA
BRANCH  22  25
ATOM     25  N   UNL     1      -0.931   1.895  -1.328  0.00  0.00    -0.177 NA
ATOM     26  C   UNL     1      -1.943   1.075  -2.011  0.00  0.00    +0.109 C 
ATOM     27  C   UNL     1      -2.487   1.907  -3.191  0.00  0.00    +0.018 C 
ATOM     28  C   UNL     1      -1.344   2.924  -3.453  0.00  0.00    +0.018 C 
ATOM     29  C   UNL     1      -0.835   3.196  -2.015  0.00  0.00    +0.109 C 
ENDBRANCH  22  25
ENDBRANCH   3  22
TORSDOF 4
