REMARK  Name = ZINC44001607
REMARK  12 active torsions:
REMARK  status: ('A' for Active; 'I' for Inactive)
REMARK    1  A    between atoms: C_1  and  C_2
REMARK    2  A    between atoms: C_2  and  C_3
REMARK    3  A    between atoms: C_2  and  C_4
REMARK    4  A    between atoms: C_2  and  C_5
REMARK    5  A    between atoms: C_8  and  O_11
REMARK    6  A    between atoms: O_11  and  C_12
REMARK    7  A    between atoms: C_12  and  C_13
REMARK    8  A    between atoms: N_15  and  C_16
REMARK    9  A    between atoms: C_16  and  C_17
REMARK   10  A    between atoms: C_23  and  C_25
REMARK   11  A    between atoms: C_30  and  S_31
REMARK   12  A    between atoms: S_31  and  C_32
REMARK                            x       y       z     vdW  Elec       q    Type
REMARK                         _______ _______ _______ _____ _____    ______ ____
ROOT
ATOM      1  C   UNL     1       6.503  -1.456  -7.892  0.00  0.00    +0.108 C 
ENDROOT
BRANCH   1   2
ATOM      2  C   UNL     1       8.018  -1.275  -7.998  0.00  0.00    +0.009 C 
ATOM      3  C   UNL     1       8.705  -2.062  -6.880  0.00  0.00    +0.024 C 
ATOM      4  C   UNL     1      10.220  -1.851  -6.968  0.00  0.00    +0.108 C 
ATOM      5  N   UNL     1      10.669  -2.207  -8.321  0.00  0.00    -0.297 N 
ATOM      6  C   UNL     1      10.012  -1.574  -9.473  0.00  0.00    +0.108 C 
ATOM      7  C   UNL     1       8.499  -1.789  -9.357  0.00  0.00    +0.024 C 
ATOM      8  C   UNL     1      11.665  -3.096  -8.502  0.00  0.00    +0.249 C 
ATOM      9  O   UNL     1      12.253  -3.554  -7.541  0.00  0.00    -0.270 OA
BRANCH   8  10
ATOM     10  C   UNL     1      12.043  -3.513  -9.864  0.00  0.00    +0.069 A 
ATOM     11  C   UNL     1      12.379  -2.561 -10.834  0.00  0.00    +0.017 A 
ATOM     12  C   UNL     1      12.726  -3.004 -12.097  0.00  0.00    +0.020 A 
ATOM     13  C   UNL     1      12.732  -4.361 -12.367  0.00  0.00    +0.112 A 
ATOM     14  N   UNL     1      12.413  -5.243 -11.440  0.00  0.00    -0.248 NA
ATOM     15  C   UNL     1      12.078  -4.875 -10.212  0.00  0.00    +0.109 A 
BRANCH  15  16
ATOM     16  S   UNL     1      11.668  -6.097  -9.011  0.00  0.00    -0.109 S 
ATOM     17  C   UNL     1      11.851  -7.667  -9.902  0.00  0.00    +0.091 C 
ENDBRANCH  15  16
ENDBRANCH   8  10
ENDBRANCH   1   2
BRANCH   1  20
ATOM     18  C   UNL     1       4.713  -0.896  -6.336  0.00  0.00    +0.251 C 
ATOM     19  O   UNL     1       3.929  -1.428  -7.092  0.00  0.00    -0.272 OA
ATOM     20  N   UNL     1       6.025  -0.856  -6.644  0.00  0.00    -0.312 N 
ATOM     21  H   UNL     1       6.653  -0.430  -6.039  0.00  0.00    +0.149 HD
BRANCH  18  22
ATOM     22  C   UNL     1       4.222  -0.279  -5.052  0.00  0.00    +0.324 C 
BRANCH  22  23
ATOM     23  O   UNL     1       2.807  -0.448  -4.953  0.00  0.00    -0.483 OA
BRANCH  23  27
ATOM     24  C   UNL     1       0.968   1.079  -1.590  0.00  0.00    -0.042 A 
ATOM     25  C   UNL     1       0.216   0.439  -2.558  0.00  0.00    +0.008 A 
ATOM     26  C   UNL     1       0.829  -0.073  -3.684  0.00  0.00    +0.046 A 
ATOM     27  C   UNL     1       2.201   0.055  -3.845  0.00  0.00    +0.121 A 
ATOM     28  C   UNL     1       2.954   0.699  -2.873  0.00  0.00    +0.046 A 
ATOM     29  C   UNL     1       2.335   1.214  -1.751  0.00  0.00    +0.008 A 
BRANCH  24  31
ATOM     30  C   UNL     1       0.530   3.147  -0.293  0.00  0.00    +0.015 C 
ATOM     31  C   UNL     1       0.296   1.636  -0.362  0.00  0.00    -0.013 C 
ATOM     32  C   UNL     1       0.883   0.972   0.886  0.00  0.00    +0.015 C 
ATOM     33  C   UNL     1      -1.206   1.355  -0.430  0.00  0.00    +0.015 C 
ENDBRANCH  24  31
ENDBRANCH  23  27
ENDBRANCH  22  23
ENDBRANCH  18  22
ENDBRANCH   1  20
TORSDOF 8
