REMARK  Name = ZINC36645323
REMARK  7 active torsions:
REMARK  status: ('A' for Active; 'I' for Inactive)
REMARK    1  A    between atoms: C_1  and  N_2
REMARK    2  A    between atoms: N_2  and  C_3
REMARK    3  A    between atoms: N_2  and  C_4
REMARK    4  A    between atoms: C_4  and  C_5
REMARK    5  A    between atoms: C_5  and  C_6
REMARK    6  A    between atoms: C_6  and  N_7
REMARK    7  A    between atoms: C_19  and  C_21
REMARK                            x       y       z     vdW  Elec       q    Type
REMARK                         _______ _______ _______ _____ _____    ______ ____
ROOT
ATOM      1  N   UNL     1      -2.781  -4.025  -0.239  0.00  0.00    -0.246 N 
ATOM      2  C   UNL     1      -2.632  -4.817   0.887  0.00  0.00    +0.168 A 
ATOM      3  N   UNL     1      -2.494  -4.450   2.139  0.00  0.00    -0.221 NA
ATOM      4  C   UNL     1      -2.357  -5.341   3.147  0.00  0.00    +0.116 A 
ATOM      5  C   UNL     1      -2.200  -5.080   4.529  0.00  0.00    +0.152 A 
ATOM      6  C   UNL     1      -2.072  -6.109   5.428  0.00  0.00    +0.079 A 
ATOM      7  C   UNL     1      -2.091  -7.436   5.017  0.00  0.00    +0.127 A 
ATOM      8  C   UNL     1      -2.243  -7.727   3.672  0.00  0.00    +0.055 A 
ATOM      9  C   UNL     1      -2.372  -6.702   2.767  0.00  0.00    +0.046 A 
ATOM     10  S   UNL     1      -2.588  -6.600   1.006  0.00  0.00    -0.052 S 
ATOM     11  F   UNL     1      -1.962  -8.433   5.920  0.00  0.00    -0.205 F 
ATOM     12  F   UNL     1      -2.176  -3.803   4.969  0.00  0.00    -0.203 F 
ATOM     13  C   UNL     1      -2.917  -4.597  -1.452  0.00  0.00    +0.254 C 
ATOM     14  O   UNL     1      -2.991  -5.807  -1.549  0.00  0.00    -0.270 OA
ENDROOT
BRANCH  13  15
ATOM     15  C   UNL     1      -2.976  -3.759  -2.656  0.00  0.00    +0.062 A 
ATOM     16  C   UNL     1      -3.839  -2.729  -2.893  0.00  0.00    +0.096 A 
ATOM     17  N   UNL     1      -3.590  -2.193  -4.112  0.00  0.00    -0.360 N 
ATOM     18  H   UNL     1      -4.076  -1.448  -4.499  0.00  0.00    +0.165 HD
ATOM     19  C   UNL     1      -2.547  -2.857  -4.726  0.00  0.00    +0.047 A 
ATOM     20  C   UNL     1      -2.111  -3.860  -3.846  0.00  0.00    +0.012 A 
ATOM     21  C   UNL     1      -1.054  -4.692  -4.205  0.00  0.00    +0.011 A 
ATOM     22  C   UNL     1      -0.437  -4.524  -5.425  0.00  0.00    +0.001 A 
ATOM     23  C   UNL     1      -0.865  -3.530  -6.294  0.00  0.00    +0.002 A 
ATOM     24  C   UNL     1      -1.915  -2.705  -5.955  0.00  0.00    +0.026 A 
ENDBRANCH  13  15
BRANCH   1  25
ATOM     25  C   UNL     1      -2.790  -2.566  -0.112  0.00  0.00    +0.114 C 
BRANCH  25  26
ATOM     26  C   UNL     1      -1.352  -2.043  -0.124  0.00  0.00    +0.001 C 
BRANCH  26  27
ATOM     27  C   UNL     1      -1.362  -0.519   0.008  0.00  0.00    -0.078 C 
BRANCH  27  29
ATOM     28  C   UNL     1       0.006   1.451   0.003  0.00  0.00    -0.097 C 
ATOM     29  N   UNL     1       0.019  -0.018  -0.004  0.00  0.00    +0.376 N 
ATOM     30  C   UNL     1       0.728  -0.507   1.186  0.00  0.00    -0.097 C 
ATOM     31  H   UNL     1       0.489  -0.346  -0.834  0.00  0.00    -0.083 HD
ENDBRANCH  27  29
ENDBRANCH  26  27
ENDBRANCH  25  26
ENDBRANCH   1  25
TORSDOF 5
