REMARK  Name = ZINC15008641
REMARK  11 active torsions:
REMARK  status: ('A' for Active; 'I' for Inactive)
REMARK    1  A    between atoms: C_1  and  C_2
REMARK    2  A    between atoms: C_5  and  S_26
REMARK    3  A    between atoms: C_7  and  C_8
REMARK    4  A    between atoms: C_14  and  C_15
REMARK    5  A    between atoms: C_14  and  N_65
REMARK    6  A    between atoms: C_16  and  C_17
REMARK    7  A    between atoms: C_20  and  O_25
REMARK    8  A    between atoms: C_21  and  O_23
REMARK    9  A    between atoms: O_23  and  C_24
REMARK   10  A    between atoms: S_26  and  C_27
REMARK   11  A    between atoms: C_27  and  C_28
REMARK                            x       y       z     vdW  Elec       q    Type
REMARK                         _______ _______ _______ _____ _____    ______ ____
ROOT
ATOM      1  C   UNL     1      -0.019   1.527   0.010  0.00  0.00    +0.021 C 
ATOM      2  C   UNL     1       0.002  -0.004   0.002  0.00  0.00    +0.006 C 
ATOM      3  C   UNL     1       0.794  -0.503   1.214  0.00  0.00    -0.018 C 
ATOM      4  C   UNL     1       2.208   0.081   1.168  0.00  0.00    -0.078 C 
ATOM      5  C   UNL     1       1.419   2.052  -0.001  0.00  0.00    -0.069 C 
ATOM      6  N   UNL     1       2.120   1.556   1.203  0.00  0.00    +0.382 N 
ATOM      7  H   UNL     1       1.590   1.839   2.037  0.00  0.00    -0.081 HD
ENDROOT
BRANCH   1  14
ATOM      8  C   UNL     1      -2.414   3.172   0.284  0.00  0.00    +0.047 C 
ATOM      9  C   UNL     1      -1.883   2.808  -1.079  0.00  0.00    -0.011 A 
ATOM     10  C   UNL     1      -2.522   3.248  -2.228  0.00  0.00    +0.118 A 
ATOM     11  N   UNL     1      -2.031   2.911  -3.409  0.00  0.00    -0.230 NA
ATOM     12  C   UNL     1      -0.941   2.162  -3.501  0.00  0.00    +0.189 A 
ATOM     13  N   UNL     1      -0.304   1.730  -2.422  0.00  0.00    -0.226 NA
ATOM     14  C   UNL     1      -0.746   2.027  -1.211  0.00  0.00    +0.050 A 
BRANCH  12  15
ATOM     15  S   UNL     1      -0.321   1.737  -5.094  0.00  0.00    -0.083 S 
BRANCH  15  16
ATOM     16  C   UNL     1      -1.539   2.575  -6.139  0.00  0.00    +0.109 C 
BRANCH  16  17
ATOM     17  C   UNL     1      -1.196   2.339  -7.611  0.00  0.00    +0.129 C 
ATOM     18  C   UNL     1      -2.172   3.116  -8.522  0.00  0.00    +0.034 C 
ATOM     19  C   UNL     1      -2.399   2.171  -9.723  0.00  0.00    +0.031 C 
ATOM     20  C   UNL     1      -1.533   0.934  -9.395  0.00  0.00    +0.160 C 
ATOM     21  O   UNL     1      -1.391   0.951  -7.957  0.00  0.00    -0.376 OA
ENDBRANCH  16  17
ENDBRANCH  15  16
ENDBRANCH  12  15
ENDBRANCH   1  14
BRANCH   6  22
ATOM     22  C   UNL     1       3.474   2.142   1.275  0.00  0.00    -0.051 C 
BRANCH  22  23
ATOM     23  C   UNL     1       4.253   1.831   0.023  0.00  0.00    -0.045 C 
ATOM     24  C   UNL     1       4.791   2.815  -0.685  0.00  0.00    +0.002 C 
BRANCH  24  25
ATOM     25  C   UNL     1       5.554   2.510  -1.913  0.00  0.00    -0.022 A 
ATOM     26  C   UNL     1       5.710   1.188  -2.329  0.00  0.00    +0.012 A 
ATOM     27  C   UNL     1       6.423   0.905  -3.476  0.00  0.00    +0.050 A 
ATOM     28  C   UNL     1       6.986   1.933  -4.218  0.00  0.00    +0.158 A 
ATOM     29  C   UNL     1       6.833   3.255  -3.808  0.00  0.00    +0.162 A 
ATOM     30  C   UNL     1       6.116   3.546  -2.662  0.00  0.00    +0.057 A 
BRANCH  29  31
ATOM     31  O   UNL     1       7.386   4.261  -4.538  0.00  0.00    -0.491 OA
ATOM     32  C   UNL     1       7.190   5.593  -4.059  0.00  0.00    +0.277 C 
ENDBRANCH  29  31
BRANCH  28  33
ATOM     33  O   UNL     1       7.687   1.649  -5.347  0.00  0.00    -0.503 OA
ATOM     34  H   UNL     1       7.148   1.629  -6.150  0.00  0.00    +0.292 HD
ENDBRANCH  28  33
ENDBRANCH  24  25
ENDBRANCH  22  23
ENDBRANCH   6  22
TORSDOF 9
