REMARK  Name = ZINC35743744
REMARK  12 active torsions:
REMARK  status: ('A' for Active; 'I' for Inactive)
REMARK    1  A    between atoms: C_1  and  C_2
REMARK    2  A    between atoms: C_2  and  C_4
REMARK    3  A    between atoms: C_2  and  N_17
REMARK    4  A    between atoms: N_14  and  C_15
REMARK    5  A    between atoms: N_17  and  C_18
REMARK    6  A    between atoms: C_18  and  C_19
REMARK    7  A    between atoms: C_19  and  C_20
REMARK    8  A    between atoms: C_20  and  C_21
REMARK    9  A    between atoms: C_21  and  C_22
REMARK   10  A    between atoms: C_22  and  C_23
REMARK   11  A    between atoms: C_23  and  N_24
REMARK   12  A    between atoms: C_25  and  C_27
REMARK                            x       y       z     vdW  Elec       q    Type
REMARK                         _______ _______ _______ _____ _____    ______ ____
ROOT
ATOM      1  N   UNL     1      -1.225  -0.876   0.530  0.00  0.00    -0.291 N 
ATOM      2  C   UNL     1      -2.144  -0.149   1.197  0.00  0.00    +0.219 C 
ATOM      3  O   UNL     1      -1.861   0.958   1.604  0.00  0.00    -0.275 OA
ENDROOT
BRANCH   2   4
ATOM      4  C   UNL     1      -3.521  -0.712   1.436  0.00  0.00    +0.075 C 
ATOM      5  C   UNL     1      -4.353  -0.586   0.158  0.00  0.00    +0.013 C 
ATOM      6  C   UNL     1      -5.751  -1.157   0.401  0.00  0.00    +0.001 C 
ATOM      7  C   UNL     1      -6.430  -0.379   1.530  0.00  0.00    +0.000 C 
ATOM      8  C   UNL     1      -5.599  -0.505   2.808  0.00  0.00    +0.001 C 
ATOM      9  C   UNL     1      -4.200   0.066   2.566  0.00  0.00    +0.013 C 
ENDBRANCH   2   4
BRANCH   1  11
ATOM     10  C   UNL     1       0.091   1.000  -0.321  0.00  0.00    +0.036 C 
ATOM     11  C   UNL     1       0.138  -0.364   0.369  0.00  0.00    +0.139 C 
BRANCH  11  12
ATOM     12  C   UNL     1       0.785  -0.222   1.722  0.00  0.00    +0.133 A 
ATOM     13  N   UNL     1       0.028  -0.283   2.776  0.00  0.00    -0.232 NA
ATOM     14  C   UNL     1       0.541  -0.163   4.026  0.00  0.00    +0.080 A 
ATOM     15  C   UNL     1      -0.270  -0.230   5.161  0.00  0.00    +0.048 A 
ATOM     16  C   UNL     1       0.297  -0.103   6.410  0.00  0.00    +0.043 A 
ATOM     17  C   UNL     1       1.667   0.091   6.553  0.00  0.00    +0.021 A 
ATOM     18  C   UNL     1       2.480   0.159   5.456  0.00  0.00    +0.017 A 
ATOM     19  C   UNL     1       1.931   0.033   4.182  0.00  0.00    +0.065 A 
ATOM     20  C   UNL     1       2.758   0.098   2.969  0.00  0.00    +0.262 A 
ATOM     21  O   UNL     1       3.962   0.265   3.032  0.00  0.00    -0.267 OA
ATOM     22  N   UNL     1       2.130  -0.041   1.778  0.00  0.00    -0.298 N 
ATOM     23  C   UNL     1       2.907   0.011   0.537  0.00  0.00    +0.154 C 
ATOM     24 CL   UNL     1      -0.709  -0.185   7.822  0.00  0.00    -0.083 Cl
ENDBRANCH  11  12
ENDBRANCH   1  11
BRANCH   1  25
ATOM     25  C   UNL     1      -1.590  -2.179  -0.032  0.00  0.00    +0.108 C 
BRANCH  25  26
ATOM     26  C   UNL     1      -1.312  -3.276   0.998  0.00  0.00    +0.019 C 
BRANCH  26  27
ATOM     27  C   UNL     1      -1.693  -4.636   0.410  0.00  0.00    +0.001 C 
BRANCH  27  28
ATOM     28  C   UNL     1      -1.415  -5.732   1.440  0.00  0.00    -0.002 C 
BRANCH  28  29
ATOM     29  C   UNL     1      -1.796  -7.093   0.853  0.00  0.00    -0.020 C 
BRANCH  29  30
ATOM     30  C   UNL     1      -1.518  -8.189   1.883  0.00  0.00    -0.086 C 
BRANCH  30  31
ATOM     31  N   UNL     1      -1.884  -9.495   1.319  0.00  0.00    +0.378 N 
ATOM     32  H   UNL     1      -1.700 -10.218   1.998  0.00  0.00    -0.090 HD
ATOM     33  H   UNL     1      -2.865  -9.497   1.082  0.00  0.00    -0.090 HD
ATOM     34  H   UNL     1      -1.337  -9.668   0.488  0.00  0.00    -0.090 HD
ENDBRANCH  30  31
ENDBRANCH  29  30
ENDBRANCH  28  29
ENDBRANCH  27  28
ENDBRANCH  26  27
ENDBRANCH  25  26
ENDBRANCH   1  25
TORSDOF 10
