REMARK  Name = ZINC02413800
REMARK  10 active torsions:
REMARK  status: ('A' for Active; 'I' for Inactive)
REMARK    1  A    between atoms: C_1  and  C_2
REMARK    2  A    between atoms: C_2  and  C_3
REMARK    3  A    between atoms: C_3  and  S_4
REMARK    4  A    between atoms: S_4  and  C_5
REMARK    5  A    between atoms: C_16  and  C_18
REMARK    6  A    between atoms: C_16  and  C_19
REMARK    7  A    between atoms: C_19  and  C_20
REMARK    8  A    between atoms: C_26  and  C_27
REMARK    9  A    between atoms: C_26  and  N_61
REMARK   10  A    between atoms: C_27  and  O_28
REMARK                            x       y       z     vdW  Elec       q    Type
REMARK                         _______ _______ _______ _____ _____    ______ ____
ROOT
ATOM      1  C   UNL     1       2.280   0.047  -0.568  0.00  0.00    +0.191 A 
ATOM      2  N   UNL     1       1.129  -0.611  -0.484  0.00  0.00    -0.206 NA
ATOM      3  C   UNL     1      -0.038   0.001  -0.586  0.00  0.00    +0.134 A 
ATOM      4  C   UNL     1      -0.072   1.409  -0.791  0.00  0.00    +0.051 A 
ATOM      5  C   UNL     1      -1.232   2.288  -0.925  0.00  0.00    -0.020 A 
ATOM      6  C   UNL     1      -0.988   3.602  -1.118  0.00  0.00    +0.021 A 
ATOM      7  S   UNL     1       0.776   3.748  -1.122  0.00  0.00    -0.071 S 
ATOM      8  C   UNL     1       1.186   2.041  -0.869  0.00  0.00    +0.115 A 
ATOM      9  N   UNL     1       2.310   1.359  -0.758  0.00  0.00    -0.215 NA
ATOM     10  C   UNL     1      -2.016   4.679  -1.283  0.00  0.00    +0.203 C 
ATOM     11  O   UNL     1      -3.287   4.142  -0.877  0.00  0.00    -0.368 OA
ATOM     12  C   UNL     1      -3.576   2.871  -1.467  0.00  0.00    +0.071 C 
ATOM     13  C   UNL     1      -2.674   1.792  -0.861  0.00  0.00    +0.071 C 
ATOM     14  C   UNL     1      -3.332   2.948  -2.975  0.00  0.00    +0.042 C 
ATOM     15  N   UNL     1      -1.215  -0.721  -0.493  0.00  0.00    -0.318 N 
ATOM     16  C   UNL     1      -1.349  -1.342   0.831  0.00  0.00    +0.088 C 
ATOM     17  C   UNL     1      -2.696  -2.062   0.920  0.00  0.00    -0.059 C 
ATOM     18  C   UNL     1      -2.646  -2.452  -1.468  0.00  0.00    -0.059 C 
ATOM     19  C   UNL     1      -1.298  -1.731  -1.557  0.00  0.00    +0.088 C 
ATOM     20  N   UNL     1      -2.758  -3.091  -0.141  0.00  0.00    +0.383 N 
ATOM     21  H   UNL     1      -1.976  -3.744  -0.017  0.00  0.00    -0.082 HD
ENDROOT
BRANCH  12  22
ATOM     22  C   UNL     1      -5.041   2.513  -1.207  0.00  0.00    +0.032 C 
ATOM     23  C   UNL     1      -5.946   3.522  -1.917  0.00  0.00    +0.007 C 
ENDBRANCH  12  22
BRANCH   1  24
ATOM     24  S   UNL     1       3.796  -0.840  -0.422  0.00  0.00    -0.086 S 
BRANCH  24  25
ATOM     25  C   UNL     1       4.975   0.520  -0.607  0.00  0.00    +0.077 C 
BRANCH  25  27
ATOM     26  C   UNL     1       7.399   1.125  -0.669  0.00  0.00    +0.004 C 
ATOM     27  C   UNL     1       6.402  -0.025  -0.512  0.00  0.00    +0.008 C 
ENDBRANCH  25  27
ENDBRANCH  24  25
ENDBRANCH   1  24
BRANCH  20  28
ATOM     28  C   UNL     1      -4.029  -3.839  -0.045  0.00  0.00    -0.051 C 
BRANCH  28  29
ATOM     29  C   UNL     1      -5.205  -2.876   0.127  0.00  0.00    +0.137 C 
BRANCH  29  30
ATOM     30  O   UNL     1      -5.361  -2.097  -1.061  0.00  0.00    -0.397 OA
ATOM     31  H   UNL     1      -6.090  -1.463  -1.023  0.00  0.00    +0.209 HD
ENDBRANCH  29  30
ENDBRANCH  28  29
ENDBRANCH  20  28
TORSDOF 7
