REMARK  Name = ZINC38905482
REMARK  11 active torsions:
REMARK  status: ('A' for Active; 'I' for Inactive)
REMARK    1  A    between atoms: C_1  and  C_2
REMARK    2  A    between atoms: C_2  and  C_4
REMARK    3  A    between atoms: C_2  and  N_14
REMARK    4  A    between atoms: C_7  and  C_10
REMARK    5  A    between atoms: C_10  and  C_11
REMARK    6  A    between atoms: C_10  and  C_12
REMARK    7  A    between atoms: C_10  and  C_13
REMARK    8  A    between atoms: C_15  and  C_17
REMARK    9  A    between atoms: N_22  and  C_24
REMARK   10  A    between atoms: C_24  and  C_25
REMARK   11  A    between atoms: C_27  and  C_30
REMARK                            x       y       z     vdW  Elec       q    Type
REMARK                         _______ _______ _______ _____ _____    ______ ____
ROOT
ATOM      1  C   UNL     1       0.780  -1.133   3.576  0.00  0.00    +0.058 C 
ATOM      2  C   UNL     1       1.924  -0.173   3.917  0.00  0.00    +0.009 C 
ATOM      3  C   UNL     1       2.608  -0.646   5.202  0.00  0.00    -0.018 C 
ATOM      4  C   UNL     1       1.571  -0.733   6.324  0.00  0.00    -0.078 C 
ATOM      5  N   UNL     1       0.518  -1.685   5.949  0.00  0.00    +0.386 N 
ATOM      6  C   UNL     1      -0.190  -1.202   4.758  0.00  0.00    -0.065 C 
ATOM      7  H   UNL     1       0.933  -2.583   5.751  0.00  0.00    -0.081 HD
ENDROOT
BRANCH   1   9
ATOM      8  N   UNL     1       0.711  -0.489   1.189  0.00  0.00    -0.309 N 
ATOM      9  C   UNL     1       0.051  -0.633   2.355  0.00  0.00    +0.215 C 
ATOM     10  O   UNL     1      -1.129  -0.361   2.423  0.00  0.00    -0.276 OA
ATOM     11  H   UNL     1       1.654  -0.707   1.135  0.00  0.00    +0.149 HD
BRANCH   8  13
ATOM     12  C   UNL     1      -0.019   1.526   0.010  0.00  0.00    +0.033 C 
ATOM     13  C   UNL     1       0.002  -0.004   0.002  0.00  0.00    +0.100 C 
BRANCH  13  14
ATOM     14  C   UNL     1       0.707  -0.490  -1.238  0.00  0.00    -0.027 A 
ATOM     15  C   UNL     1       2.089  -0.511  -1.284  0.00  0.00    +0.006 A 
ATOM     16  C   UNL     1       2.736  -0.957  -2.421  0.00  0.00    +0.004 A 
ATOM     17  C   UNL     1       2.002  -1.382  -3.512  0.00  0.00    -0.042 A 
ATOM     18  C   UNL     1       0.620  -1.362  -3.466  0.00  0.00    +0.004 A 
ATOM     19  C   UNL     1      -0.027  -0.920  -2.327  0.00  0.00    +0.006 A 
BRANCH  17  20
ATOM     20  C   UNL     1       2.707  -1.867  -4.753  0.00  0.00    -0.013 C 
ATOM     21  C   UNL     1       3.582  -3.073  -4.403  0.00  0.00    +0.015 C 
ATOM     22  C   UNL     1       1.671  -2.276  -5.802  0.00  0.00    +0.015 C 
ATOM     23  C   UNL     1       3.584  -0.745  -5.312  0.00  0.00    +0.015 C 
ENDBRANCH  17  20
ENDBRANCH  13  14
ENDBRANCH   8  13
ENDBRANCH   1   9
BRANCH   5  24
ATOM     24  C   UNL     1      -0.433  -1.823   7.060  0.00  0.00    +0.022 C 
BRANCH  24  25
ATOM     25  C   UNL     1       0.264  -2.443   8.244  0.00  0.00    +0.211 A 
ATOM     26  N   UNL     1       0.877  -1.794   9.192  0.00  0.00    -0.193 NA
ATOM     27  C   UNL     1       1.385  -2.659  10.088  0.00  0.00    +0.202 A 
ATOM     28  N   UNL     1       1.091  -3.877   9.707  0.00  0.00    -0.056 NA
ATOM     29  O   UNL     1       0.351  -3.754   8.502  0.00  0.00    -0.340 OA
BRANCH  27  30
ATOM     30  C   UNL     1       2.151  -2.294  11.306  0.00  0.00    +0.023 A 
ATOM     31  C   UNL     1       2.393  -0.954  11.604  0.00  0.00    +0.013 A 
ATOM     32  C   UNL     1       3.105  -0.620  12.737  0.00  0.00    +0.016 A 
ATOM     33  C   UNL     1       3.579  -1.612  13.578  0.00  0.00    +0.018 A 
ATOM     34  C   UNL     1       3.342  -2.944  13.286  0.00  0.00    +0.016 A 
ATOM     35  C   UNL     1       2.625  -3.289  12.158  0.00  0.00    +0.013 A 
ATOM     36 BR   UNL     1       4.556  -1.147  15.129  0.00  0.00    -0.050 Br
ENDBRANCH  27  30
ENDBRANCH  24  25
ENDBRANCH   5  24
TORSDOF 7
