REMARK  Name = ZINC04187971
REMARK  12 active torsions:
REMARK  status: ('A' for Active; 'I' for Inactive)
REMARK    1  A    between atoms: C_1  and  C_2
REMARK    2  A    between atoms: C_4  and  C_37
REMARK    3  A    between atoms: C_5  and  S_9
REMARK    4  A    between atoms: C_6  and  C_8
REMARK    5  A    between atoms: S_9  and  N_12
REMARK    6  A    between atoms: N_20  and  C_29
REMARK    7  A    between atoms: N_22  and  C_23
REMARK    8  A    between atoms: C_29  and  C_30
REMARK    9  A    between atoms: N_32  and  C_33
REMARK   10  A    between atoms: C_33  and  C_34
REMARK   11  A    between atoms: C_34  and  O_35
REMARK   12  A    between atoms: O_35  and  C_36
REMARK                            x       y       z     vdW  Elec       q    Type
REMARK                         _______ _______ _______ _____ _____    ______ ____
ROOT
ATOM      1  N   UNL     1       0.822   7.810  -1.298  0.00  0.00    -0.176 NA
ATOM      2  C   UNL     1       2.018   7.741  -2.148  0.00  0.00    +0.112 C 
ATOM      3  C   UNL     1       2.433   6.273  -2.297  0.00  0.00    +0.052 C 
ATOM      4  C   UNL     1       2.595   5.649  -0.914  0.00  0.00    +0.115 C 
ATOM      5  C   UNL     1       1.282   5.713  -0.137  0.00  0.00    +0.052 C 
ATOM      6  C   UNL     1       0.859   7.177   0.028  0.00  0.00    +0.112 C 
ATOM      7  C   UNL     1       3.693   6.345  -0.148  0.00  0.00    +0.241 C 
ATOM      8  O   UNL     1       3.857   7.545  -0.073  0.00  0.00    -0.273 OA
ATOM      9  N   UNL     1       4.464   5.405   0.439  0.00  0.00    -0.275 N 
ATOM     10  C   UNL     1       3.936   4.071   0.125  0.00  0.00    +0.217 C 
ATOM     11  N   UNL     1       3.039   4.245  -1.041  0.00  0.00    -0.300 N 
ENDROOT
BRANCH  11  12
ATOM     12  C   UNL     1       1.954   3.368  -0.973  0.00  0.00    +0.032 A 
ATOM     13  C   UNL     1       0.910   3.482  -1.882  0.00  0.00    +0.023 A 
ATOM     14  C   UNL     1      -0.161   2.613  -1.813  0.00  0.00    +0.002 A 
ATOM     15  C   UNL     1      -0.198   1.634  -0.836  0.00  0.00    +0.000 A 
ATOM     16  C   UNL     1       0.843   1.515   0.067  0.00  0.00    +0.002 A 
ATOM     17  C   UNL     1       1.917   2.381   0.003  0.00  0.00    +0.023 A 
ENDBRANCH  11  12
BRANCH   1  18
ATOM     18  S   UNL     1      -0.543   8.586  -1.823  0.00  0.00    +0.061 S 
ATOM     19  O   UNL     1      -1.206   9.071  -0.664  0.00  0.00    -0.153 OA
ATOM     20  O   UNL     1      -0.141   9.442  -2.884  0.00  0.00    -0.153 OA
BRANCH  18  25
ATOM     21  C   UNL     1      -4.150   4.404  -4.253  0.00  0.00    +0.044 C 
ATOM     22  C   UNL     1      -3.249   5.448  -3.646  0.00  0.00    -0.050 A 
ATOM     23  C   UNL     1      -2.224   5.996  -4.394  0.00  0.00    +0.008 A 
ATOM     24  C   UNL     1      -1.397   6.954  -3.837  0.00  0.00    -0.024 A 
ATOM     25  C   UNL     1      -1.597   7.365  -2.533  0.00  0.00    +0.111 A 
ATOM     26  C   UNL     1      -2.619   6.814  -1.783  0.00  0.00    -0.024 A 
ATOM     27  C   UNL     1      -3.448   5.859  -2.341  0.00  0.00    +0.008 A 
ATOM     28  C   UNL     1      -2.833   7.258  -0.359  0.00  0.00    +0.046 C 
ATOM     29  C   UNL     1      -0.279   7.550  -4.653  0.00  0.00    +0.046 C 
ENDBRANCH  18  25
ENDBRANCH   1  18
BRANCH   9  30
ATOM     30  C   UNL     1       5.646   5.674   1.261  0.00  0.00    +0.205 C 
BRANCH  30  31
ATOM     31  C   UNL     1       5.231   5.819   2.703  0.00  0.00    +0.231 C 
ATOM     32  O   UNL     1       4.064   5.709   3.013  0.00  0.00    -0.274 OA
ATOM     33  N   UNL     1       6.158   6.072   3.648  0.00  0.00    -0.312 N 
ATOM     34  H   UNL     1       7.092   6.160   3.401  0.00  0.00    +0.149 HD
BRANCH  33  35
ATOM     35  C   UNL     1       5.756   6.213   5.050  0.00  0.00    +0.132 C 
BRANCH  35  36
ATOM     36  C   UNL     1       6.990   6.494   5.909  0.00  0.00    +0.178 C 
BRANCH  36  37
ATOM     37  O   UNL     1       7.545   7.760   5.546  0.00  0.00    -0.381 OA
ATOM     38  C   UNL     1       8.708   8.120   6.293  0.00  0.00    +0.194 C 
ENDBRANCH  36  37
ENDBRANCH  35  36
ENDBRANCH  33  35
ENDBRANCH  30  31
ENDBRANCH   9  30
TORSDOF 8
