REMARK  Name = ZINC08971324
REMARK  8 active torsions:
REMARK  status: ('A' for Active; 'I' for Inactive)
REMARK    1  A    between atoms: C_1  and  C_2
REMARK    2  A    between atoms: C_4  and  C_38
REMARK    3  A    between atoms: C_13  and  C_15
REMARK    4  A    between atoms: C_15  and  C_16
REMARK    5  A    between atoms: N_28  and  C_31
REMARK    6  A    between atoms: C_31  and  C_32
REMARK    7  A    between atoms: C_32  and  O_33
REMARK    8  A    between atoms: O_33  and  C_34
REMARK                            x       y       z     vdW  Elec       q    Type
REMARK                         _______ _______ _______ _____ _____    ______ ____
ROOT
ATOM      1  C   UNL     1       6.449  -4.037   6.070  0.00  0.00    +0.044 C 
ATOM      2  C   UNL     1       6.411  -3.121   4.874  0.00  0.00    -0.050 A 
ATOM      3  C   UNL     1       7.269  -2.038   4.803  0.00  0.00    +0.008 A 
ATOM      4  C   UNL     1       7.239  -1.197   3.710  0.00  0.00    -0.029 A 
ATOM      5  C   UNL     1       6.343  -1.432   2.670  0.00  0.00    +0.039 A 
ATOM      6  C   UNL     1       5.484  -2.522   2.753  0.00  0.00    -0.027 A 
ATOM      7  C   UNL     1       5.518  -3.360   3.845  0.00  0.00    +0.008 A 
ATOM      8  C   UNL     1       4.654  -2.499   1.495  0.00  0.00    +0.050 C 
ATOM      9  C   UNL     1       4.669  -3.747   0.730  0.00  0.00    +0.088 C 
ATOM     10  C   UNL     1       3.497  -4.588   1.377  0.00  0.00    +0.073 C 
ATOM     11  C   UNL     1       2.450  -3.479   1.379  0.00  0.00    -0.053 C 
ATOM     12  C   UNL     1       3.468  -5.677   0.352  0.00  0.00    +0.224 C 
ATOM     13  O   UNL     1       2.495  -6.288  -0.035  0.00  0.00    -0.275 OA
ATOM     14  N   UNL     1       4.760  -5.843  -0.061  0.00  0.00    -0.240 N 
ATOM     15  C   UNL     1       5.576  -4.786   0.301  0.00  0.00    +0.225 C 
ATOM     16  O   UNL     1       6.787  -4.742   0.268  0.00  0.00    -0.275 OA
ATOM     17  C   UNL     1       5.155  -1.295   0.734  0.00  0.00    +0.211 C 
ATOM     18  O   UNL     1       4.759  -0.907  -0.345  0.00  0.00    -0.277 OA
ATOM     19  N   UNL     1       6.125  -0.736   1.479  0.00  0.00    -0.286 N 
ATOM     20  C   UNL     1       8.179  -0.021   3.641  0.00  0.00    +0.045 C 
ATOM     21  H   UNL     1       6.617   0.059   1.219  0.00  0.00    +0.155 HD
ATOM     22  N   UNL     1       3.224  -2.294   1.851  0.00  0.00    +0.394 N 
ATOM     23  H   UNL     1       2.871  -1.445   1.394  0.00  0.00    -0.083 HD
ATOM     24  H   UNL     1       3.129  -2.200   2.869  0.00  0.00    -0.083 HD
ENDROOT
BRANCH  11  25
ATOM     25  C   UNL     1       1.909  -3.244  -0.033  0.00  0.00    +0.022 C 
BRANCH  25  26
ATOM     26  C   UNL     1       0.806  -2.219   0.016  0.00  0.00    -0.024 A 
ATOM     27  C   UNL     1      -0.511  -2.455  -0.100  0.00  0.00    +0.087 A 
ATOM     28  N   UNL     1      -1.206  -1.281  -0.006  0.00  0.00    -0.360 N 
ATOM     29  H   UNL     1      -2.171  -1.199  -0.060  0.00  0.00    +0.165 HD
ATOM     30  C   UNL     1      -0.332  -0.233   0.177  0.00  0.00    +0.047 A 
ATOM     31  C   UNL     1       0.966  -0.774   0.199  0.00  0.00    +0.003 A 
ATOM     32  C   UNL     1       2.068   0.065   0.372  0.00  0.00    +0.010 A 
ATOM     33  C   UNL     1       1.879   1.411   0.520  0.00  0.00    +0.001 A 
ATOM     34  C   UNL     1       0.601   1.950   0.500  0.00  0.00    +0.002 A 
ATOM     35  C   UNL     1      -0.501   1.139   0.330  0.00  0.00    +0.026 A 
ENDBRANCH  25  26
ENDBRANCH  11  25
BRANCH  14  36
ATOM     36  C   UNL     1       5.228  -7.012  -0.809  0.00  0.00    +0.144 C 
BRANCH  36  37
ATOM     37  C   UNL     1       5.081  -6.751  -2.309  0.00  0.00    +0.179 C 
BRANCH  37  38
ATOM     38  O   UNL     1       5.949  -5.683  -2.694  0.00  0.00    -0.381 OA
ATOM     39  C   UNL     1       5.888  -5.356  -4.084  0.00  0.00    +0.194 C 
ENDBRANCH  37  38
ENDBRANCH  36  37
ENDBRANCH  14  36
TORSDOF 5
