REMARK  Name = ZINC13058587
REMARK  15 active torsions:
REMARK  status: ('A' for Active; 'I' for Inactive)
REMARK    1  A    between atoms: C_1  and  C_2
REMARK    2  A    between atoms: C_2  and  O_3
REMARK    3  A    between atoms: O_3  and  C_4
REMARK    4  A    between atoms: C_4  and  C_6
REMARK    5  A    between atoms: C_10  and  N_11
REMARK    6  A    between atoms: C_12  and  C_14
REMARK    7  A    between atoms: C_14  and  N_64
REMARK    8  A    between atoms: C_15  and  N_64
REMARK    9  A    between atoms: C_16  and  C_17
REMARK   10  A    between atoms: C_16  and  N_64
REMARK   11  A    between atoms: C_20  and  O_25
REMARK   12  A    between atoms: C_21  and  O_23
REMARK   13  A    between atoms: O_23  and  C_24
REMARK   14  A    between atoms: O_25  and  C_26
REMARK   15  A    between atoms: C_28  and  C_32
REMARK                            x       y       z     vdW  Elec       q    Type
REMARK                         _______ _______ _______ _____ _____    ______ ____
ROOT
ATOM      1  N   UNL     1      -0.011   0.966   0.007  0.00  0.00    -0.281 N 
ATOM      2  C   UNL     1       1.147   1.655   0.000  0.00  0.00    +0.201 C 
ATOM      3  O   UNL     1       1.130   2.868   0.007  0.00  0.00    -0.278 OA
ATOM      4  H   UNL     1       0.002  -0.004   0.002  0.00  0.00    +0.155 HD
ENDROOT
BRANCH   1   9
ATOM      5  C   UNL     1      -2.505   1.114   0.020  0.00  0.00    +0.091 A 
ATOM      6  C   UNL     1      -3.616   2.051   0.030  0.00  0.00    -0.021 A 
ATOM      7  C   UNL     1      -3.268   3.356   0.035  0.00  0.00    -0.004 A 
ATOM      8  S   UNL     1      -1.498   3.353   0.035  0.00  0.00    -0.077 S 
ATOM      9  C   UNL     1      -1.221   1.643   0.017  0.00  0.00    +0.086 A 
ATOM     10  C   UNL     1      -4.189   4.537   0.045  0.00  0.00    +0.046 C 
ATOM     11  C   UNL     1      -5.598   4.054  -0.330  0.00  0.00    -0.009 C 
ATOM     12  C   UNL     1      -5.931   2.812   0.502  0.00  0.00    +0.008 C 
ATOM     13  C   UNL     1      -5.080   1.629   0.036  0.00  0.00    +0.037 C 
ATOM     14  C   UNL     1      -6.614   5.159  -0.036  0.00  0.00    +0.008 C 
BRANCH   5  15
ATOM     15  C   UNL     1      -2.731  -0.333   0.014  0.00  0.00    +0.342 C 
ATOM     16  O   UNL     1      -2.820  -0.939   1.065  0.00  0.00    -0.245 OA
BRANCH  15  17
ATOM     17  O   UNL     1      -2.841  -0.993  -1.157  0.00  0.00    -0.461 OA
BRANCH  17  19
ATOM     18  C   UNL     1      -3.163  -2.996  -2.504  0.00  0.00    +0.048 C 
ATOM     19  C   UNL     1      -3.065  -2.426  -1.087  0.00  0.00    +0.229 C 
ENDBRANCH  17  19
ENDBRANCH  15  17
ENDBRANCH   5  15
ENDBRANCH   1   9
BRANCH   2  20
ATOM     20  C   UNL     1       2.462   0.920  -0.017  0.00  0.00    +0.019 C 
BRANCH  20  22
ATOM     21  C   UNL     1       3.605   2.649   1.235  0.00  0.00    -0.095 C 
ATOM     22  N   UNL     1       3.561   1.908  -0.043  0.00  0.00    +0.386 N 
ATOM     23  H   UNL     1       3.393   2.573  -0.808  0.00  0.00    -0.081 HD
BRANCH  22  24
ATOM     24  C   UNL     1       4.850   1.224  -0.276  0.00  0.00    -0.043 C 
BRANCH  24  25
ATOM     25  C   UNL     1       5.915   2.263  -0.518  0.00  0.00    -0.060 A 
ATOM     26  C   UNL     1       6.162   2.711  -1.802  0.00  0.00    +0.005 A 
ATOM     27  C   UNL     1       7.134   3.667  -2.029  0.00  0.00    +0.049 A 
ATOM     28  C   UNL     1       7.870   4.171  -0.968  0.00  0.00    +0.161 A 
ATOM     29  C   UNL     1       7.625   3.716   0.324  0.00  0.00    +0.162 A 
ATOM     30  C   UNL     1       6.646   2.761   0.544  0.00  0.00    +0.051 A 
BRANCH  29  31
ATOM     31  O   UNL     1       8.345   4.208   1.367  0.00  0.00    -0.491 OA
ATOM     32  C   UNL     1       8.039   3.695   2.665  0.00  0.00    +0.277 C 
ENDBRANCH  29  31
BRANCH  28  33
ATOM     33  O   UNL     1       8.831   5.108  -1.190  0.00  0.00    -0.491 OA
ATOM     34  C   UNL     1       9.028   5.528  -2.542  0.00  0.00    +0.277 C 
ENDBRANCH  28  33
ENDBRANCH  24  25
ENDBRANCH  22  24
ENDBRANCH  20  22
ENDBRANCH   2  20
TORSDOF 10
