REMARK  Name = ZINC42446186
REMARK  8 active torsions:
REMARK  status: ('A' for Active; 'I' for Inactive)
REMARK    1  A    between atoms: C_1  and  C_2
REMARK    2  A    between atoms: C_2  and  N_3
REMARK    3  A    between atoms: N_3  and  C_4
REMARK    4  A    between atoms: C_4  and  C_5
REMARK    5  A    between atoms: C_5  and  C_7
REMARK    6  A    between atoms: C_5  and  C_8
REMARK    7  A    between atoms: N_9  and  O_10
REMARK    8  A    between atoms: C_12  and  C_14
REMARK                            x       y       z     vdW  Elec       q    Type
REMARK                         _______ _______ _______ _____ _____    ______ ____
ROOT
ATOM      1  N   UNL     1      -1.364  -0.530   0.011  0.00  0.00    -0.297 N 
ATOM      2  C   UNL     1      -1.958  -0.846   1.179  0.00  0.00    +0.253 C 
ATOM      3  O   UNL     1      -3.072  -1.335   1.182  0.00  0.00    -0.269 OA
ENDROOT
BRANCH   2   4
ATOM      4  C   UNL     1      -1.260  -0.600   2.449  0.00  0.00    +0.075 A 
ATOM      5  C   UNL     1      -1.639  -0.954   3.706  0.00  0.00    +0.029 A 
ATOM      6  C   UNL     1      -0.824  -0.623   4.804  0.00  0.00    -0.010 A 
ATOM      7  C   UNL     1      -1.045  -0.902   6.178  0.00  0.00    +0.009 A 
ATOM      8  C   UNL     1      -0.150  -0.508   7.119  0.00  0.00    +0.001 A 
ATOM      9  C   UNL     1       1.010   0.178   6.779  0.00  0.00    +0.001 A 
ATOM     10  C   UNL     1       1.265   0.469   5.455  0.00  0.00    +0.015 A 
ATOM     11  C   UNL     1       0.365   0.076   4.487  0.00  0.00    +0.020 A 
ATOM     12  S   UNL     1       0.296   0.229   2.720  0.00  0.00    -0.084 S 
ENDBRANCH   2   4
BRANCH   1  14
ATOM     13  C   UNL     1       0.037   1.469   0.170  0.00  0.00    +0.024 C 
ATOM     14  C   UNL     1       0.021  -0.052   0.000  0.00  0.00    +0.105 C 
ENDBRANCH   1  14
BRANCH   1  15
ATOM     15  C   UNL     1      -2.103  -0.664  -1.246  0.00  0.00    +0.119 C 
BRANCH  15  16
ATOM     16  C   UNL     1      -1.892  -2.070  -1.814  0.00  0.00    +0.070 C 
ATOM     17  C   UNL     1      -2.512  -3.100  -0.868  0.00  0.00    +0.017 C 
BRANCH  16  18
ATOM     18  C   UNL     1      -2.550  -2.169  -3.166  0.00  0.00    +0.136 C 
ATOM     19  N   UNL     1      -3.747  -2.642  -3.269  0.00  0.00    -0.076 NA
ATOM     20  N   UNL     1      -1.874  -1.756  -4.293  0.00  0.00    -0.344 N 
ATOM     21  H   UNL     1      -0.974  -1.401  -4.216  0.00  0.00    +0.144 HD
ATOM     22  H   UNL     1      -2.297  -1.820  -5.163  0.00  0.00    +0.144 HD
BRANCH  19  23
ATOM     23  O   UNL     1      -4.365  -2.735  -4.540  0.00  0.00    -0.408 OA
ATOM     24  H   UNL     1      -5.260  -3.101  -4.516  0.00  0.00    +0.328 HD
ENDBRANCH  19  23
ENDBRANCH  16  18
ENDBRANCH  15  16
ENDBRANCH   1  15
TORSDOF 6
