REMARK  Name = ZINC24974370
REMARK  4 active torsions:
REMARK  status: ('A' for Active; 'I' for Inactive)
REMARK    1  A    between atoms: C_4  and  C_7
REMARK    2  A    between atoms: C_10  and  C_19
REMARK    3  A    between atoms: N_12  and  C_13
REMARK    4  A    between atoms: N_21  and  C_22
REMARK                            x       y       z     vdW  Elec       q    Type
REMARK                         _______ _______ _______ _____ _____    ______ ____
ROOT
ATOM      1  C   UNL     1      -0.757   3.739  -0.225  0.00  0.00    +0.134 C 
ATOM      2  C   UNL     1      -1.274   2.290  -0.321  0.00  0.00    +0.091 C 
ATOM      3  C   UNL     1      -0.031   1.446  -0.153  0.00  0.00    +0.123 C 
ATOM      4  N   UNL     1       0.997   2.219  -0.002  0.00  0.00    -0.178 NA
ATOM      5  N   UNL     1       0.692   3.578  -0.026  0.00  0.00    -0.216 N 
ENDROOT
BRANCH   1   9
ATOM      6  C   UNL     1      -1.551   5.847  -3.854  0.00  0.00    +0.000 A 
ATOM      7  C   UNL     1      -2.321   6.088  -2.732  0.00  0.00    +0.000 A 
ATOM      8  C   UNL     1      -2.064   5.406  -1.558  0.00  0.00    +0.005 A 
ATOM      9  C   UNL     1      -1.037   4.482  -1.505  0.00  0.00    -0.025 A 
ATOM     10  C   UNL     1      -0.263   4.245  -2.626  0.00  0.00    +0.005 A 
ATOM     11  C   UNL     1      -0.523   4.923  -3.802  0.00  0.00    +0.000 A 
ENDBRANCH   1   9
BRANCH   5  12
ATOM     12  C   UNL     1       1.612   4.618   0.114  0.00  0.00    +0.052 A 
ATOM     13  C   UNL     1       1.183   5.939   0.066  0.00  0.00    +0.025 A 
ATOM     14  C   UNL     1       2.095   6.965   0.211  0.00  0.00    +0.002 A 
ATOM     15  C   UNL     1       3.437   6.680   0.392  0.00  0.00    +0.000 A 
ATOM     16  C   UNL     1       3.868   5.367   0.435  0.00  0.00    +0.002 A 
ATOM     17  C   UNL     1       2.961   4.335   0.296  0.00  0.00    +0.025 A 
ENDBRANCH   5  12
BRANCH   3  18
ATOM     18  C   UNL     1       0.006  -0.016  -0.167  0.00  0.00    +0.264 C 
ATOM     19  O   UNL     1      -1.023  -0.649  -0.318  0.00  0.00    -0.268 OA
ATOM     20  N   UNL     1       1.178  -0.662  -0.012  0.00  0.00    -0.280 N 
ATOM     21  H   UNL     1       2.118  -0.092   0.037  0.00  0.00    +0.155 HD
BRANCH  20  22
ATOM     22  C   UNL     1       1.200  -2.058   0.086  0.00  0.00    +0.036 A 
ATOM     23  C   UNL     1       0.150  -2.727   0.704  0.00  0.00    +0.025 A 
ATOM     24  C   UNL     1       0.164  -4.104   0.799  0.00  0.00    +0.029 A 
ATOM     25  C   UNL     1       1.233  -4.823   0.287  0.00  0.00    +0.067 A 
ATOM     26  C   UNL     1       2.292  -4.154  -0.330  0.00  0.00    +0.069 A 
ATOM     27  C   UNL     1       2.273  -2.771  -0.429  0.00  0.00    +0.051 A 
ATOM     28  N   UNL     1       3.201  -5.127  -0.738  0.00  0.00    -0.306 N 
ATOM     29  H   UNL     1       4.127  -4.834  -1.255  0.00  0.00    +0.170 HD
ATOM     30  C   UNL     1       2.718  -6.334  -0.386  0.00  0.00    +0.325 A 
ATOM     31  O   UNL     1       3.269  -7.398  -0.597  0.00  0.00    -0.247 OA
ATOM     32  N   UNL     1       1.532  -6.184   0.234  0.00  0.00    -0.306 N 
ATOM     33  H   UNL     1       0.834  -6.918   0.664  0.00  0.00    +0.170 HD
ENDBRANCH  20  22
ENDBRANCH   3  18
TORSDOF 4
