REMARK  Name = ZINC22917937
REMARK  10 active torsions:
REMARK  status: ('A' for Active; 'I' for Inactive)
REMARK    1  A    between atoms: C_2  and  C_3
REMARK    2  A    between atoms: C_3  and  O_9
REMARK    3  A    between atoms: O_9  and  C_10
REMARK    4  A    between atoms: C_10  and  C_11
REMARK    5  A    between atoms: C_11  and  C_13
REMARK    6  A    between atoms: C_11  and  O_37
REMARK    7  A    between atoms: C_13  and  N_14
REMARK    8  A    between atoms: N_17  and  C_20
REMARK    9  A    between atoms: C_20  and  C_21
REMARK   10  A    between atoms: C_21  and  N_22
REMARK                            x       y       z     vdW  Elec       q    Type
REMARK                         _______ _______ _______ _____ _____    ______ ____
ROOT
ATOM      1  N   UNL     1       7.128   9.110  -2.261  0.00  0.00    -0.303 NA
ATOM      2  C   UNL     1       7.381   7.808  -2.894  0.00  0.00    +0.066 C 
ATOM      3  C   UNL     1       6.067   7.032  -3.001  0.00  0.00    -0.063 C 
ATOM      4  N   UNL     1       5.492   6.859  -1.660  0.00  0.00    +0.382 N 
ATOM      5  C   UNL     1       5.239   8.161  -1.027  0.00  0.00    -0.063 C 
ATOM      6  C   UNL     1       6.554   8.937  -0.919  0.00  0.00    +0.066 C 
ATOM      7  H   UNL     1       6.225   6.318  -1.043  0.00  0.00    -0.082 HD
ENDROOT
BRANCH   1   8
ATOM      8  C   UNL     1       8.355   9.917  -2.208  0.00  0.00    +0.117 C 
BRANCH   8   9
ATOM      9  C   UNL     1       9.264   9.391  -1.096  0.00  0.00    +0.154 C 
BRANCH   9  10
ATOM     10  O   UNL     1       9.716   8.078  -1.431  0.00  0.00    -0.388 OA
ATOM     11  H   UNL     1       8.988   7.268  -1.584  0.00  0.00    +0.210 HD
ENDBRANCH   9  10
BRANCH   9  12
ATOM     12  C   UNL     1      10.469  10.321  -0.940  0.00  0.00    +0.194 C 
BRANCH  12  13
ATOM     13  O   UNL     1      11.257   9.897   0.175  0.00  0.00    -0.358 OA
BRANCH  13  14
ATOM     14  C   UNL     1      12.413  10.703   0.409  0.00  0.00    +0.129 C 
ATOM     15  C   UNL     1      13.318  10.667  -0.824  0.00  0.00    +0.048 C 
ATOM     16  C   UNL     1      14.556  11.530  -0.572  0.00  0.00    +0.004 C 
ATOM     17  C   UNL     1      15.320  10.987   0.637  0.00  0.00    +0.000 C 
ATOM     18  C   UNL     1      14.415  11.023   1.870  0.00  0.00    +0.004 C 
ATOM     19  C   UNL     1      13.177  10.160   1.619  0.00  0.00    +0.048 C 
BRANCH  14  21
ATOM     20  C   UNL     1      11.668  13.197   0.884  0.00  0.00    +0.007 C 
ATOM     21  C   UNL     1      11.999  12.091   0.673  0.00  0.00    -0.071 C 
ENDBRANCH  14  21
ENDBRANCH  13  14
ENDBRANCH  12  13
ENDBRANCH   9  12
ENDBRANCH   8   9
ENDBRANCH   1   8
BRANCH   4  22
ATOM     22  C   UNL     1       4.266   6.052  -1.712  0.00  0.00    -0.059 C 
BRANCH  22  23
ATOM     23  C   UNL     1       3.836   5.685  -0.291  0.00  0.00    +0.098 C 
BRANCH  23  24
ATOM     24  N   UNL     1       2.612   4.880  -0.343  0.00  0.00    -0.236 N 
ATOM     25  C   UNL     1       2.721   3.540  -0.424  0.00  0.00    +0.254 C 
ATOM     26  O   UNL     1       3.821   3.023  -0.452  0.00  0.00    -0.270 OA
ATOM     27  C   UNL     1       1.516   2.699  -0.479  0.00  0.00    +0.046 A 
ATOM     28  C   UNL     1       1.582   1.316  -0.562  0.00  0.00    +0.014 A 
ATOM     29  C   UNL     1       0.414   0.564  -0.612  0.00  0.00    +0.001 A 
ATOM     30  C   UNL     1      -0.818   1.152  -0.585  0.00  0.00    +0.008 A 
ATOM     31  C   UNL     1      -0.928   2.550  -0.496  0.00  0.00    -0.016 A 
ATOM     32  C   UNL     1       0.249   3.325  -0.445  0.00  0.00    +0.006 A 
ATOM     33  C   UNL     1       0.172   4.734  -0.360  0.00  0.00    +0.046 A 
ATOM     34  C   UNL     1      -1.075   5.339  -0.328  0.00  0.00    +0.014 A 
ATOM     35  C   UNL     1      -2.229   4.565  -0.379  0.00  0.00    +0.001 A 
ATOM     36  C   UNL     1      -2.173   3.203  -0.461  0.00  0.00    +0.008 A 
ATOM     37  C   UNL     1       1.421   5.508  -0.309  0.00  0.00    +0.254 C 
ATOM     38  O   UNL     1       1.379   6.721  -0.235  0.00  0.00    -0.270 OA
ENDBRANCH  23  24
ENDBRANCH  22  23
ENDBRANCH   4  22
TORSDOF 10
