REMARK  Name = ZINC34883029
REMARK  6 active torsions:
REMARK  status: ('A' for Active; 'I' for Inactive)
REMARK    1  A    between atoms: C_1  and  C_2
REMARK    2  A    between atoms: C_5  and  C_26
REMARK    3  A    between atoms: N_8  and  C_10
REMARK    4  A    between atoms: C_17  and  C_22
REMARK    5  A    between atoms: C_22  and  O_24
REMARK    6  A    between atoms: O_24  and  C_25
REMARK                            x       y       z     vdW  Elec       q    Type
REMARK                         _______ _______ _______ _____ _____    ______ ____
ROOT
ATOM      1  C   UNL     1       1.534  -2.461   2.390  0.00  0.00    +0.084 C 
ATOM      2  C   UNL     1       2.904  -1.842   2.369  0.00  0.00    +0.214 C 
ATOM      3  O   UNL     1       3.087  -0.833   3.017  0.00  0.00    -0.276 OA
ATOM      4  N   UNL     1       3.927  -2.340   1.681  0.00  0.00    -0.285 N 
ATOM      5  C   UNL     1       3.904  -3.477   0.877  0.00  0.00    +0.048 A 
ATOM      6  C   UNL     1       4.863  -3.630  -0.112  0.00  0.00    +0.039 A 
ATOM      7  C   UNL     1       4.857  -4.767  -0.924  0.00  0.00    +0.061 A 
ATOM      8  C   UNL     1       3.884  -5.755  -0.743  0.00  0.00    +0.016 A 
ATOM      9  C   UNL     1       2.930  -5.603   0.238  0.00  0.00    +0.017 A 
ATOM     10  C   UNL     1       2.934  -4.472   1.044  0.00  0.00    +0.028 A 
ATOM     11  S   UNL     1       1.702  -4.269   2.298  0.00  0.00    -0.130 S 
ATOM     12  H   UNL     1       4.771  -1.865   1.744  0.00  0.00    +0.155 HD
ENDROOT
BRANCH   1  18
ATOM     13  C   UNL     1      -0.019   1.526   0.010  0.00  0.00    +0.005 C 
ATOM     14  C   UNL     1       0.002  -0.004   0.002  0.00  0.00    -0.030 C 
ATOM     15  C   UNL     1      -1.434  -0.535   0.015  0.00  0.00    +0.003 C 
ATOM     16  C   UNL     1      -1.402  -2.064   0.086  0.00  0.00    -0.030 C 
ATOM     17  C   UNL     1      -0.613  -2.496   1.324  0.00  0.00    -0.073 C 
ATOM     18  N   UNL     1       0.758  -1.980   1.239  0.00  0.00    +0.394 N 
ATOM     19  C   UNL     1       0.740  -0.512   1.242  0.00  0.00    -0.073 C 
ATOM     20  C   UNL     1      -2.832  -2.602   0.177  0.00  0.00    +0.005 C 
ATOM     21  H   UNL     1       1.188  -2.307   0.386  0.00  0.00    -0.079 HD
ENDBRANCH   1  18
BRANCH   7  22
ATOM     22  C   UNL     1       5.878  -4.925  -1.975  0.00  0.00    +0.339 C 
ATOM     23  O   UNL     1       6.724  -4.067  -2.134  0.00  0.00    -0.245 OA
BRANCH  22  24
ATOM     24  O   UNL     1       5.873  -6.020  -2.760  0.00  0.00    -0.464 OA
ATOM     25  C   UNL     1       6.893  -6.107  -3.758  0.00  0.00    +0.280 C 
ENDBRANCH  22  24
ENDBRANCH   7  22
TORSDOF 3
