REMARK  Name = ZINC09367216
REMARK  8 active torsions:
REMARK  status: ('A' for Active; 'I' for Inactive)
REMARK    1  A    between atoms: C_1  and  C_2
REMARK    2  A    between atoms: C_2  and  C_4
REMARK    3  A    between atoms: C_2  and  N_16
REMARK    4  A    between atoms: N_12  and  C_13
REMARK    5  A    between atoms: N_16  and  C_17
REMARK    6  A    between atoms: C_20  and  C_26
REMARK    7  A    between atoms: C_22  and  N_23
REMARK    8  A    between atoms: C_26  and  C_28
REMARK                            x       y       z     vdW  Elec       q    Type
REMARK                         _______ _______ _______ _____ _____    ______ ____
ROOT
ATOM      1  C   UNL     1       2.439   5.064   2.294  0.00  0.00    +0.058 A 
ATOM      2  C   UNL     1       3.088   5.277   1.080  0.00  0.00    +0.026 A 
ATOM      3  C   UNL     1       4.386   5.701   1.062  0.00  0.00    +0.013 A 
ATOM      4  C   UNL     1       5.067   5.913   2.266  0.00  0.00    +0.025 A 
ATOM      5  C   UNL     1       4.415   5.694   3.483  0.00  0.00    +0.046 A 
ATOM      6  C   UNL     1       3.115   5.274   3.494  0.00  0.00    +0.148 A 
ENDROOT
BRANCH   6   7
ATOM      7  N   UNL     1       2.423   5.042   4.782  0.00  0.00    +0.058 N 
ATOM      8  O   UNL     1       2.627   5.786   5.725  0.00  0.00    -0.126 OA
ATOM      9  O   UNL     1       1.650   4.108   4.899  0.00  0.00    -0.126 OA
ENDBRANCH   6   7
BRANCH   1  10
ATOM     10  N   UNL     1       1.117   4.637   2.309  0.00  0.00    -0.333 N 
ATOM     11  H   UNL     1       0.682   4.433   3.151  0.00  0.00    +0.147 HD
BRANCH  10  13
ATOM     12  C   UNL     1      -0.215   5.846   0.652  0.00  0.00    +0.036 C 
ATOM     13  C   UNL     1       0.380   4.494   1.051  0.00  0.00    +0.134 C 
BRANCH  13  14
ATOM     14  C   UNL     1      -0.730   3.490   1.230  0.00  0.00    +0.135 A 
ATOM     15  N   UNL     1      -1.540   3.448   2.248  0.00  0.00    -0.230 NA
ATOM     16  C   UNL     1      -2.417   2.423   2.091  0.00  0.00    +0.090 A 
ATOM     17  C   UNL     1      -3.474   1.934   2.862  0.00  0.00    +0.030 A 
ATOM     18  C   UNL     1      -4.202   0.866   2.420  0.00  0.00    +0.002 A 
ATOM     19  C   UNL     1      -3.894   0.250   1.214  0.00  0.00    +0.002 A 
ATOM     20  C   UNL     1      -2.852   0.713   0.440  0.00  0.00    +0.028 A 
ATOM     21  C   UNL     1      -2.106   1.802   0.870  0.00  0.00    +0.074 A 
ATOM     22  N   UNL     1      -1.031   2.496   0.352  0.00  0.00    -0.269 N 
BRANCH  22  23
ATOM     23  C   UNL     1      -0.346   2.218  -0.913  0.00  0.00    +0.449 C 
ATOM     24  F   UNL     1      -0.420   0.849  -1.192  0.00  0.00    -0.185 F 
ATOM     25  F   UNL     1       0.995   2.602  -0.811  0.00  0.00    -0.185 F 
ENDBRANCH  22  23
ENDBRANCH  13  14
ENDBRANCH  10  13
ENDBRANCH   1  10
BRANCH   4  26
ATOM     26  C   UNL     1       6.470   6.366   2.250  0.00  0.00    +0.193 C 
ATOM     27  O   UNL     1       6.882   7.097   3.131  0.00  0.00    -0.287 OA
BRANCH  26  28
ATOM     28  C   UNL     1       7.375   5.933   1.165  0.00  0.00    +0.022 A 
ATOM     29  C   UNL     1       6.955   4.971   0.244  0.00  0.00    +0.012 A 
ATOM     30  C   UNL     1       7.803   4.574  -0.768  0.00  0.00    +0.001 A 
ATOM     31  C   UNL     1       9.071   5.119  -0.867  0.00  0.00    +0.000 A 
ATOM     32  C   UNL     1       9.496   6.069   0.046  0.00  0.00    +0.001 A 
ATOM     33  C   UNL     1       8.656   6.478   1.061  0.00  0.00    +0.012 A 
ENDBRANCH  26  28
ENDBRANCH   4  26
TORSDOF 7
