REMARK  Name = ZINC39709145
REMARK  7 active torsions:
REMARK  status: ('A' for Active; 'I' for Inactive)
REMARK    1  A    between atoms: C_1  and  C_2
REMARK    2  A    between atoms: C_7  and  C_12
REMARK    3  A    between atoms: C_12  and  C_29
REMARK    4  A    between atoms: C_13  and  C_14
REMARK    5  A    between atoms: N_18  and  C_19
REMARK    6  A    between atoms: C_22  and  S_25
REMARK    7  A    between atoms: S_25  and  N_28
REMARK                            x       y       z     vdW  Elec       q    Type
REMARK                         _______ _______ _______ _____ _____    ______ ____
ROOT
ATOM      1  C   UNL     1      -2.167  -7.181   2.709  0.00  0.00    +0.048 A 
ATOM      2  C   UNL     1      -2.181  -8.361   3.429  0.00  0.00    +0.027 A 
ATOM      3  C   UNL     1      -3.517  -8.639   3.739  0.00  0.00    +0.020 A 
ATOM      4  C   UNL     1      -4.281  -7.650   3.216  0.00  0.00    +0.092 A 
ATOM      5  N   UNL     1      -3.471  -6.752   2.591  0.00  0.00    -0.316 N 
ENDROOT
BRANCH   5   6
ATOM      6  C   UNL     1      -3.894  -5.588   1.936  0.00  0.00    +0.047 A 
ATOM      7  C   UNL     1      -3.368  -4.356   2.299  0.00  0.00    +0.028 A 
ATOM      8  C   UNL     1      -3.787  -3.210   1.650  0.00  0.00    +0.030 A 
ATOM      9  C   UNL     1      -4.729  -3.290   0.641  0.00  0.00    +0.105 A 
ATOM     10  C   UNL     1      -5.254  -4.516   0.278  0.00  0.00    +0.030 A 
ATOM     11  C   UNL     1      -4.835  -5.666   0.918  0.00  0.00    +0.028 A 
BRANCH   9  12
ATOM     12  S   UNL     1      -5.260  -1.826  -0.183  0.00  0.00    +0.056 S 
ATOM     13  O   UNL     1      -6.548  -2.105  -0.716  0.00  0.00    -0.153 OA
ATOM     14  O   UNL     1      -5.023  -0.748   0.711  0.00  0.00    -0.153 OA
BRANCH  12  15
ATOM     15  N   UNL     1      -4.252  -1.599  -1.477  0.00  0.00    -0.204 NA
ATOM     16  H   UNL     1      -4.581  -1.159  -2.277  0.00  0.00    +0.144 HD
ATOM     17  H   UNL     1      -3.333  -1.905  -1.435  0.00  0.00    +0.144 HD
ENDBRANCH  12  15
ENDBRANCH   9  12
ENDBRANCH   5   6
BRANCH   1  19
ATOM     18  C   UNL     1       0.194  -7.125   2.273  0.00  0.00    +0.073 C 
ATOM     19  C   UNL     1      -1.020  -6.529   2.191  0.00  0.00    +0.044 C 
BRANCH  18  26
ATOM     20  C   UNL     1       6.547  -9.429   0.492  0.00  0.00    +0.044 C 
ATOM     21  C   UNL     1       5.464  -8.561   1.078  0.00  0.00    -0.048 A 
ATOM     22  C   UNL     1       5.739  -7.836   2.251  0.00  0.00    +0.005 A 
ATOM     23  C   UNL     1       4.829  -7.036   2.842  0.00  0.00    +0.027 A 
ATOM     24  C   UNL     1       3.490  -6.903   2.252  0.00  0.00    +0.060 A 
ATOM     25  N   UNL     1       2.436  -6.221   2.596  0.00  0.00    -0.359 N 
ATOM     26  C   UNL     1       1.389  -6.497   1.603  0.00  0.00    +0.216 C 
ATOM     27  N   UNL     1       1.975  -7.432   0.634  0.00  0.00    -0.359 N 
ATOM     28  C   UNL     1       3.198  -7.670   1.010  0.00  0.00    +0.061 A 
ATOM     29  C   UNL     1       4.270  -8.506   0.453  0.00  0.00    +0.030 A 
ATOM     30  H   UNL     1       2.356  -5.637   3.366  0.00  0.00    +0.162 HD
ATOM     31  H   UNL     1       1.531  -7.805  -0.144  0.00  0.00    +0.162 HD
ENDBRANCH  18  26
BRANCH  18  32
ATOM     32  C   UNL     1       0.342  -8.353   2.996  0.00  0.00    +0.099 C 
ATOM     33  N   UNL     1       0.458  -9.327   3.569  0.00  0.00    -0.191 NA
ENDBRANCH  18  32
ENDBRANCH   1  19
TORSDOF 6
