REMARK  Name = ZINC22069236
REMARK  13 active torsions:
REMARK  status: ('A' for Active; 'I' for Inactive)
REMARK    1  A    between atoms: C_1  and  C_2
REMARK    2  A    between atoms: C_2  and  O_3
REMARK    3  A    between atoms: O_3  and  C_4
REMARK    4  A    between atoms: C_4  and  C_6
REMARK    5  A    between atoms: C_7  and  C_31
REMARK    6  A    between atoms: C_10  and  N_11
REMARK    7  A    between atoms: C_12  and  C_14
REMARK    8  A    between atoms: C_14  and  C_16
REMARK    9  A    between atoms: C_14  and  S_17
REMARK   10  A    between atoms: S_17  and  C_18
REMARK   11  A    between atoms: C_22  and  C_26
REMARK   12  A    between atoms: C_23  and  C_25
REMARK   13  A    between atoms: N_29  and  C_30
REMARK                            x       y       z     vdW  Elec       q    Type
REMARK                         _______ _______ _______ _____ _____    ______ ____
ROOT
ATOM      1  N   UNL     1      -0.011   0.966   0.007  0.00  0.00    -0.278 N 
ATOM      2  C   UNL     1       1.147   1.655   0.000  0.00  0.00    +0.231 C 
ATOM      3  O   UNL     1       1.130   2.868   0.007  0.00  0.00    -0.274 OA
ATOM      4  H   UNL     1       0.004  -0.134   0.006  0.00  0.00    +0.155 HD
ENDROOT
BRANCH   1   9
ATOM      5  C   UNL     1      -2.507   1.113   0.014  0.00  0.00    +0.091 A 
ATOM      6  C   UNL     1      -3.598   2.059   0.029  0.00  0.00    -0.021 A 
ATOM      7  C   UNL     1      -3.278   3.365   0.035  0.00  0.00    +0.051 A 
ATOM      8  S   UNL     1      -1.497   3.352   0.027  0.00  0.00    -0.081 S 
ATOM      9  C   UNL     1      -1.221   1.643   0.017  0.00  0.00    +0.086 A 
BRANCH   6  10
ATOM     10  C   UNL     1      -5.034   1.602   0.033  0.00  0.00    +0.020 C 
ATOM     11  C   UNL     1      -6.115   2.668  -0.161  0.00  0.00    +0.009 C 
ATOM     12  C   UNL     1      -5.908   2.028   1.214  0.00  0.00    +0.009 C 
ENDBRANCH   6  10
BRANCH   5  13
ATOM     13  C   UNL     1      -2.743  -0.332   0.001  0.00  0.00    +0.342 C 
ATOM     14  O   UNL     1      -2.840  -0.942   1.049  0.00  0.00    -0.245 OA
BRANCH  13  15
ATOM     15  O   UNL     1      -2.854  -0.987  -1.173  0.00  0.00    -0.461 OA
BRANCH  15  17
ATOM     16  C   UNL     1      -3.184  -2.982  -2.529  0.00  0.00    +0.048 C 
ATOM     17  C   UNL     1      -3.088  -2.418  -1.110  0.00  0.00    +0.229 C 
ENDBRANCH  15  17
ENDBRANCH  13  15
ENDBRANCH   5  13
ENDBRANCH   1   9
BRANCH   2  18
ATOM     18  C   UNL     1       2.462   0.920  -0.017  0.00  0.00    +0.137 C 
ATOM     19  C   UNL     1       2.832   0.569  -1.459  0.00  0.00    +0.029 C 
BRANCH  18  20
ATOM     20  S   UNL     1       3.750   1.971   0.698  0.00  0.00    -0.075 S 
BRANCH  20  21
ATOM     21  C   UNL     1       5.103   0.842   0.695  0.00  0.00    +0.173 A 
ATOM     22  N   UNL     1       4.929  -0.380   0.233  0.00  0.00    -0.216 NA
ATOM     23  C   UNL     1       5.930  -1.251   0.218  0.00  0.00    +0.117 A 
ATOM     24  C   UNL     1       7.215  -0.921   0.689  0.00  0.00    +0.075 A 
ATOM     25  C   UNL     1       8.193  -1.992   0.600  0.00  0.00    -0.026 A 
ATOM     26  C   UNL     1       7.822  -3.178   0.096  0.00  0.00    -0.008 A 
ATOM     27  S   UNL     1       6.102  -2.939  -0.303  0.00  0.00    -0.073 S 
ATOM     28  C   UNL     1       8.660  -4.417  -0.088  0.00  0.00    +0.052 C 
ATOM     29  C   UNL     1       9.609  -1.772   1.069  0.00  0.00    +0.045 C 
ATOM     30  C   UNL     1       7.374   0.411   1.183  0.00  0.00    +0.263 A 
ATOM     31  O   UNL     1       8.452   0.787   1.611  0.00  0.00    -0.267 OA
ATOM     32  N   UNL     1       6.319   1.247   1.164  0.00  0.00    -0.290 N 
ATOM     33  C   UNL     1       6.477   2.615   1.663  0.00  0.00    +0.154 C 
ENDBRANCH  20  21
ENDBRANCH  18  20
ENDBRANCH   2  18
TORSDOF 8
