REMARK  Name = ZINC10001522
REMARK  11 active torsions:
REMARK  status: ('A' for Active; 'I' for Inactive)
REMARK    1  A    between atoms: C_1  and  C_2
REMARK    2  A    between atoms: C_2  and  C_3
REMARK    3  A    between atoms: C_2  and  C_4
REMARK    4  A    between atoms: C_4  and  C_6
REMARK    5  A    between atoms: C_4  and  N_27
REMARK    6  A    between atoms: C_9  and  S_12
REMARK    7  A    between atoms: N_10  and  C_11
REMARK    8  A    between atoms: S_12  and  C_13
REMARK    9  A    between atoms: C_13  and  C_14
REMARK   10  A    between atoms: N_16  and  C_17
REMARK   11  A    between atoms: C_28  and  C_30
REMARK                            x       y       z     vdW  Elec       q    Type
REMARK                         _______ _______ _______ _____ _____    ______ ____
ROOT
ATOM      1  C   UNL     1       3.813  14.040   0.660  0.00  0.00    +0.155 A 
ATOM      2  N   UNL     1       2.548  13.735   0.593  0.00  0.00    -0.132 NA
ATOM      3  N   UNL     1       2.406  12.463   0.481  0.00  0.00    -0.122 NA
ATOM      4  C   UNL     1       3.583  11.881   0.479  0.00  0.00    +0.192 A 
ATOM      5  N   UNL     1       4.518  12.870   0.590  0.00  0.00    -0.308 N 
ATOM      6  C   UNL     1       5.973  12.711   0.626  0.00  0.00    +0.152 C 
ENDROOT
BRANCH   1   7
ATOM      7  C   UNL     1       4.392  15.425   0.791  0.00  0.00    +0.144 C 
BRANCH   7   8
ATOM      8  N   UNL     1       3.646  16.172   1.806  0.00  0.00    -0.301 N 
ATOM      9  C   UNL     1       4.234  17.194   2.459  0.00  0.00    +0.245 C 
ATOM     10  O   UNL     1       5.384  17.495   2.205  0.00  0.00    -0.270 OA
ATOM     11  H   UNL     1       2.728  15.932   2.009  0.00  0.00    +0.150 HD
BRANCH   9  12
ATOM     12  C   UNL     1       3.482  17.947   3.482  0.00  0.00    +0.040 A 
ATOM     13  C   UNL     1       2.159  17.606   3.771  0.00  0.00    +0.017 A 
ATOM     14  C   UNL     1       1.460  18.306   4.730  0.00  0.00    +0.050 A 
ATOM     15  C   UNL     1       2.064  19.360   5.404  0.00  0.00    +0.166 A 
ATOM     16  C   UNL     1       3.384  19.709   5.116  0.00  0.00    +0.167 A 
ATOM     17  C   UNL     1       4.091  19.006   4.160  0.00  0.00    +0.062 A 
ATOM     18  O   UNL     1       3.737  20.765   5.907  0.00  0.00    -0.453 OA
ATOM     19  C   UNL     1       2.496  21.318   6.384  0.00  0.00    +0.466 C 
ATOM     20  O   UNL     1       1.594  20.196   6.373  0.00  0.00    -0.453 OA
ENDBRANCH   9  12
ENDBRANCH   7   8
BRANCH   7  22
ATOM     21  C   UNL     1       5.070  15.369  -1.613  0.00  0.00    +0.009 C 
ATOM     22  C   UNL     1       4.290  16.149  -0.553  0.00  0.00    +0.011 C 
ATOM     23  C   UNL     1       2.821  16.248  -0.969  0.00  0.00    +0.009 C 
ENDBRANCH   7  22
ENDBRANCH   1   7
BRANCH   4  24
ATOM     24  S   UNL     1       3.897  10.152   0.349  0.00  0.00    -0.077 S 
BRANCH  24  25
ATOM     25  C   UNL     1       2.200   9.531   0.243  0.00  0.00    +0.173 C 
BRANCH  25  26
ATOM     26  C   UNL     1       2.221   8.029   0.122  0.00  0.00    +0.227 C 
ATOM     27  O   UNL     1       3.279   7.437   0.109  0.00  0.00    -0.275 OA
ATOM     28  N   UNL     1       1.064   7.345   0.028  0.00  0.00    -0.285 N 
ATOM     29  H   UNL     1       0.221   7.822  -0.029  0.00  0.00    +0.155 HD
BRANCH  28  30
ATOM     30  C   UNL     1       1.078   5.946   0.012  0.00  0.00    +0.034 A 
ATOM     31  C   UNL     1       2.129   5.271  -0.622  0.00  0.00    +0.024 A 
ATOM     32  C   UNL     1       2.168   3.913  -0.653  0.00  0.00    +0.010 A 
ATOM     33  C   UNL     1       1.144   3.168  -0.043  0.00  0.00    -0.018 A 
ATOM     34  C   UNL     1       1.159   1.763  -0.059  0.00  0.00    +0.008 A 
ATOM     35  C   UNL     1       0.152   1.071   0.540  0.00  0.00    +0.001 A 
ATOM     36  C   UNL     1      -0.900   1.734   1.169  0.00  0.00    +0.001 A 
ATOM     37  C   UNL     1      -0.945   3.094   1.210  0.00  0.00    +0.008 A 
ATOM     38  C   UNL     1       0.077   3.843   0.601  0.00  0.00    -0.016 A 
ATOM     39  C   UNL     1       0.059   5.247   0.620  0.00  0.00    +0.031 A 
ENDBRANCH  28  30
ENDBRANCH  25  26
ENDBRANCH  24  25
ENDBRANCH   4  24
TORSDOF 8
