REMARK  Name = ZINC40733487
REMARK  4 active torsions:
REMARK  status: ('A' for Active; 'I' for Inactive)
REMARK    1  A    between atoms: C_1  and  C_2
REMARK    2  A    between atoms: C_2  and  C_3
REMARK    3  A    between atoms: C_11  and  N_24
REMARK    4  A    between atoms: C_12  and  N_16
REMARK                            x       y       z     vdW  Elec       q    Type
REMARK                         _______ _______ _______ _____ _____    ______ ____
ROOT
ATOM      1  C   UNL     1      -2.969   0.449   0.304  0.00  0.00    +0.075 C 
ATOM      2  C   UNL     1      -2.461  -0.217  -0.979  0.00  0.00    +0.022 C 
ATOM      3  C   UNL     1      -2.595  -1.736  -0.849  0.00  0.00    +0.003 C 
ATOM      4  C   UNL     1      -1.740  -2.227   0.322  0.00  0.00    +0.019 C 
ATOM      5  C   UNL     1      -2.240  -1.584   1.619  0.00  0.00    +0.107 C 
ATOM      6  N   UNL     1      -2.253  -0.124   1.452  0.00  0.00    -0.311 N 
ATOM      7  C   UNL     1      -1.599   0.699   2.361  0.00  0.00    +0.147 A 
ATOM      8  C   UNL     1      -2.236   1.105   3.536  0.00  0.00    +0.104 A 
ATOM      9  C   UNL     1      -1.533   1.931   4.414  0.00  0.00    +0.127 A 
ATOM     10  N   UNL     1      -0.292   2.298   4.101  0.00  0.00    -0.333 N 
ATOM     11  C   UNL     1       0.272   1.893   2.982  0.00  0.00    +0.200 A 
ATOM     12  N   UNL     1      -0.355   1.108   2.128  0.00  0.00    -0.221 NA
ATOM     13  H   UNL     1       0.204   2.872   4.706  0.00  0.00    +0.168 HD
ENDROOT
BRANCH   9  14
ATOM     14  N   UNL     1      -2.120   2.365   5.599  0.00  0.00    -0.284 N 
ATOM     15  C   UNL     1      -1.472   3.307   6.392  0.00  0.00    +0.124 A 
ATOM     16  C   UNL     1      -1.991   3.628   7.643  0.00  0.00    +0.045 A 
ATOM     17  C   UNL     1      -1.337   4.566   8.421  0.00  0.00    +0.020 A 
ATOM     18  C   UNL     1      -0.181   5.152   7.922  0.00  0.00    +0.036 A 
ATOM     19  C   UNL     1       0.278   4.785   6.672  0.00  0.00    +0.128 A 
ATOM     20  N   UNL     1      -0.365   3.884   5.953  0.00  0.00    -0.239 NA
ATOM     21 BR   UNL     1       0.754   6.441   8.942  0.00  0.00    -0.049 Br
ATOM     22  H   UNL     1      -2.981   2.011   5.871  0.00  0.00    +0.155 HD
ENDBRANCH   9  14
BRANCH   8  23
ATOM     23  N   UNL     1      -3.546   0.694   3.826  0.00  0.00    -0.353 N 
ATOM     24  H   UNL     1      -4.049   0.181   3.174  0.00  0.00    +0.143 HD
ATOM     25  H   UNL     1      -3.949   0.922   4.678  0.00  0.00    +0.143 HD
ENDBRANCH   8  23
BRANCH   1  27
ATOM     26  C   UNL     1      -3.567   2.572  -0.870  0.00  0.00    +0.006 C 
ATOM     27  C   UNL     1      -2.709   1.955   0.237  0.00  0.00    +0.019 C 
ENDBRANCH   1  27
TORSDOF 3
