REMARK  Name = ZINC44783152
REMARK  6 active torsions:
REMARK  status: ('A' for Active; 'I' for Inactive)
REMARK    1  A    between atoms: C_1  and  C_2
REMARK    2  A    between atoms: C_12  and  C_14
REMARK    3  A    between atoms: C_14  and  C_15
REMARK    4  A    between atoms: C_14  and  C_16
REMARK    5  A    between atoms: C_14  and  C_17
REMARK    6  A    between atoms: N_18  and  O_19
REMARK                            x       y       z     vdW  Elec       q    Type
REMARK                         _______ _______ _______ _____ _____    ______ ____
ROOT
ATOM      1  C   UNL     1       2.380   0.953   0.700  0.00  0.00    +0.044 C 
ATOM      2  C   UNL     1       1.970  -0.489   0.548  0.00  0.00    -0.050 A 
ATOM      3  C   UNL     1       1.600  -0.974  -0.693  0.00  0.00    +0.005 A 
ATOM      4  C   UNL     1       1.224  -2.295  -0.831  0.00  0.00    +0.024 A 
ATOM      5  C   UNL     1       1.218  -3.136   0.277  0.00  0.00    +0.039 A 
ATOM      6  C   UNL     1       1.592  -2.650   1.519  0.00  0.00    -0.026 A 
ATOM      7  C   UNL     1       1.971  -1.325   1.648  0.00  0.00    +0.008 A 
ATOM      8  C   UNL     1       1.607  -3.535   2.738  0.00  0.00    +0.038 C 
ATOM      9  C   UNL     1       0.716  -4.758   2.523  0.00  0.00    +0.024 C 
ATOM     10  C   UNL     1       1.102  -5.428   1.198  0.00  0.00    +0.114 C 
ATOM     11  N   UNL     1       0.827  -4.473   0.116  0.00  0.00    -0.270 N 
ATOM     12  C   UNL     1       0.209  -4.876  -1.012  0.00  0.00    +0.233 C 
ATOM     13  O   UNL     1      -0.101  -4.062  -1.857  0.00  0.00    -0.274 OA
ENDROOT
BRANCH  12  14
ATOM     14  C   UNL     1      -0.096  -6.336  -1.224  0.00  0.00    +0.100 C 
ATOM     15  C   UNL     1       1.164  -7.164  -0.963  0.00  0.00    +0.029 C 
ATOM     16  C   UNL     1      -1.201  -6.771  -0.259  0.00  0.00    +0.029 C 
BRANCH  14  17
ATOM     17  C   UNL     1      -0.554  -6.553  -2.643  0.00  0.00    +0.146 C 
ATOM     18  N   UNL     1       0.106  -7.345  -3.421  0.00  0.00    -0.076 NA
ATOM     19  N   UNL     1      -1.677  -5.907  -3.110  0.00  0.00    -0.343 N 
ATOM     20  H   UNL     1      -2.174  -5.312  -2.526  0.00  0.00    +0.144 HD
ATOM     21  H   UNL     1      -1.973  -6.046  -4.024  0.00  0.00    +0.144 HD
BRANCH  18  22
ATOM     22  O   UNL     1      -0.325  -7.548  -4.755  0.00  0.00    -0.408 OA
ATOM     23  H   UNL     1       0.233  -8.156  -5.260  0.00  0.00    +0.328 HD
ENDBRANCH  18  22
ENDBRANCH  14  17
ENDBRANCH  12  14
TORSDOF 3
