REMARK  Name = ZINC10611360
REMARK  11 active torsions:
REMARK  status: ('A' for Active; 'I' for Inactive)
REMARK    1  A    between atoms: C_1  and  C_2
REMARK    2  A    between atoms: C_4  and  S_32
REMARK    3  A    between atoms: C_6  and  N_9
REMARK    4  A    between atoms: C_7  and  C_8
REMARK    5  A    between atoms: C_10  and  C_12
REMARK    6  A    between atoms: C_12  and  N_13
REMARK    7  A    between atoms: C_16  and  C_21
REMARK    8  A    between atoms: C_21  and  C_22
REMARK    9  A    between atoms: S_32  and  N_35
REMARK   10  A    between atoms: N_35  and  C_36
REMARK   11  A    between atoms: N_35  and  C_37
REMARK                            x       y       z     vdW  Elec       q    Type
REMARK                         _______ _______ _______ _____ _____    ______ ____
ROOT
ATOM      1  C   UNL     1      -6.261   2.905   3.493  0.00  0.00    +0.214 C 
ENDROOT
BRANCH   1   2
ATOM      2  N   UNL     1      -6.715   3.279   4.835  0.00  0.00    -0.216 N 
ATOM      3  C   UNL     1      -7.041   2.394   5.798  0.00  0.00    +0.244 C 
ATOM      4  O   UNL     1      -7.015   1.184   5.720  0.00  0.00    -0.273 OA
ATOM      5  C   UNL     1      -7.446   3.225   6.999  0.00  0.00    +0.165 C 
ATOM      6  N   UNL     1      -7.293   4.612   6.527  0.00  0.00    -0.287 N 
ATOM      7  C   UNL     1      -6.863   4.541   5.254  0.00  0.00    +0.310 C 
ATOM      8  O   UNL     1      -6.634   5.514   4.563  0.00  0.00    -0.252 OA
ATOM      9  H   UNL     1      -7.468   5.420   7.035  0.00  0.00    +0.151 HD
BRANCH   5  10
ATOM     10  C   UNL     1      -6.516   2.954   8.184  0.00  0.00    +0.069 C 
BRANCH  10  11
ATOM     11  C   UNL     1      -6.955   3.781   9.365  0.00  0.00    -0.020 A 
ATOM     12  C   UNL     1      -6.475   4.983   9.721  0.00  0.00    +0.087 A 
ATOM     13  N   UNL     1      -7.114   5.426  10.846  0.00  0.00    -0.360 N 
ATOM     14  H   UNL     1      -6.938   6.270  11.291  0.00  0.00    +0.165 HD
ATOM     15  C   UNL     1      -8.045   4.497  11.253  0.00  0.00    +0.047 A 
ATOM     16  C   UNL     1      -7.990   3.428  10.339  0.00  0.00    +0.003 A 
ATOM     17  C   UNL     1      -8.829   2.325  10.507  0.00  0.00    +0.010 A 
ATOM     18  C   UNL     1      -9.709   2.294  11.553  0.00  0.00    +0.001 A 
ATOM     19  C   UNL     1      -9.771   3.349  12.453  0.00  0.00    +0.002 A 
ATOM     20  C   UNL     1      -8.948   4.445  12.309  0.00  0.00    +0.026 A 
ENDBRANCH  10  11
ENDBRANCH   5  10
ENDBRANCH   1   2
BRANCH   1  22
ATOM     21  N   UNL     1      -4.114   2.447   2.352  0.00  0.00    -0.284 N 
ATOM     22  C   UNL     1      -4.758   2.784   3.487  0.00  0.00    +0.235 C 
ATOM     23  O   UNL     1      -4.129   2.989   4.504  0.00  0.00    -0.274 OA
ATOM     24  H   UNL     1      -4.608   2.361   1.522  0.00  0.00    +0.155 HD
BRANCH  21  30
ATOM     25  C   UNL     1       0.191   2.336  -0.020  0.00  0.00    +0.044 C 
ATOM     26  C   UNL     1      -0.623   2.159   1.237  0.00  0.00    -0.044 A 
ATOM     27  C   UNL     1      -0.003   1.774   2.412  0.00  0.00    +0.032 A 
ATOM     28  C   UNL     1      -0.746   1.611   3.567  0.00  0.00    +0.107 A 
ATOM     29  C   UNL     1      -2.109   1.833   3.550  0.00  0.00    +0.052 A 
ATOM     30  C   UNL     1      -2.733   2.221   2.372  0.00  0.00    +0.038 A 
ATOM     31  C   UNL     1      -1.984   2.389   1.215  0.00  0.00    -0.026 A 
ATOM     32  C   UNL     1      -2.657   2.815  -0.064  0.00  0.00    +0.046 C 
BRANCH  28  33
ATOM     33  S   UNL     1       0.048   1.119   5.061  0.00  0.00    +0.060 S 
ATOM     34  O   UNL     1      -0.950   0.508   5.868  0.00  0.00    -0.153 OA
ATOM     35  O   UNL     1       1.241   0.445   4.684  0.00  0.00    -0.153 OA
BRANCH  33  36
ATOM     36  N   UNL     1       0.512   2.501   5.847  0.00  0.00    -0.183 NA
ATOM     37  C   UNL     1      -0.399   3.143   6.798  0.00  0.00    +0.131 C 
ATOM     38  C   UNL     1       1.833   3.080   5.591  0.00  0.00    +0.131 C 
ENDBRANCH  33  36
ENDBRANCH  28  33
ENDBRANCH  21  30
ENDBRANCH   1  22
TORSDOF 7
