REMARK  Name = ZINC13270902
REMARK  10 active torsions:
REMARK  status: ('A' for Active; 'I' for Inactive)
REMARK    1  A    between atoms: C_4  and  C_7
REMARK    2  A    between atoms: C_7  and  C_8
REMARK    3  A    between atoms: C_7  and  O_14
REMARK    4  A    between atoms: O_14  and  C_15
REMARK    5  A    between atoms: C_15  and  C_16
REMARK    6  A    between atoms: C_16  and  S_17
REMARK    7  A    between atoms: S_17  and  C_18
REMARK    8  A    between atoms: N_28  and  C_29
REMARK    9  A    between atoms: C_29  and  C_30
REMARK   10  A    between atoms: C_30  and  C_31
REMARK                            x       y       z     vdW  Elec       q    Type
REMARK                         _______ _______ _______ _____ _____    ______ ____
ROOT
ATOM      1  S   UNL     1      -1.732  -3.786   3.001  0.00  0.00    -0.085 S 
ENDROOT
BRANCH   1   2
ATOM      2  C   UNL     1      -3.265  -4.033   3.835  0.00  0.00    +0.172 A 
ATOM      3  N   UNL     1      -4.193  -3.115   3.720  0.00  0.00    -0.223 NA
ATOM      4  C   UNL     1      -5.390  -3.242   4.327  0.00  0.00    +0.079 A 
ATOM      5  C   UNL     1      -6.383  -2.265   4.201  0.00  0.00    +0.028 A 
ATOM      6  C   UNL     1      -7.580  -2.432   4.838  0.00  0.00    +0.002 A 
ATOM      7  C   UNL     1      -7.828  -3.559   5.611  0.00  0.00    +0.001 A 
ATOM      8  C   UNL     1      -6.877  -4.532   5.753  0.00  0.00    +0.015 A 
ATOM      9  C   UNL     1      -5.646  -4.388   5.114  0.00  0.00    +0.065 A 
ATOM     10  C   UNL     1      -4.588  -5.400   5.232  0.00  0.00    +0.262 A 
ATOM     11  O   UNL     1      -4.748  -6.408   5.895  0.00  0.00    -0.267 OA
ATOM     12  N   UNL     1      -3.427  -5.169   4.575  0.00  0.00    -0.287 N 
BRANCH  12  13
ATOM     13  C   UNL     1      -2.338  -6.146   4.657  0.00  0.00    +0.138 C 
BRANCH  13  14
ATOM     14  C   UNL     1      -1.437  -5.805   5.846  0.00  0.00    +0.147 C 
BRANCH  14  15
ATOM     15  C   UNL     1      -0.316  -6.809   5.931  0.00  0.00    +0.358 C 
ATOM     16  O   UNL     1      -0.246  -7.705   5.124  0.00  0.00    -0.246 OA
ATOM     17  O   UNL     1       0.603  -6.708   6.904  0.00  0.00    -0.246 OA
ENDBRANCH  14  15
ENDBRANCH  13  14
ENDBRANCH  12  13
ENDBRANCH   1   2
BRANCH   1  18
ATOM     18  C   UNL     1      -2.058  -2.190   2.211  0.00  0.00    +0.105 C 
BRANCH  18  19
ATOM     19  C   UNL     1      -0.830  -1.759   1.406  0.00  0.00    +0.172 C 
BRANCH  19  20
ATOM     20  O   UNL     1      -1.088  -0.499   0.783  0.00  0.00    -0.367 OA
BRANCH  20  21
ATOM     21  C   UNL     1       0.002  -0.004   0.002  0.00  0.00    +0.178 C 
BRANCH  21  25
ATOM     22  C   UNL     1      -0.056   4.267   0.025  0.00  0.00    +0.000 A 
ATOM     23  C   UNL     1       1.151   3.592   0.010  0.00  0.00    +0.000 A 
ATOM     24  C   UNL     1       1.169   2.210   0.003  0.00  0.00    +0.006 A 
ATOM     25  C   UNL     1      -0.018   1.503   0.010  0.00  0.00    -0.015 A 
ATOM     26  C   UNL     1      -1.225   2.178   0.020  0.00  0.00    +0.006 A 
ATOM     27  C   UNL     1      -1.244   3.560   0.032  0.00  0.00    +0.000 A 
ENDBRANCH  21  25
BRANCH  21  28
ATOM     28  C   UNL     1      -0.128  -0.500  -1.415  0.00  0.00    -0.015 A 
ATOM     29  C   UNL     1      -1.372  -0.554  -2.017  0.00  0.00    +0.006 A 
ATOM     30  C   UNL     1      -1.491  -1.004  -3.318  0.00  0.00    +0.000 A 
ATOM     31  C   UNL     1      -0.368  -1.411  -4.014  0.00  0.00    +0.000 A 
ATOM     32  C   UNL     1       0.875  -1.363  -3.410  0.00  0.00    +0.000 A 
ATOM     33  C   UNL     1       0.994  -0.908  -2.111  0.00  0.00    +0.006 A 
ENDBRANCH  21  28
ENDBRANCH  20  21
ENDBRANCH  19  20
ENDBRANCH  18  19
ENDBRANCH   1  18
TORSDOF 10
