REMARK  Name = ZINC02623205
REMARK  9 active torsions:
REMARK  status: ('A' for Active; 'I' for Inactive)
REMARK    1  A    between atoms: C_1  and  C_2
REMARK    2  A    between atoms: C_2  and  C_4
REMARK    3  A    between atoms: C_2  and  S_16
REMARK    4  A    between atoms: C_4  and  C_6
REMARK    5  A    between atoms: C_9  and  C_12
REMARK    6  A    between atoms: C_12  and  C_13
REMARK    7  A    between atoms: C_12  and  C_14
REMARK    8  A    between atoms: C_12  and  C_15
REMARK    9  A    between atoms: S_16  and  C_17
REMARK                            x       y       z     vdW  Elec       q    Type
REMARK                         _______ _______ _______ _____ _____    ______ ____
ROOT
ATOM      1  C   UNL     1       0.002  -0.004   0.002  0.00  0.00    +0.176 C 
ATOM      2  O   UNL     1       1.060  -0.596  -0.011  0.00  0.00    -0.291 OA
ENDROOT
BRANCH   1   3
ATOM      3  C   UNL     1      -0.018   1.467   0.010  0.00  0.00    +0.019 A 
ATOM      4  C   UNL     1      -1.236   2.154   0.020  0.00  0.00    +0.012 A 
ATOM      5  C   UNL     1      -1.247   3.533   0.034  0.00  0.00    +0.005 A 
ATOM      6  C   UNL     1      -0.055   4.237   0.026  0.00  0.00    -0.042 A 
ATOM      7  C   UNL     1       1.154   3.565   0.010  0.00  0.00    +0.005 A 
ATOM      8  C   UNL     1       1.181   2.187   0.003  0.00  0.00    +0.012 A 
BRANCH   6   9
ATOM      9  C   UNL     1      -0.076   5.744   0.035  0.00  0.00    -0.013 C 
ATOM     10  C   UNL     1       0.626   6.271  -1.218  0.00  0.00    +0.015 C 
ATOM     11  C   UNL     1      -1.525   6.234   0.052  0.00  0.00    +0.015 C 
ATOM     12  C   UNL     1       0.651   6.257   1.280  0.00  0.00    +0.015 C 
ENDBRANCH   6   9
ENDBRANCH   1   3
BRANCH   1  14
ATOM     13  C   UNL     1      -1.809  -0.920  -1.423  0.00  0.00    +0.028 C 
ATOM     14  C   UNL     1      -1.293  -0.775   0.010  0.00  0.00    +0.121 C 
BRANCH  14  15
ATOM     15  S   UNL     1      -1.012  -2.420   0.722  0.00  0.00    -0.086 S 
BRANCH  15  16
ATOM     16  C   UNL     1      -2.622  -3.132   0.798  0.00  0.00    +0.161 A 
ATOM     17  N   UNL     1      -3.782  -2.616   0.438  0.00  0.00    -0.133 NA
ATOM     18  N   UNL     1      -4.933  -3.356   0.581  0.00  0.00    -0.125 NA
ATOM     19  C   UNL     1      -4.874  -4.572   1.087  0.00  0.00    +0.180 A 
ATOM     20  S   UNL     1      -3.122  -4.741   1.391  0.00  0.00    -0.025 S 
ATOM     21  N   UNL     1      -5.900  -5.479   1.322  0.00  0.00    -0.336 N 
ATOM     22  H   UNL     1      -5.701  -6.348   1.705  0.00  0.00    +0.144 HD
ATOM     23  H   UNL     1      -6.815  -5.244   1.104  0.00  0.00    +0.144 HD
ENDBRANCH  15  16
ENDBRANCH  14  15
ENDBRANCH   1  14
TORSDOF 5
