REMARK  Name = ZINC39658353
REMARK  11 active torsions:
REMARK  status: ('A' for Active; 'I' for Inactive)
REMARK    1  A    between atoms: C_1  and  C_2
REMARK    2  A    between atoms: C_5  and  S_8
REMARK    3  A    between atoms: S_8  and  N_11
REMARK    4  A    between atoms: C_15  and  C_17
REMARK    5  A    between atoms: C_17  and  O_19
REMARK    6  A    between atoms: O_19  and  C_20
REMARK    7  A    between atoms: C_20  and  C_21
REMARK    8  A    between atoms: N_23  and  C_24
REMARK    9  A    between atoms: C_25  and  C_32
REMARK   10  A    between atoms: C_27  and  C_31
REMARK   11  A    between atoms: C_29  and  C_30
REMARK                            x       y       z     vdW  Elec       q    Type
REMARK                         _______ _______ _______ _____ _____    ______ ____
ROOT
ATOM      1  C   UNL     1       0.893  -6.603   2.255  0.00  0.00    +0.327 C 
ATOM      2  O   UNL     1       0.663  -7.487   1.464  0.00  0.00    -0.249 OA
ENDROOT
BRANCH   1   7
ATOM      3  N   UNL     1       0.014  -5.108   0.543  0.00  0.00    -0.163 NA
ATOM      4  C   UNL     1       0.904  -4.297  -0.307  0.00  0.00    +0.110 C 
ATOM      5  C   UNL     1       1.677  -3.388   0.681  0.00  0.00    +0.019 C 
ATOM      6  C   UNL     1       1.886  -4.343   1.885  0.00  0.00    +0.033 C 
ATOM      7  C   UNL     1       0.584  -5.172   1.897  0.00  0.00    +0.188 C 
BRANCH   3   8
ATOM      8  S   UNL     1      -1.399  -5.822   0.056  0.00  0.00    +0.062 S 
ATOM      9  O   UNL     1      -1.635  -6.904   0.946  0.00  0.00    -0.153 OA
ATOM     10  O   UNL     1      -1.300  -6.000  -1.350  0.00  0.00    -0.153 OA
BRANCH   8  15
ATOM     11  C   UNL     1      -5.830  -1.832   0.981  0.00  0.00    +0.044 C 
ATOM     12  C   UNL     1      -4.723  -2.828   0.750  0.00  0.00    -0.050 A 
ATOM     13  C   UNL     1      -4.054  -2.850  -0.459  0.00  0.00    +0.005 A 
ATOM     14  C   UNL     1      -3.038  -3.764  -0.671  0.00  0.00    +0.029 A 
ATOM     15  C   UNL     1      -2.692  -4.656   0.327  0.00  0.00    +0.106 A 
ATOM     16  C   UNL     1      -3.361  -4.633   1.536  0.00  0.00    +0.029 A 
ATOM     17  C   UNL     1      -4.373  -3.717   1.750  0.00  0.00    +0.005 A 
ENDBRANCH   8  15
ENDBRANCH   3   8
ENDBRANCH   1   7
BRANCH   1  18
ATOM     18  O   UNL     1       1.424  -6.895   3.453  0.00  0.00    -0.454 OA
BRANCH  18  19
ATOM     19  C   UNL     1       1.692  -8.272   3.726  0.00  0.00    +0.328 C 
BRANCH  19  20
ATOM     20  C   UNL     1       2.281  -8.405   5.106  0.00  0.00    +0.255 C 
ATOM     21  O   UNL     1       2.455  -7.418   5.789  0.00  0.00    -0.272 OA
ATOM     22  N   UNL     1       2.615  -9.621   5.582  0.00  0.00    -0.282 N 
ATOM     23  H   UNL     1       2.409 -10.417   5.066  0.00  0.00    +0.155 HD
BRANCH  22  24
ATOM     24  C   UNL     1       3.259  -9.736   6.819  0.00  0.00    +0.039 A 
ATOM     25  C   UNL     1       2.729 -10.558   7.805  0.00  0.00    -0.029 A 
ATOM     26  C   UNL     1       3.367 -10.669   9.025  0.00  0.00    +0.008 A 
ATOM     27  C   UNL     1       4.531  -9.963   9.265  0.00  0.00    -0.050 A 
ATOM     28  C   UNL     1       5.061  -9.144   8.285  0.00  0.00    +0.008 A 
ATOM     29  C   UNL     1       4.432  -9.033   7.061  0.00  0.00    -0.029 A 
ATOM     30  C   UNL     1       5.013  -8.146   5.991  0.00  0.00    +0.045 C 
ATOM     31  C   UNL     1       5.224 -10.087  10.597  0.00  0.00    +0.044 C 
ATOM     32  C   UNL     1       1.459 -11.327   7.545  0.00  0.00    +0.045 C 
ENDBRANCH  22  24
ENDBRANCH  19  20
ENDBRANCH  18  19
ENDBRANCH   1  18
TORSDOF 7
