REMARK  Name = ZINC53110870
REMARK  5 active torsions:
REMARK  status: ('A' for Active; 'I' for Inactive)
REMARK    1  A    between atoms: C_1  and  C_2
REMARK    2  A    between atoms: N_12  and  C_13
REMARK    3  A    between atoms: C_13  and  C_21
REMARK    4  A    between atoms: C_17  and  C_20
REMARK    5  A    between atoms: C_21  and  O_22
REMARK                            x       y       z     vdW  Elec       q    Type
REMARK                         _______ _______ _______ _____ _____    ______ ____
ROOT
ATOM      1  C   UNL     1      -0.242   0.828   0.306  0.00  0.00    +0.069 C 
ATOM      2  C   UNL     1       0.986   1.188  -0.490  0.00  0.00    +0.078 A 
ATOM      3  C   UNL     1       1.121   0.723  -1.810  0.00  0.00    +0.141 A 
ATOM      4  N   UNL     1       2.191   1.028  -2.521  0.00  0.00    -0.229 NA
ATOM      5  C   UNL     1       3.152   1.785  -1.979  0.00  0.00    +0.091 A 
ATOM      6  C   UNL     1       4.303   2.127  -2.711  0.00  0.00    +0.030 A 
ATOM      7  C   UNL     1       5.264   2.899  -2.134  0.00  0.00    +0.002 A 
ATOM      8  C   UNL     1       5.127   3.357  -0.826  0.00  0.00    +0.002 A 
ATOM      9  C   UNL     1       4.026   3.045  -0.087  0.00  0.00    +0.030 A 
ATOM     10  C   UNL     1       3.012   2.251  -0.649  0.00  0.00    +0.090 A 
ATOM     11  N   UNL     1       1.917   1.934   0.054  0.00  0.00    -0.247 NA
ATOM     12  N   UNL     1       0.124  -0.061  -2.370  0.00  0.00    -0.320 N 
ATOM     13  H   UNL     1      -0.637  -0.333  -1.833  0.00  0.00    +0.148 HD
ENDROOT
BRANCH  12  14
ATOM     14  C   UNL     1       0.219  -0.479  -3.771  0.00  0.00    +0.057 C 
ATOM     15  C   UNL     1      -0.974  -1.371  -4.119  0.00  0.00    +0.028 C 
ATOM     16  C   UNL     1      -2.273  -0.592  -3.906  0.00  0.00    +0.002 C 
ATOM     17  C   UNL     1      -2.280   0.643  -4.809  0.00  0.00    +0.003 C 
ATOM     18  C   UNL     1      -1.087   1.536  -4.460  0.00  0.00    -0.012 C 
ATOM     19  C   UNL     1       0.212   0.757  -4.673  0.00  0.00    +0.031 C 
ATOM     20  C   UNL     1      -1.187   1.972  -2.997  0.00  0.00    +0.007 C 
BRANCH  14  21
ATOM     21  C   UNL     1       1.519  -1.258  -3.983  0.00  0.00    +0.181 C 
BRANCH  21  22
ATOM     22  O   UNL     1       1.590  -2.331  -3.041  0.00  0.00    -0.393 OA
ATOM     23  H   UNL     1       2.390  -2.869  -3.118  0.00  0.00    +0.209 HD
ENDBRANCH  21  22
ENDBRANCH  14  21
ENDBRANCH  12  14
TORSDOF 3
