REMARK  Name = ZINC00670385
REMARK  6 active torsions:
REMARK  status: ('A' for Active; 'I' for Inactive)
REMARK    1  A    between atoms: C_1  and  C_2
REMARK    2  A    between atoms: C_2  and  C_3
REMARK    3  A    between atoms: C_3  and  C_4
REMARK    4  A    between atoms: C_11  and  N_16
REMARK    5  A    between atoms: C_12  and  C_13
REMARK    6  A    between atoms: C_17  and  C_19
REMARK                            x       y       z     vdW  Elec       q    Type
REMARK                         _______ _______ _______ _____ _____    ______ ____
ROOT
ATOM      1  C   UNL     1      -8.462   7.668   1.329  0.00  0.00    -0.006 C 
ATOM      2  C   UNL     1      -8.592   6.779   2.569  0.00  0.00    +0.008 C 
ATOM      3  C   UNL     1      -7.209   6.521   3.172  0.00  0.00    +0.037 C 
ATOM      4  C   UNL     1      -6.286   6.001   2.076  0.00  0.00    -0.023 A 
ATOM      5  C   UNL     1      -6.589   6.174   0.771  0.00  0.00    -0.004 A 
ATOM      6  S   UNL     1      -5.248   5.423  -0.107  0.00  0.00    -0.077 S 
ATOM      7  C   UNL     1      -4.302   4.879   1.238  0.00  0.00    +0.085 A 
ATOM      8  C   UNL     1      -5.042   5.297   2.335  0.00  0.00    +0.068 A 
ATOM      9  C   UNL     1      -7.796   6.858   0.207  0.00  0.00    +0.046 C 
ENDROOT
BRANCH   8  10
ATOM     10  C   UNL     1      -4.586   5.037   3.704  0.00  0.00    +0.244 C 
ATOM     11  O   UNL     1      -3.877   5.847   4.273  0.00  0.00    -0.270 OA
ATOM     12  N   UNL     1      -4.950   3.902   4.332  0.00  0.00    -0.325 N 
ATOM     13  H   UNL     1      -5.515   3.257   3.878  0.00  0.00    +0.145 HD
ATOM     14  H   UNL     1      -4.649   3.730   5.237  0.00  0.00    +0.145 HD
ENDBRANCH   8  10
BRANCH   7  15
ATOM     15  N   UNL     1      -3.096   4.197   1.222  0.00  0.00    -0.275 N 
ATOM     16  C   UNL     1      -2.521   3.872   0.047  0.00  0.00    +0.251 C 
ATOM     17  O   UNL     1      -3.060   4.177  -0.999  0.00  0.00    -0.270 OA
ATOM     18  H   UNL     1      -2.666   3.954   2.057  0.00  0.00    +0.156 HD
BRANCH  16  19
ATOM     19  C   UNL     1      -1.235   3.146   0.031  0.00  0.00    +0.074 A 
ATOM     20  C   UNL     1      -1.219   1.748   0.017  0.00  0.00    +0.054 A 
ATOM     21  C   UNL     1      -0.013   1.076   0.008  0.00  0.00    +0.021 A 
ATOM     22  C   UNL     1       1.177   1.782   0.000  0.00  0.00    +0.003 A 
ATOM     23  C   UNL     1       1.169   3.165   0.008  0.00  0.00    +0.021 A 
ATOM     24  C   UNL     1      -0.029   3.852   0.023  0.00  0.00    +0.054 A 
ATOM     25 CL   UNL     1      -0.037   5.588   0.032  0.00  0.00    -0.083 Cl
ATOM     26 CL   UNL     1      -2.710   0.860   0.020  0.00  0.00    -0.083 Cl
ENDBRANCH  16  19
ENDBRANCH   7  15
BRANCH   1  27
ATOM     27  C   UNL     1      -9.851   8.124   0.878  0.00  0.00    +0.003 C 
BRANCH  27  29
ATOM     28  C   UNL     1     -11.100   9.566  -0.735  0.00  0.00    +0.004 C 
ATOM     29  C   UNL     1      -9.711   9.110  -0.283  0.00  0.00    -0.003 C 
ENDBRANCH  27  29
ENDBRANCH   1  27
TORSDOF 5
