REMARK  Name = ZINC35724598
REMARK  10 active torsions:
REMARK  status: ('A' for Active; 'I' for Inactive)
REMARK    1  A    between atoms: C_1  and  C_2
REMARK    2  A    between atoms: C_2  and  C_3
REMARK    3  A    between atoms: C_6  and  N_9
REMARK    4  A    between atoms: N_12  and  C_13
REMARK    5  A    between atoms: C_13  and  C_15
REMARK    6  A    between atoms: C_13  and  C_20
REMARK    7  A    between atoms: C_15  and  C_17
REMARK    8  A    between atoms: C_15  and  C_18
REMARK    9  A    between atoms: C_18  and  C_19
REMARK   10  A    between atoms: C_26  and  C_28
REMARK                            x       y       z     vdW  Elec       q    Type
REMARK                         _______ _______ _______ _____ _____    ______ ____
ROOT
ATOM      1  C   UNL     1       6.736  -3.102  -5.541  0.00  0.00    +0.163 C 
ENDROOT
BRANCH   1   2
ATOM      2  C   UNL     1       7.482  -2.950  -6.842  0.00  0.00    +0.239 C 
ATOM      3  O   UNL     1       6.985  -2.327  -7.756  0.00  0.00    -0.273 OA
ATOM      4  N   UNL     1       8.701  -3.506  -6.989  0.00  0.00    -0.262 N 
ATOM      5  C   UNL     1       9.431  -3.283  -8.150  0.00  0.00    +0.188 A 
ATOM      6  N   UNL     1       9.128  -2.561  -9.222  0.00  0.00    -0.125 NA
ATOM      7  N   UNL     1       9.915  -2.462 -10.203  0.00  0.00    -0.140 NA
ATOM      8  C   UNL     1      11.093  -3.073 -10.221  0.00  0.00    +0.134 A 
ATOM      9  S   UNL     1      11.052  -3.879  -8.622  0.00  0.00    -0.030 S 
ATOM     10  H   UNL     1       9.068  -4.063  -6.285  0.00  0.00    +0.157 HD
BRANCH   8  11
ATOM     11  C   UNL     1      12.143  -3.081 -11.261  0.00  0.00    +0.009 A 
ATOM     12  C   UNL     1      13.318  -3.809 -11.066  0.00  0.00    +0.012 A 
ATOM     13  C   UNL     1      14.294  -3.813 -12.041  0.00  0.00    +0.020 A 
ATOM     14  C   UNL     1      14.110  -3.095 -13.211  0.00  0.00    +0.041 A 
ATOM     15  C   UNL     1      12.947  -2.370 -13.410  0.00  0.00    +0.020 A 
ATOM     16  C   UNL     1      11.961  -2.364 -12.445  0.00  0.00    +0.012 A 
ATOM     17 CL   UNL     1      15.344  -3.104 -14.432  0.00  0.00    -0.084 Cl
ENDBRANCH   8  11
ENDBRANCH   1   2
BRANCH   1  21
ATOM     18  N   UNL     1       3.845  -1.067  -4.538  0.00  0.00    -0.269 N 
ATOM     19  C   UNL     1       5.033  -1.702  -4.505  0.00  0.00    +0.304 C 
ATOM     20  O   UNL     1       5.695  -1.699  -3.485  0.00  0.00    -0.252 OA
ATOM     21  N   UNL     1       5.487  -2.339  -5.602  0.00  0.00    -0.288 N 
ATOM     22  H   UNL     1       3.282  -1.132  -5.325  0.00  0.00    +0.156 HD
ATOM     23  H   UNL     1       4.987  -2.293  -6.432  0.00  0.00    +0.151 HD
BRANCH  18  27
ATOM     24  C   UNL     1       2.589   1.177  -1.260  0.00  0.00    -0.048 A 
ATOM     25  C   UNL     1       3.931   1.131  -1.591  0.00  0.00    +0.005 A 
ATOM     26  C   UNL     1       4.350   0.388  -2.677  0.00  0.00    +0.023 A 
ATOM     27  C   UNL     1       3.423  -0.313  -3.437  0.00  0.00    +0.035 A 
ATOM     28  C   UNL     1       2.076  -0.265  -3.102  0.00  0.00    +0.023 A 
ATOM     29  C   UNL     1       1.664   0.476  -2.011  0.00  0.00    +0.005 A 
BRANCH  24  31
ATOM     30  C   UNL     1       2.158   1.115   1.181  0.00  0.00    +0.009 C 
ATOM     31  C   UNL     1       2.135   1.989  -0.074  0.00  0.00    +0.032 C 
ENDBRANCH  24  31
ENDBRANCH  18  27
ENDBRANCH   1  21
BRANCH   1  32
ATOM     32  C   UNL     1       6.420  -4.580  -5.305  0.00  0.00    +0.015 C 
ATOM     33  C   UNL     1       5.818  -4.756  -3.909  0.00  0.00    +0.010 C 
BRANCH  32  34
ATOM     34  C   UNL     1       5.418  -5.062  -6.356  0.00  0.00    +0.002 C 
ATOM     35  C   UNL     1       6.091  -5.082  -7.730  0.00  0.00    +0.004 C 
ENDBRANCH  32  34
ENDBRANCH   1  32
TORSDOF 7
