REMARK  Name = ZINC42844044
REMARK  7 active torsions:
REMARK  status: ('A' for Active; 'I' for Inactive)
REMARK    1  A    between atoms: C_1  and  C_2
REMARK    2  A    between atoms: C_2  and  C_3
REMARK    3  A    between atoms: C_3  and  C_5
REMARK    4  A    between atoms: C_3  and  N_6
REMARK    5  A    between atoms: C_16  and  C_22
REMARK    6  A    between atoms: C_22  and  O_24
REMARK    7  A    between atoms: O_24  and  C_25
REMARK                            x       y       z     vdW  Elec       q    Type
REMARK                         _______ _______ _______ _____ _____    ______ ____
ROOT
ATOM      1  N   UNL     1       1.888  -0.185  -3.733  0.00  0.00    -0.297 N 
ATOM      2  C   UNL     1       0.561   0.028  -3.631  0.00  0.00    +0.303 C 
ATOM      3  O   UNL     1      -0.010  -0.186  -2.579  0.00  0.00    -0.253 OA
ATOM      4  N   UNL     1      -0.133   0.478  -4.695  0.00  0.00    -0.281 N 
ATOM      5  C   UNL     1      -1.557   0.825  -4.577  0.00  0.00    +0.116 C 
ATOM      6  C   UNL     1      -1.730   2.325  -4.837  0.00  0.00    +0.072 C 
ATOM      7  C   UNL     1      -0.933   2.708  -6.061  0.00  0.00    +0.023 A 
ATOM      8  C   UNL     1       0.066   1.961  -6.578  0.00  0.00    -0.002 A 
ATOM      9  C   UNL     1       0.575   2.668  -7.734  0.00  0.00    +0.005 A 
ATOM     10  C   UNL     1       1.591   2.383  -8.646  0.00  0.00    +0.025 A 
ATOM     11  C   UNL     1       1.803   3.323  -9.660  0.00  0.00    +0.060 A 
ATOM     12  C   UNL     1       1.034   4.489  -9.751  0.00  0.00    +0.017 A 
ATOM     13  C   UNL     1       0.035   4.777  -8.860  0.00  0.00    +0.027 A 
ATOM     14  C   UNL     1      -0.199   3.855  -7.838  0.00  0.00    +0.047 A 
ATOM     15  N   UNL     1      -1.096   3.843  -6.814  0.00  0.00    -0.358 N 
ATOM     16  H   UNL     1      -1.754   4.535  -6.642  0.00  0.00    +0.166 HD
ATOM     17  C   UNL     1       0.516   0.642  -6.008  0.00  0.00    +0.146 C 
ATOM     18  H   UNL     1       2.331  -0.086  -4.590  0.00  0.00    +0.151 HD
ENDROOT
BRANCH   1  19
ATOM     19  C   UNL     1       2.662  -0.566  -2.549  0.00  0.00    +0.071 C 
ATOM     20  C   UNL     1       3.071   0.692  -1.780  0.00  0.00    +0.028 C 
BRANCH  19  22
ATOM     21  C   UNL     1       3.507  -2.648  -3.641  0.00  0.00    +0.005 C 
ATOM     22  C   UNL     1       3.915  -1.329  -2.982  0.00  0.00    +0.019 C 
ENDBRANCH  19  22
ENDBRANCH   1  19
BRANCH  11  23
ATOM     23  C   UNL     1       2.863   3.080 -10.657  0.00  0.00    +0.339 C 
ATOM     24  O   UNL     1       3.539   2.073 -10.591  0.00  0.00    -0.245 OA
BRANCH  23  25
ATOM     25  O   UNL     1       3.081   3.975 -11.640  0.00  0.00    -0.464 OA
ATOM     26  C   UNL     1       4.123   3.675 -12.571  0.00  0.00    +0.280 C 
ENDBRANCH  23  25
ENDBRANCH  11  23
TORSDOF 4
