REMARK  Name = ZINC20516754
REMARK  6 active torsions:
REMARK  status: ('A' for Active; 'I' for Inactive)
REMARK    1  A    between atoms: C_1  and  C_2
REMARK    2  A    between atoms: C_5  and  N_8
REMARK    3  A    between atoms: C_11  and  C_13
REMARK    4  A    between atoms: C_14  and  C_19
REMARK    5  A    between atoms: C_16  and  C_18
REMARK    6  A    between atoms: N_21  and  C_22
REMARK                            x       y       z     vdW  Elec       q    Type
REMARK                         _______ _______ _______ _____ _____    ______ ____
ROOT
ATOM      1  N   UNL     1      -0.077  -0.101   0.055  0.00  0.00    -0.214 N 
ATOM      2  C   UNL     1      -0.879  -0.885   0.848  0.00  0.00    +0.164 A 
ATOM      3  C   UNL     1      -0.455  -2.215   0.648  0.00  0.00    +0.054 A 
ATOM      4  C   UNL     1       0.610  -2.177  -0.278  0.00  0.00    +0.070 A 
ATOM      5  N   UNL     1       0.819  -0.938  -0.622  0.00  0.00    -0.169 NA
ATOM      6  C   UNL     1       1.373  -3.372  -0.789  0.00  0.00    +0.068 C 
ATOM      7  C   UNL     1      -1.110  -3.254   1.345  0.00  0.00    +0.051 A 
ATOM      8  C   UNL     1      -2.151  -2.905   2.203  0.00  0.00    +0.037 A 
ATOM      9  C   UNL     1      -2.502  -1.571   2.338  0.00  0.00    +0.041 A 
ATOM     10  N   UNL     1      -1.877  -0.622   1.678  0.00  0.00    -0.232 NA
ATOM     11  C   UNL     1      -3.630  -1.199   3.267  0.00  0.00    +0.065 C 
ENDROOT
BRANCH   1  16
ATOM     12  C   UNL     1      -0.358   5.547  -0.411  0.00  0.00    +0.044 C 
ATOM     13  C   UNL     1      -0.283   4.047  -0.287  0.00  0.00    -0.050 A 
ATOM     14  C   UNL     1       0.942   3.409  -0.354  0.00  0.00    +0.005 A 
ATOM     15  C   UNL     1       1.014   2.035  -0.240  0.00  0.00    +0.028 A 
ATOM     16  C   UNL     1      -0.146   1.293  -0.060  0.00  0.00    +0.068 A 
ATOM     17  C   UNL     1      -1.376   1.936   0.001  0.00  0.00    +0.028 A 
ATOM     18  C   UNL     1      -1.440   3.311  -0.108  0.00  0.00    +0.005 A 
ENDBRANCH   1  16
BRANCH   7  19
ATOM     19  C   UNL     1      -0.703  -4.665   1.171  0.00  0.00    +0.245 C 
ATOM     20  O   UNL     1       0.117  -4.961   0.325  0.00  0.00    -0.270 OA
ATOM     21  N   UNL     1      -1.242  -5.622   1.952  0.00  0.00    -0.308 N 
ATOM     22  H   UNL     1      -1.984  -5.354   2.718  0.00  0.00    +0.149 HD
BRANCH  21  23
ATOM     23  C   UNL     1      -0.840  -7.021   1.779  0.00  0.00    +0.073 C 
ATOM     24  C   UNL     1      -1.666  -7.641   0.635  0.00  0.00    +0.022 C 
ATOM     25  C   UNL     1      -0.935  -8.852   0.120  0.00  0.00    +0.002 C 
ATOM     26  C   UNL     1      -1.415 -10.156   0.787  0.00  0.00    +0.000 C 
ATOM     27  C   UNL     1      -1.642 -10.002   2.303  0.00  0.00    +0.000 C 
ATOM     28  C   UNL     1      -0.562  -9.193   2.968  0.00  0.00    +0.002 C 
ATOM     29  C   UNL     1      -1.026  -7.723   3.040  0.00  0.00    +0.022 C 
ENDBRANCH  21  23
ENDBRANCH   7  19
TORSDOF 3
