REMARK  Name = ZINC33033983
REMARK  11 active torsions:
REMARK  status: ('A' for Active; 'I' for Inactive)
REMARK    1  A    between atoms: C_1  and  C_2
REMARK    2  A    between atoms: C_2  and  C_3
REMARK    3  A    between atoms: C_3  and  C_5
REMARK    4  A    between atoms: C_3  and  N_6
REMARK    5  A    between atoms: C_7  and  C_9
REMARK    6  A    between atoms: C_12  and  N_27
REMARK    7  A    between atoms: C_13  and  N_15
REMARK    8  A    between atoms: N_15  and  S_16
REMARK    9  A    between atoms: S_16  and  C_19
REMARK   10  A    between atoms: C_22  and  C_26
REMARK   11  A    between atoms: C_24  and  C_25
REMARK                            x       y       z     vdW  Elec       q    Type
REMARK                         _______ _______ _______ _____ _____    ______ ____
ROOT
ATOM      1  C   UNL     1       4.858   4.737  -1.454  0.00  0.00    +0.039 A 
ATOM      2  C   UNL     1       5.032   5.046  -2.805  0.00  0.00    +0.015 A 
ATOM      3  C   UNL     1       4.559   4.191  -3.775  0.00  0.00    +0.026 A 
ATOM      4  C   UNL     1       3.908   3.017  -3.414  0.00  0.00    +0.052 A 
ATOM      5  C   UNL     1       3.730   2.701  -2.064  0.00  0.00    +0.070 A 
ATOM      6  C   UNL     1       4.198   3.560  -1.088  0.00  0.00    +0.039 A 
ENDROOT
BRANCH   4   7
ATOM      7  N   UNL     1       3.431   2.154  -4.399  0.00  0.00    -0.332 N 
ATOM      8  C   UNL     1       3.494   2.784  -5.726  0.00  0.00    +0.086 C 
ATOM      9  C   UNL     1       2.890   1.837  -6.765  0.00  0.00    -0.063 C 
ATOM     10  N   UNL     1       3.627   0.565  -6.753  0.00  0.00    +0.381 N 
ATOM     11  C   UNL     1       3.564  -0.064  -5.427  0.00  0.00    -0.063 C 
ATOM     12  C   UNL     1       4.168   0.883  -4.387  0.00  0.00    +0.086 C 
ATOM     13  H   UNL     1       3.187  -0.121  -7.492  0.00  0.00    -0.086 HD
ATOM     14  H   UNL     1       4.681   0.750  -7.008  0.00  0.00    -0.086 HD
ENDBRANCH   4   7
BRANCH   1  16
ATOM     15  N   UNL     1       5.997   6.790  -0.768  0.00  0.00    -0.309 N 
ATOM     16  C   UNL     1       5.365   5.653  -0.414  0.00  0.00    +0.244 C 
ATOM     17  O   UNL     1       5.213   5.383   0.761  0.00  0.00    -0.270 OA
ATOM     18  H   UNL     1       6.134   7.034  -1.832  0.00  0.00    +0.149 HD
BRANCH  15  19
ATOM     19  C   UNL     1       6.500   7.700   0.264  0.00  0.00    +0.070 C 
ATOM     20  C   UNL     1       7.888   7.242   0.714  0.00  0.00    +0.028 C 
BRANCH  19  22
ATOM     21  C   UNL     1       5.185   9.622  -0.641  0.00  0.00    +0.005 C 
ATOM     22  C   UNL     1       6.590   9.117  -0.306  0.00  0.00    +0.018 C 
ENDBRANCH  19  22
ENDBRANCH  15  19
ENDBRANCH   1  16
BRANCH   5  23
ATOM     23  N   UNL     1       3.074   1.519  -1.702  0.00  0.00    -0.214 N 
ATOM     24  H   UNL     1       2.281   1.110  -2.346  0.00  0.00    +0.174 HD
BRANCH  23  25
ATOM     25  S   UNL     1       3.490   0.735  -0.304  0.00  0.00    +0.073 S 
ATOM     26  O   UNL     1       4.910   0.682  -0.276  0.00  0.00    -0.150 OA
ATOM     27  O   UNL     1       2.683  -0.432  -0.236  0.00  0.00    -0.150 OA
BRANCH  25  28
ATOM     28  C   UNL     1       2.998   1.766   1.038  0.00  0.00    +0.111 A 
ATOM     29  C   UNL     1       3.951   2.299   1.886  0.00  0.00    +0.029 A 
ATOM     30  C   UNL     1       3.565   3.103   2.942  0.00  0.00    +0.005 A 
ATOM     31  C   UNL     1       2.226   3.384   3.143  0.00  0.00    -0.050 A 
ATOM     32  C   UNL     1       1.274   2.853   2.294  0.00  0.00    +0.008 A 
ATOM     33  C   UNL     1       1.660   2.044   1.241  0.00  0.00    -0.024 A 
ATOM     34  C   UNL     1       0.621   1.464   0.316  0.00  0.00    +0.046 C 
ATOM     35  C   UNL     1       1.805   4.265   4.291  0.00  0.00    +0.044 C 
ENDBRANCH  25  28
ENDBRANCH  23  25
ENDBRANCH   5  23
TORSDOF 7
