REMARK  Name = ZINC52738537
REMARK  3 active torsions:
REMARK  status: ('A' for Active; 'I' for Inactive)
REMARK    1  A    between atoms: C_12  and  C_14
REMARK    2  A    between atoms: C_14  and  C_15
REMARK    3  A    between atoms: C_15  and  N_16
REMARK                            x       y       z     vdW  Elec       q    Type
REMARK                         _______ _______ _______ _____ _____    ______ ____
ROOT
ATOM      1  C   UNL     1       0.530  -2.224   2.236  0.00  0.00    +0.116 C 
ENDROOT
BRANCH   1  13
ATOM      2  C   UNL     1      -0.017   1.379   0.010  0.00  0.00    +0.002 A 
ATOM      3  C   UNL     1       1.163   2.100   0.002  0.00  0.00    +0.001 A 
ATOM      4  C   UNL     1       2.380   1.439   0.008  0.00  0.00    +0.016 A 
ATOM      5  C   UNL     1       2.396   0.057   0.007  0.00  0.00    +0.029 A 
ATOM      6  C   UNL     1       1.218  -0.676  -0.020  0.00  0.00    +0.050 A 
ATOM      7  C   UNL     1       0.002  -0.004   0.002  0.00  0.00    +0.024 A 
ATOM      8  N   UNL     1       1.237  -2.074  -0.130  0.00  0.00    -0.270 N 
ATOM      9  C   UNL     1       1.617  -2.670  -1.419  0.00  0.00    +0.114 C 
ATOM     10  C   UNL     1       3.099  -2.920  -1.497  0.00  0.00    +0.030 C 
ATOM     11  C   UNL     1       3.970  -1.673  -1.544  0.00  0.00    +0.076 C 
ATOM     12  S   UNL     1       3.935  -0.829   0.064  0.00  0.00    -0.123 S 
ATOM     13  C   UNL     1       0.915  -2.853   0.922  0.00  0.00    +0.221 C 
ATOM     14  O   UNL     1       0.936  -4.061   0.811  0.00  0.00    -0.275 OA
ENDBRANCH   1  13
BRANCH   1  15
ATOM     15  C   UNL     1       0.215  -3.322   3.254  0.00  0.00    +0.127 C 
BRANCH  15  16
ATOM     16  N   UNL     1      -0.161  -2.710   4.532  0.00  0.00    -0.224 N 
ATOM     17  C   UNL     1       0.715  -2.399   5.510  0.00  0.00    +0.247 C 
ATOM     18  O   UNL     1       1.916  -2.566   5.500  0.00  0.00    -0.273 OA
ATOM     19  C   UNL     1      -0.116  -1.798   6.620  0.00  0.00    +0.113 C 
ATOM     20  C   UNL     1       0.312  -0.359   6.885  0.00  0.00    +0.035 C 
ATOM     21  C   UNL     1      -0.562   0.240   7.990  0.00  0.00    +0.003 C 
ATOM     22  C   UNL     1      -0.416  -0.596   9.263  0.00  0.00    +0.000 C 
ATOM     23  C   UNL     1      -0.871  -2.030   8.988  0.00  0.00    +0.003 C 
ATOM     24  C   UNL     1       0.002  -2.638   7.886  0.00  0.00    +0.035 C 
ATOM     25  N   UNL     1      -1.489  -1.840   6.100  0.00  0.00    -0.285 N 
ATOM     26  C   UNL     1      -1.414  -2.385   4.870  0.00  0.00    +0.309 C 
ATOM     27  O   UNL     1      -2.377  -2.564   4.151  0.00  0.00    -0.252 OA
ATOM     28  H   UNL     1      -2.290  -1.532   6.551  0.00  0.00    +0.151 HD
ENDBRANCH  15  16
ENDBRANCH   1  15
TORSDOF 3
