REMARK  Name = ZINC12528886
REMARK  14 active torsions:
REMARK  status: ('A' for Active; 'I' for Inactive)
REMARK    1  A    between atoms: C_1  and  C_2
REMARK    2  A    between atoms: C_2  and  N_3
REMARK    3  A    between atoms: N_3  and  C_4
REMARK    4  A    between atoms: C_7  and  C_13
REMARK    5  A    between atoms: C_9  and  N_10
REMARK    6  A    between atoms: N_15  and  N_16
REMARK    7  A    between atoms: C_17  and  C_18
REMARK    8  A    between atoms: C_21  and  O_26
REMARK    9  A    between atoms: C_22  and  O_24
REMARK   10  A    between atoms: O_24  and  C_25
REMARK   11  A    between atoms: O_26  and  C_27
REMARK   12  A    between atoms: C_27  and  C_28
REMARK   13  A    between atoms: C_32  and  C_39
REMARK   14  A    between atoms: C_35  and  C_38
REMARK                            x       y       z     vdW  Elec       q    Type
REMARK                         _______ _______ _______ _____ _____    ______ ____
ROOT
ATOM      1  C   UNL     1      -0.809 -10.581  -0.462  0.00  0.00    -0.002 A 
ATOM      2  C   UNL     1      -2.118 -11.066  -0.394  0.00  0.00    +0.013 A 
ATOM      3  C   UNL     1      -2.354 -12.424  -0.456  0.00  0.00    +0.050 A 
ATOM      4  C   UNL     1      -1.294 -13.311  -0.575  0.00  0.00    +0.163 A 
ATOM      5  C   UNL     1       0.014 -12.835  -0.638  0.00  0.00    +0.162 A 
ATOM      6  C   UNL     1       0.258 -11.475  -0.582  0.00  0.00    +0.059 A 
ENDROOT
BRANCH   1   8
ATOM      7  N   UNL     1      -1.548  -8.302  -0.289  0.00  0.00    -0.187 NA
ATOM      8  C   UNL     1      -0.555  -9.131  -0.401  0.00  0.00    +0.138 C 
BRANCH   7  11
ATOM      9  C   UNL     1      -2.336  -6.062  -0.115  0.00  0.00    +0.263 C 
ATOM     10  O   UNL     1      -3.476  -6.483  -0.060  0.00  0.00    -0.268 OA
ATOM     11  N   UNL     1      -1.306  -6.923  -0.231  0.00  0.00    -0.203 N 
ATOM     12  H   UNL     1      -0.396  -6.588  -0.274  0.00  0.00    +0.178 HD
BRANCH   9  16
ATOM     13  C   UNL     1      -1.603  -1.884   0.060  0.00  0.00    +0.058 A 
ATOM     14  C   UNL     1      -0.537  -2.772  -0.060  0.00  0.00    +0.026 A 
ATOM     15  C   UNL     1      -0.771  -4.126  -0.116  0.00  0.00    +0.015 A 
ATOM     16  C   UNL     1      -2.082  -4.611  -0.054  0.00  0.00    +0.041 A 
ATOM     17  C   UNL     1      -3.150  -3.717   0.066  0.00  0.00    +0.047 A 
ATOM     18  C   UNL     1      -2.908  -2.363   0.128  0.00  0.00    +0.148 A 
BRANCH  18  19
ATOM     19  N   UNL     1      -4.038  -1.416   0.262  0.00  0.00    +0.058 N 
ATOM     20  O   UNL     1      -4.996  -1.705   0.957  0.00  0.00    -0.126 OA
ATOM     21  O   UNL     1      -4.010  -0.348  -0.323  0.00  0.00    -0.126 OA
ENDBRANCH  18  19
BRANCH  13  22
ATOM     22  N   UNL     1      -1.363  -0.515   0.118  0.00  0.00    -0.342 N 
ATOM     23  H   UNL     1      -2.095   0.099   0.287  0.00  0.00    +0.146 HD
BRANCH  22  25
ATOM     24  C   UNL     1      -0.017   1.525   0.036  0.00  0.00    +0.024 C 
ATOM     25  C   UNL     1      -0.005  -0.001  -0.076  0.00  0.00    +0.098 C 
ENDBRANCH  22  25
ENDBRANCH  13  22
ENDBRANCH   9  16
ENDBRANCH   7  11
ENDBRANCH   1   8
BRANCH   5  26
ATOM     26  O   UNL     1       1.050 -13.707  -0.756  0.00  0.00    -0.491 OA
ATOM     27  C   UNL     1       2.364 -13.150  -0.816  0.00  0.00    +0.277 C 
ENDBRANCH   5  26
BRANCH   4  28
ATOM     28  O   UNL     1      -1.532 -14.648  -0.630  0.00  0.00    -0.479 OA
BRANCH  28  29
ATOM     29  C   UNL     1      -2.897 -15.067  -0.560  0.00  0.00    +0.324 C 
BRANCH  29  30
ATOM     30  C   UNL     1      -2.964 -16.571  -0.635  0.00  0.00    +0.253 C 
ATOM     31  O   UNL     1      -1.945 -17.220  -0.739  0.00  0.00    -0.272 OA
ATOM     32  N   UNL     1      -4.158 -17.195  -0.588  0.00  0.00    -0.294 N 
ATOM     33  C   UNL     1      -5.408 -16.430  -0.456  0.00  0.00    +0.139 C 
ATOM     34  C   UNL     1      -6.379 -16.907  -1.548  0.00  0.00    +0.133 C 
ATOM     35  O   UNL     1      -6.496 -18.330  -1.482  0.00  0.00    -0.371 OA
ATOM     36  C   UNL     1      -5.276 -19.030  -1.736  0.00  0.00    +0.133 C 
ATOM     37  C   UNL     1      -4.249 -18.662  -0.660  0.00  0.00    +0.139 C 
ATOM     38  C   UNL     1      -4.737 -18.637  -3.113  0.00  0.00    +0.039 C 
ATOM     39  C   UNL     1      -7.752 -16.270  -1.324  0.00  0.00    +0.039 C 
ENDBRANCH  29  30
ENDBRANCH  28  29
ENDBRANCH   4  28
TORSDOF 10
