REMARK  Name = ZINC12776234
REMARK  5 active torsions:
REMARK  status: ('A' for Active; 'I' for Inactive)
REMARK    1  A    between atoms: C_4  and  C_7
REMARK    2  A    between atoms: C_18  and  C_19
REMARK    3  A    between atoms: C_22  and  C_25
REMARK    4  A    between atoms: C_30  and  C_32
REMARK    5  A    between atoms: C_32  and  N_33
REMARK                            x       y       z     vdW  Elec       q    Type
REMARK                         _______ _______ _______ _____ _____    ______ ____
ROOT
ATOM      1  C   UNL     1       5.161  -0.601   1.065  0.00  0.00    +0.005 A 
ATOM      2  C   UNL     1       5.939  -0.419  -0.169  0.00  0.00    +0.008 A 
ATOM      3  C   UNL     1       6.971   0.524  -0.226  0.00  0.00    +0.030 A 
ATOM      4  C   UNL     1       7.690   0.680  -1.390  0.00  0.00    +0.042 A 
ATOM      5  C   UNL     1       7.394  -0.093  -2.505  0.00  0.00    +0.022 A 
ATOM      6  C   UNL     1       6.381  -1.026  -2.465  0.00  0.00    +0.028 A 
ATOM      7  C   UNL     1       5.641  -1.201  -1.298  0.00  0.00    +0.050 A 
ATOM      8  N   UNL     1       4.626  -2.137  -1.255  0.00  0.00    -0.322 N 
ATOM      9  H   UNL     1       4.438  -2.666  -2.046  0.00  0.00    +0.169 HD
ATOM     10  C   UNL     1       3.892  -2.334  -0.147  0.00  0.00    +0.259 A 
ATOM     11  O   UNL     1       3.007  -3.171  -0.154  0.00  0.00    -0.267 OA
ATOM     12  C   UNL     1       4.146  -1.560   1.071  0.00  0.00    +0.070 A 
ATOM     13 CL   UNL     1       8.970   1.850  -1.464  0.00  0.00    -0.084 Cl
ENDROOT
BRANCH  12  14
ATOM     14  C   UNL     1       3.342  -1.788   2.279  0.00  0.00    +0.075 C 
ATOM     15  N   UNL     1       3.743  -2.414   3.333  0.00  0.00    -0.181 NA
ATOM     16  N   UNL     1       2.788  -2.494   4.344  0.00  0.00    -0.184 N 
ATOM     17  C   UNL     1       1.561  -1.817   3.895  0.00  0.00    +0.172 C 
ATOM     18  C   UNL     1       1.920  -1.317   2.482  0.00  0.00    +0.090 C 
ATOM     19  C   UNL     1       2.959  -3.094   5.539  0.00  0.00    +0.219 C 
ATOM     20  O   UNL     1       2.055  -3.105   6.348  0.00  0.00    -0.276 OA
BRANCH  17  21
ATOM     21  C   UNL     1       0.408  -2.785   3.848  0.00  0.00    +0.128 A 
ATOM     22  C   UNL     1      -0.863  -2.513   4.195  0.00  0.00    +0.046 A 
ATOM     23  C   UNL     1      -1.605  -3.700   3.996  0.00  0.00    +0.041 A 
ATOM     24  C   UNL     1      -0.744  -4.627   3.540  0.00  0.00    +0.195 A 
ATOM     25  O   UNL     1       0.473  -4.065   3.446  0.00  0.00    -0.466 OA
ENDBRANCH  17  21
BRANCH  19  26
ATOM     26  C   UNL     1       4.274  -3.753   5.870  0.00  0.00    +0.021 C 
BRANCH  26  27
ATOM     27  N   UNL     1       4.206  -4.329   7.219  0.00  0.00    +0.385 N 
ATOM     28  C   UNL     1       3.271  -5.483   7.237  0.00  0.00    -0.078 C 
ATOM     29  C   UNL     1       3.725  -6.288   8.481  0.00  0.00    -0.020 C 
ATOM     30  C   UNL     1       5.263  -6.138   8.447  0.00  0.00    -0.020 C 
ATOM     31  C   UNL     1       5.526  -4.874   7.607  0.00  0.00    -0.078 C 
ATOM     32  H   UNL     1       3.910  -3.629   7.883  0.00  0.00    -0.081 HD
ENDBRANCH  26  27
ENDBRANCH  19  26
ENDBRANCH  12  14
BRANCH   1  36
ATOM     33  C   UNL     1       5.991   1.716   4.525  0.00  0.00    +0.000 A 
ATOM     34  C   UNL     1       6.920   0.794   4.074  0.00  0.00    +0.001 A 
ATOM     35  C   UNL     1       6.657   0.038   2.951  0.00  0.00    +0.008 A 
ATOM     36  C   UNL     1       5.450   0.204   2.268  0.00  0.00    -0.016 A 
ATOM     37  C   UNL     1       4.517   1.137   2.729  0.00  0.00    +0.008 A 
ATOM     38  C   UNL     1       4.793   1.886   3.853  0.00  0.00    +0.001 A 
ENDBRANCH   1  36
TORSDOF 5
