REMARK  Name = ZINC40796576
REMARK  8 active torsions:
REMARK  status: ('A' for Active; 'I' for Inactive)
REMARK    1  A    between atoms: C_1  and  C_2
REMARK    2  A    between atoms: C_2  and  O_3
REMARK    3  A    between atoms: O_3  and  C_4
REMARK    4  A    between atoms: C_4  and  C_6
REMARK    5  A    between atoms: C_7  and  C_26
REMARK    6  A    between atoms: C_10  and  N_11
REMARK    7  A    between atoms: C_12  and  C_14
REMARK    8  A    between atoms: C_14  and  C_25
REMARK                            x       y       z     vdW  Elec       q    Type
REMARK                         _______ _______ _______ _____ _____    ______ ____
ROOT
ATOM      1  N   UNL     1      -3.041  -2.526   2.495  0.00  0.00    -0.276 N 
ATOM      2  C   UNL     1      -3.818  -2.870   3.540  0.00  0.00    +0.270 C 
ATOM      3  O   UNL     1      -4.919  -3.342   3.348  0.00  0.00    -0.271 OA
ATOM      4  H   UNL     1      -2.160  -2.149   2.648  0.00  0.00    +0.155 HD
ENDROOT
BRANCH   2   5
ATOM      5  C   UNL     1      -3.320  -2.670   4.948  0.00  0.00    +0.258 C 
ATOM      6  C   UNL     1      -4.496  -2.535   5.883  0.00  0.00    +0.270 C 
ATOM      7  O   UNL     1      -5.556  -3.055   5.606  0.00  0.00    -0.271 OA
ATOM      8  N   UNL     1      -4.364  -1.834   7.028  0.00  0.00    -0.279 N 
ATOM      9  C   UNL     1      -3.172  -1.137   7.269  0.00  0.00    +0.076 A 
ATOM     10  C   UNL     1      -2.911  -0.600   8.520  0.00  0.00    +0.027 A 
ATOM     11  C   UNL     1      -1.725   0.074   8.745  0.00  0.00    +0.002 A 
ATOM     12  C   UNL     1      -0.799   0.213   7.728  0.00  0.00    +0.004 A 
ATOM     13  C   UNL     1      -1.056  -0.317   6.476  0.00  0.00    +0.047 A 
ATOM     14  C   UNL     1      -2.244  -0.988   6.241  0.00  0.00    +0.144 A 
ATOM     15  O   UNL     1      -2.522  -1.485   5.006  0.00  0.00    -0.465 OA
ATOM     16  C   UNL     1      -2.474  -3.874   5.366  0.00  0.00    +0.076 C 
ATOM     17  H   UNL     1      -5.085  -1.813   7.677  0.00  0.00    +0.155 HD
ENDBRANCH   2   5
BRANCH   1  22
ATOM     18  C   UNL     1      -2.841  -2.416   0.016  0.00  0.00    +0.096 A 
ATOM     19  C   UNL     1      -3.552  -2.716  -1.215  0.00  0.00    +0.012 A 
ATOM     20  C   UNL     1      -4.793  -3.250  -1.055  0.00  0.00    +0.057 A 
ATOM     21  S   UNL     1      -4.976  -3.337   0.713  0.00  0.00    -0.080 S 
ATOM     22  C   UNL     1      -3.499  -2.710   1.200  0.00  0.00    +0.087 A 
BRANCH  19  23
ATOM     23  C   UNL     1      -2.969  -2.458  -2.547  0.00  0.00    +0.021 A 
ATOM     24  C   UNL     1      -2.878  -3.297  -3.627  0.00  0.00    +0.016 A 
ATOM     25  C   UNL     1      -2.284  -2.829  -4.780  0.00  0.00    +0.008 A 
ATOM     26  C   UNL     1      -1.810  -1.558  -4.811  0.00  0.00    +0.046 A 
ATOM     27  S   UNL     1      -2.206  -0.970  -3.173  0.00  0.00    -0.097 S 
ENDBRANCH  19  23
BRANCH  18  28
ATOM     28  C   UNL     1      -1.497  -1.838   0.006  0.00  0.00    +0.342 C 
ATOM     29  O   UNL     1      -0.522  -2.566  -0.007  0.00  0.00    -0.245 OA
BRANCH  28  30
ATOM     30  O   UNL     1      -1.339  -0.499   0.012  0.00  0.00    -0.461 OA
BRANCH  30  32
ATOM     31  C   UNL     1      -0.019   1.526   0.010  0.00  0.00    +0.048 C 
ATOM     32  C   UNL     1       0.002  -0.004   0.002  0.00  0.00    +0.229 C 
ENDBRANCH  30  32
ENDBRANCH  28  30
ENDBRANCH  18  28
ENDBRANCH   1  22
TORSDOF 6
