REMARK  Name = ZINC67387209
REMARK  10 active torsions:
REMARK  status: ('A' for Active; 'I' for Inactive)
REMARK    1  A    between atoms: C_1  and  C_2
REMARK    2  A    between atoms: C_2  and  C_4
REMARK    3  A    between atoms: C_2  and  N_13
REMARK    4  A    between atoms: C_4  and  C_5
REMARK    5  A    between atoms: C_5  and  C_6
REMARK    6  A    between atoms: C_9  and  O_12
REMARK    7  A    between atoms: N_16  and  N_17
REMARK    8  A    between atoms: C_18  and  C_20
REMARK    9  A    between atoms: C_20  and  C_21
REMARK   10  A    between atoms: C_21  and  C_22
REMARK                            x       y       z     vdW  Elec       q    Type
REMARK                         _______ _______ _______ _____ _____    ______ ____
ROOT
ATOM      1  N   UNL     1      -1.372  -0.511   0.012  0.00  0.00    -0.296 N 
ATOM      2  C   UNL     1      -2.051  -0.643  -1.145  0.00  0.00    +0.316 C 
ATOM      3  O   UNL     1      -1.522  -0.341  -2.197  0.00  0.00    -0.251 OA
ATOM      4  N   UNL     1      -3.315  -1.109  -1.135  0.00  0.00    -0.218 N 
ATOM      5  H   UNL     1      -1.794  -0.752   0.852  0.00  0.00    +0.151 HD
ATOM      6  H   UNL     1      -3.804  -1.204  -1.968  0.00  0.00    +0.174 HD
ENDROOT
BRANCH   4   7
ATOM      7  N   UNL     1      -3.924  -1.457   0.078  0.00  0.00    -0.233 N 
ATOM      8  C   UNL     1      -5.189  -1.924   0.087  0.00  0.00    +0.229 C 
ATOM      9  O   UNL     1      -5.799  -2.042  -0.954  0.00  0.00    -0.274 OA
ATOM     10  H   UNL     1      -3.436  -1.363   0.910  0.00  0.00    +0.173 HD
BRANCH   8  11
ATOM     11  C   UNL     1      -5.844  -2.298   1.392  0.00  0.00    +0.097 C 
BRANCH  11  12
ATOM     12  C   UNL     1      -7.266  -2.795   1.124  0.00  0.00    +0.013 C 
BRANCH  12  13
ATOM     13  C   UNL     1      -7.931  -3.175   2.448  0.00  0.00    -0.011 C 
ATOM     14  C   UNL     1      -7.196  -4.367   3.065  0.00  0.00    +0.003 C 
ATOM     15  C   UNL     1      -7.861  -4.747   4.389  0.00  0.00    +0.000 C 
ATOM     16  C   UNL     1      -9.322  -5.124   4.136  0.00  0.00    +0.000 C 
ATOM     17  C   UNL     1     -10.057  -3.933   3.520  0.00  0.00    +0.000 C 
ATOM     18  C   UNL     1      -9.392  -3.552   2.196  0.00  0.00    +0.003 C 
ENDBRANCH  12  13
ENDBRANCH  11  12
ENDBRANCH   8  11
ENDBRANCH   4   7
BRANCH   1  20
ATOM     19  C   UNL     1      -0.019   1.526   0.010  0.00  0.00    +0.028 C 
ATOM     20  C   UNL     1       0.002  -0.004   0.002  0.00  0.00    +0.072 C 
BRANCH  20  21
ATOM     21  C   UNL     1       0.742  -0.511   1.242  0.00  0.00    +0.026 C 
BRANCH  21  22
ATOM     22  C   UNL     1       0.872  -2.034   1.171  0.00  0.00    +0.037 C 
BRANCH  22  23
ATOM     23  C   UNL     1       1.601  -2.533   2.392  0.00  0.00    -0.047 A 
ATOM     24  C   UNL     1       2.979  -2.640   2.377  0.00  0.00    +0.007 A 
ATOM     25  C   UNL     1       3.650  -3.098   3.494  0.00  0.00    +0.045 A 
ATOM     26  C   UNL     1       2.939  -3.450   4.633  0.00  0.00    +0.117 A 
ATOM     27  C   UNL     1       1.556  -3.341   4.645  0.00  0.00    +0.045 A 
ATOM     28  C   UNL     1       0.890  -2.877   3.527  0.00  0.00    +0.007 A 
BRANCH  26  29
ATOM     29  O   UNL     1       3.596  -3.901   5.734  0.00  0.00    -0.507 OA
ATOM     30  H   UNL     1       3.855  -3.203   6.351  0.00  0.00    +0.292 HD
ENDBRANCH  26  29
ENDBRANCH  22  23
ENDBRANCH  21  22
ENDBRANCH  20  21
ENDBRANCH   1  20
TORSDOF 9
