REMARK  Name = ZINC10435141
REMARK  7 active torsions:
REMARK  status: ('A' for Active; 'I' for Inactive)
REMARK    1  A    between atoms: C_1  and  C_2
REMARK    2  A    between atoms: C_7  and  S_15
REMARK    3  A    between atoms: C_11  and  C_12
REMARK    4  A    between atoms: C_12  and  C_14
REMARK    5  A    between atoms: S_15  and  C_16
REMARK    6  A    between atoms: C_16  and  C_17
REMARK    7  A    between atoms: C_18  and  C_19
REMARK                            x       y       z     vdW  Elec       q    Type
REMARK                         _______ _______ _______ _____ _____    ______ ____
ROOT
ATOM      1  C   UNL     1      -0.018   1.503   0.010  0.00  0.00    +0.046 C 
ATOM      2  C   UNL     1       0.002  -0.004   0.002  0.00  0.00    -0.018 A 
ATOM      3  C   UNL     1       0.006  -0.730  -1.192  0.00  0.00    +0.075 A 
ATOM      4  C   UNL     1      -0.008  -0.218  -2.588  0.00  0.00    +0.282 A 
ATOM      5  O   UNL     1      -0.025   0.982  -2.806  0.00  0.00    -0.265 OA
ATOM      6  N   UNL     1      -0.001  -1.088  -3.602  0.00  0.00    -0.185 NA
ATOM      7  C   UNL     1       0.019  -2.390  -3.412  0.00  0.00    +0.171 A 
ATOM      8  N   UNL     1       0.032  -2.930  -2.160  0.00  0.00    -0.328 N 
ATOM      9  C   UNL     1       0.026  -2.126  -1.061  0.00  0.00    +0.093 A 
ATOM     10  S   UNL     1       0.038  -2.415   0.585  0.00  0.00    -0.067 S 
ATOM     11  C   UNL     1       0.024  -0.733   1.174  0.00  0.00    +0.060 A 
ATOM     12  H   UNL     1       0.045  -3.893  -2.052  0.00  0.00    +0.168 HD
ENDROOT
BRANCH  11  13
ATOM     13  C   UNL     1       0.030  -0.265   2.505  0.00  0.00    +0.167 C 
ATOM     14  O   UNL     1       0.017   0.929   2.729  0.00  0.00    -0.292 OA
ATOM     15  C   UNL     1       0.055  -1.245   3.649  0.00  0.00    +0.092 C 
ENDBRANCH  11  13
BRANCH   7  16
ATOM     16  S   UNL     1       0.027  -3.462  -4.810  0.00  0.00    -0.084 S 
BRANCH  16  17
ATOM     17  C   UNL     1       0.004  -2.333  -6.229  0.00  0.00    +0.104 C 
BRANCH  17  18
ATOM     18  C   UNL     1       0.009  -3.132  -7.507  0.00  0.00    -0.015 C 
ATOM     19  C   UNL     1      -1.036  -3.087  -8.321  0.00  0.00    +0.004 C 
BRANCH  19  20
ATOM     20  C   UNL     1      -1.031  -3.871  -9.574  0.00  0.00    -0.025 A 
ATOM     21  C   UNL     1       0.070  -4.664  -9.900  0.00  0.00    +0.008 A 
ATOM     22  C   UNL     1       0.068  -5.393 -11.072  0.00  0.00    +0.001 A 
ATOM     23  C   UNL     1      -1.022  -5.339 -11.922  0.00  0.00    +0.000 A 
ATOM     24  C   UNL     1      -2.116  -4.554 -11.605  0.00  0.00    +0.001 A 
ATOM     25  C   UNL     1      -2.130  -3.826 -10.433  0.00  0.00    +0.008 A 
ENDBRANCH  19  20
ENDBRANCH  17  18
ENDBRANCH  16  17
ENDBRANCH   7  16
TORSDOF 5
