REMARK  Name = ZINC43853048
REMARK  6 active torsions:
REMARK  status: ('A' for Active; 'I' for Inactive)
REMARK    1  A    between atoms: C_4  and  N_24
REMARK    2  A    between atoms: C_5  and  N_7
REMARK    3  A    between atoms: N_10  and  C_11
REMARK    4  A    between atoms: C_11  and  C_12
REMARK    5  A    between atoms: C_12  and  C_14
REMARK    6  A    between atoms: C_12  and  N_19
REMARK                            x       y       z     vdW  Elec       q    Type
REMARK                         _______ _______ _______ _____ _____    ______ ____
ROOT
ATOM      1  N   UNL     1       1.235  -2.091  -0.084  0.00  0.00    -0.268 N 
ATOM      2  C   UNL     1       0.084  -2.780   0.048  0.00  0.00    +0.304 C 
ATOM      3  O   UNL     1      -0.979  -2.189   0.075  0.00  0.00    -0.253 OA
ATOM      4  N   UNL     1       0.110  -4.123   0.151  0.00  0.00    -0.300 N 
ATOM      5  H   UNL     1       2.074  -2.565  -0.193  0.00  0.00    +0.156 HD
ATOM      6  H   UNL     1       0.958  -4.594   0.129  0.00  0.00    +0.150 HD
ENDROOT
BRANCH   1  11
ATOM      7  C   UNL     1       0.176   1.367   0.592  0.00  0.00    +0.002 A 
ATOM      8  C   UNL     1       1.187   2.081  -0.026  0.00  0.00    +0.002 A 
ATOM      9  C   UNL     1       2.216   1.416  -0.665  0.00  0.00    +0.025 A 
ATOM     10  C   UNL     1       2.238   0.029  -0.688  0.00  0.00    +0.058 A 
ATOM     11  C   UNL     1       1.219  -0.690  -0.065  0.00  0.00    +0.056 A 
ATOM     12  C   UNL     1       0.190  -0.015   0.574  0.00  0.00    +0.025 A 
BRANCH  10  13
ATOM     13  N   UNL     1       3.280  -0.646  -1.335  0.00  0.00    -0.270 N 
ATOM     14  C   UNL     1       3.263  -1.034  -2.750  0.00  0.00    +0.114 C 
ATOM     15  C   UNL     1       4.734  -1.336  -3.113  0.00  0.00    +0.029 C 
ATOM     16  C   UNL     1       5.326  -1.718  -1.737  0.00  0.00    +0.098 C 
ATOM     17  C   UNL     1       4.428  -1.018  -0.741  0.00  0.00    +0.220 C 
ATOM     18  O   UNL     1       4.702  -0.823   0.424  0.00  0.00    -0.275 OA
ENDBRANCH  10  13
ENDBRANCH   1  11
BRANCH   4  19
ATOM     19  C   UNL     1      -1.141  -4.872   0.294  0.00  0.00    +0.095 C 
BRANCH  19  20
ATOM     20  C   UNL     1      -0.827  -6.353   0.515  0.00  0.00    -0.013 C 
BRANCH  20  21
ATOM     21  N   UNL     1      -2.081  -7.107   0.633  0.00  0.00    +0.386 N 
ATOM     22  C   UNL     1      -2.792  -7.128  -0.671  0.00  0.00    -0.078 C 
ATOM     23  C   UNL     1      -3.721  -8.362  -0.548  0.00  0.00    -0.020 C 
ATOM     24  C   UNL     1      -2.851  -9.374   0.231  0.00  0.00    -0.020 C 
ATOM     25  C   UNL     1      -1.797  -8.521   0.961  0.00  0.00    -0.078 C 
ATOM     26  H   UNL     1      -2.668  -6.697   1.344  0.00  0.00    -0.081 HD
ENDBRANCH  20  21
BRANCH  20  27
ATOM     27  C   UNL     1      -0.022  -6.513   1.779  0.00  0.00    -0.022 A 
ATOM     28  C   UNL     1       1.315  -6.674   1.925  0.00  0.00    +0.009 A 
ATOM     29  C   UNL     1       1.840  -6.802   3.198  0.00  0.00    +0.008 A 
ATOM     30  C   UNL     1       1.002  -6.762   4.262  0.00  0.00    +0.045 A 
ATOM     31  S   UNL     1      -0.584  -6.532   3.474  0.00  0.00    -0.103 S 
ENDBRANCH  20  27
ENDBRANCH  19  20
ENDBRANCH   4  19
TORSDOF 6
