REMARK  Name = ZINC64202435
REMARK  13 active torsions:
REMARK  status: ('A' for Active; 'I' for Inactive)
REMARK    1  A    between atoms: C_1  and  C_2
REMARK    2  A    between atoms: C_2  and  C_3
REMARK    3  A    between atoms: C_3  and  C_4
REMARK    4  A    between atoms: C_3  and  C_6
REMARK    5  A    between atoms: C_4  and  C_5
REMARK    6  A    between atoms: C_6  and  C_8
REMARK    7  A    between atoms: C_6  and  N_32
REMARK    8  A    between atoms: C_8  and  N_9
REMARK    9  A    between atoms: C_10  and  C_12
REMARK   10  A    between atoms: C_12  and  C_14
REMARK   11  A    between atoms: C_12  and  N_24
REMARK   12  A    between atoms: C_14  and  C_15
REMARK   13  A    between atoms: C_25  and  C_27
REMARK                            x       y       z     vdW  Elec       q    Type
REMARK                         _______ _______ _______ _____ _____    ______ ____
ROOT
ATOM      1  C   UNL     1       3.684   5.185   0.109  0.00  0.00    +0.163 C 
ENDROOT
BRANCH   1   3
ATOM      2  N   UNL     1       2.787   2.928   0.578  0.00  0.00    -0.312 N 
ATOM      3  C   UNL     1       2.541   4.233   0.353  0.00  0.00    +0.234 C 
ATOM      4  O   UNL     1       1.399   4.643   0.347  0.00  0.00    -0.274 OA
ATOM      5  H   UNL     1       3.700   2.600   0.583  0.00  0.00    +0.149 HD
BRANCH   2   6
ATOM      6  C   UNL     1       1.676   2.003   0.816  0.00  0.00    +0.123 C 
BRANCH   6   7
ATOM      7  C   UNL     1       2.228   0.606   1.109  0.00  0.00    +0.077 C 
BRANCH   7   8
ATOM      8  N   UNL     1       2.734   0.560   2.487  0.00  0.00    -0.293 NA
ATOM      9  C   UNL     1       1.673   0.888   3.450  0.00  0.00    +0.113 C 
ATOM     10  C   UNL     1       2.226   0.770   4.872  0.00  0.00    +0.175 C 
ATOM     11  O   UNL     1       3.364   1.625   5.008  0.00  0.00    -0.377 OA
ATOM     12  C   UNL     1       4.418   1.333   4.087  0.00  0.00    +0.175 C 
ATOM     13  C   UNL     1       3.886   1.458   2.656  0.00  0.00    +0.113 C 
ENDBRANCH   7   8
BRANCH   7  14
ATOM     14  C   UNL     1       1.115  -0.429   0.939  0.00  0.00    +0.007 C 
BRANCH  14  16
ATOM     15  C   UNL     1      -0.651   0.772  -0.357  0.00  0.00    +0.004 C 
ATOM     16  C   UNL     1       0.471  -0.264  -0.439  0.00  0.00    +0.002 C 
ENDBRANCH  14  16
BRANCH  14  17
ATOM     17  C   UNL     1       1.703  -1.836   1.063  0.00  0.00    +0.002 C 
ATOM     18  C   UNL     1       2.238  -2.042   2.481  0.00  0.00    +0.004 C 
ENDBRANCH  14  17
ENDBRANCH   7  14
ENDBRANCH   6   7
ENDBRANCH   2   6
ENDBRANCH   1   3
BRANCH   1  19
ATOM     19  N   UNL     1       3.240   6.557   0.364  0.00  0.00    -0.299 N 
ATOM     20  C   UNL     1       2.223   7.080  -0.348  0.00  0.00    +0.251 C 
ATOM     21  O   UNL     1       1.673   6.413  -1.204  0.00  0.00    -0.270 OA
ATOM     22  H   UNL     1       3.678   7.089   1.047  0.00  0.00    +0.150 HD
BRANCH  20  23
ATOM     23  C   UNL     1       1.779   8.454  -0.092  0.00  0.00    +0.074 A 
ATOM     24  C   UNL     1       0.760   9.171  -0.702  0.00  0.00    +0.021 A 
ATOM     25  C   UNL     1       0.577  10.454  -0.244  0.00  0.00    +0.008 A 
ATOM     26  C   UNL     1       1.379  10.922   0.745  0.00  0.00    +0.046 A 
ATOM     27  S   UNL     1       2.402   9.634   1.089  0.00  0.00    -0.092 S 
ENDBRANCH  20  23
ENDBRANCH   1  19
BRANCH   1  28
ATOM     28  C   UNL     1       4.148   5.061  -1.344  0.00  0.00    +0.065 C 
BRANCH  28  29
ATOM     29  C   UNL     1       5.368   5.921  -1.556  0.00  0.00    -0.039 C 
ATOM     30  C   UNL     1       6.660   5.527  -1.494  0.00  0.00    -0.001 A 
ATOM     31  C   UNL     1       7.294   4.232  -1.219  0.00  0.00    +0.010 A 
ATOM     32  C   UNL     1       8.643   4.147  -1.225  0.00  0.00    +0.001 A 
ATOM     33  C   UNL     1       9.451   5.263  -1.486  0.00  0.00    +0.002 A 
ATOM     34  C   UNL     1       8.943   6.486  -1.747  0.00  0.00    +0.026 A 
ATOM     35  C   UNL     1       7.535   6.690  -1.766  0.00  0.00    +0.043 A 
ATOM     36  N   UNL     1       6.812   7.761  -1.989  0.00  0.00    -0.380 N 
ATOM     37  C   UNL     1       5.394   7.396  -1.888  0.00  0.00    +0.144 C 
ATOM     38  H   UNL     1       7.156   8.645  -2.190  0.00  0.00    +0.160 HD
ENDBRANCH  28  29
ENDBRANCH   1  28
TORSDOF 11
