REMARK  Name = ZINC63913772
REMARK  2 active torsions:
REMARK  status: ('A' for Active; 'I' for Inactive)
REMARK    1  A    between atoms: C_1  and  C_2
REMARK    2  A    between atoms: C_6  and  C_8
REMARK                            x       y       z     vdW  Elec       q    Type
REMARK                         _______ _______ _______ _____ _____    ______ ____
ROOT
ATOM      1  C   UNL     1       3.894  -1.172   1.052  0.00  0.00    +0.100 A 
ATOM      2  C   UNL     1       4.076  -1.260   2.437  0.00  0.00    +0.164 A 
ATOM      3  N   UNL     1       5.285  -1.494   2.913  0.00  0.00    -0.152 NA
ATOM      4  N   UNL     1       6.285  -1.639   2.117  0.00  0.00    -0.113 NA
ATOM      5  C   UNL     1       6.142  -1.560   0.800  0.00  0.00    +0.233 A 
ATOM      6  N   UNL     1       7.246  -1.722  -0.019  0.00  0.00    -0.326 N 
ATOM      7  N   UNL     1       4.953  -1.332   0.258  0.00  0.00    -0.211 NA
ATOM      8  H   UNL     1       8.118  -1.893   0.370  0.00  0.00    +0.145 HD
ATOM      9  H   UNL     1       7.148  -1.666  -0.983  0.00  0.00    +0.145 HD
ENDROOT
BRANCH   1  14
ATOM     10  C   UNL     1      -0.019   1.526   0.010  0.00  0.00    +0.019 C 
ATOM     11  C   UNL     1       0.002  -0.004   0.002  0.00  0.00    +0.052 C 
ATOM     12  C   UNL     1       0.815  -0.554  -1.199  0.00  0.00    +0.042 C 
ATOM     13  C   UNL     1       2.235  -0.808  -0.809  0.00  0.00    -0.009 C 
ATOM     14  C   UNL     1       2.553  -0.911   0.481  0.00  0.00    +0.031 C 
ATOM     15  S   UNL     1       1.028  -0.672   1.378  0.00  0.00    -0.120 S 
ENDBRANCH   1  14
TORSDOF 1
