REMARK  Name = ZINC27549552
REMARK  11 active torsions:
REMARK  status: ('A' for Active; 'I' for Inactive)
REMARK    1  A    between atoms: C_1  and  C_2
REMARK    2  A    between atoms: C_6  and  O_8
REMARK    3  A    between atoms: O_8  and  C_9
REMARK    4  A    between atoms: C_9  and  C_10
REMARK    5  A    between atoms: C_10  and  O_11
REMARK    6  A    between atoms: O_11  and  C_12
REMARK    7  A    between atoms: C_16  and  C_18
REMARK    8  A    between atoms: C_28  and  C_30
REMARK    9  A    between atoms: C_30  and  C_31
REMARK   10  A    between atoms: C_31  and  C_32
REMARK   11  A    between atoms: C_31  and  C_33
REMARK                            x       y       z     vdW  Elec       q    Type
REMARK                         _______ _______ _______ _____ _____    ______ ____
ROOT
ATOM      1  C   UNL     1      -0.890  -4.771   6.051  0.00  0.00    +0.121 A 
ATOM      2  C   UNL     1       0.116  -5.257   6.877  0.00  0.00    +0.045 A 
ATOM      3  C   UNL     1      -0.163  -5.607   8.186  0.00  0.00    +0.004 A 
ATOM      4  C   UNL     1      -1.443  -5.476   8.682  0.00  0.00    +0.008 A 
ATOM      5  C   UNL     1      -2.465  -4.987   7.858  0.00  0.00    -0.021 A 
ATOM      6  C   UNL     1      -2.177  -4.629   6.535  0.00  0.00    +0.053 A 
ENDROOT
BRANCH   5   7
ATOM      7  C   UNL     1      -3.829  -4.845   8.380  0.00  0.00    +0.024 C 
ATOM      8  C   UNL     1      -4.326  -5.771   9.252  0.00  0.00    +0.081 C 
ATOM      9  C   UNL     1      -5.630  -5.575   9.947  0.00  0.00    +0.152 C 
ATOM     10  N   UNL     1      -6.641  -4.947   9.412  0.00  0.00    -0.283 NA
ATOM     11  N   UNL     1      -5.664  -6.137  11.242  0.00  0.00    -0.152 N 
ATOM     12  C   UNL     1      -4.783  -7.161  11.515  0.00  0.00    +0.181 C 
ATOM     13  N   UNL     1      -3.835  -7.627  10.741  0.00  0.00    -0.152 NA
ATOM     14  C   UNL     1      -3.599  -7.032   9.553  0.00  0.00    +0.273 C 
ATOM     15  O   UNL     1      -2.812  -7.510   8.752  0.00  0.00    -0.268 OA
ATOM     16  S   UNL     1      -5.261  -7.635  13.155  0.00  0.00    -0.038 S 
ATOM     17  C   UNL     1      -6.517  -6.387  13.403  0.00  0.00    +0.100 C 
ATOM     18  N   UNL     1      -6.511  -5.760  12.262  0.00  0.00    -0.169 NA
ATOM     19  H   UNL     1      -7.469  -4.847   9.909  0.00  0.00    +0.188 HD
BRANCH  17  20
ATOM     20  C   UNL     1      -7.366  -6.129  14.621  0.00  0.00    +0.067 C 
BRANCH  20  21
ATOM     21  C   UNL     1      -8.300  -4.948  14.350  0.00  0.00    -0.011 C 
ATOM     22  C   UNL     1      -9.247  -4.764  15.537  0.00  0.00    +0.007 C 
ATOM     23  C   UNL     1      -7.472  -3.676  14.156  0.00  0.00    +0.007 C 
ENDBRANCH  20  21
ENDBRANCH  17  20
ENDBRANCH   5   7
BRANCH   1  24
ATOM     24  O   UNL     1      -0.607  -4.430   4.766  0.00  0.00    -0.489 OA
BRANCH  24  25
ATOM     25  C   UNL     1       0.744  -4.603   4.331  0.00  0.00    +0.270 C 
BRANCH  25  26
ATOM     26  C   UNL     1       0.868  -4.169   2.869  0.00  0.00    +0.270 C 
BRANCH  26  27
ATOM     27  O   UNL     1       0.614  -2.767   2.764  0.00  0.00    -0.489 OA
BRANCH  27  33
ATOM     28  C   UNL     1       0.265   1.167  -0.103  0.00  0.00    +0.044 C 
ATOM     29  C   UNL     1       0.521  -0.306   0.087  0.00  0.00    -0.047 A 
ATOM     30  C   UNL     1       0.828  -1.100  -1.003  0.00  0.00    +0.003 A 
ATOM     31  C   UNL     1       1.064  -2.451  -0.832  0.00  0.00    +0.004 A 
ATOM     32  C   UNL     1       0.992  -3.012   0.429  0.00  0.00    +0.045 A 
ATOM     33  C   UNL     1       0.684  -2.218   1.523  0.00  0.00    +0.121 A 
ATOM     34  C   UNL     1       0.454  -0.861   1.350  0.00  0.00    +0.049 A 
ENDBRANCH  27  33
ENDBRANCH  26  27
ENDBRANCH  25  26
ENDBRANCH  24  25
ENDBRANCH   1  24
TORSDOF 8
