REMARK  Name = ZINC19862992
REMARK  5 active torsions:
REMARK  status: ('A' for Active; 'I' for Inactive)
REMARK    1  A    between atoms: C_7  and  C_23
REMARK    2  A    between atoms: N_9  and  C_12
REMARK    3  A    between atoms: C_12  and  C_13
REMARK    4  A    between atoms: N_15  and  N_16
REMARK    5  A    between atoms: C_17  and  C_18
REMARK                            x       y       z     vdW  Elec       q    Type
REMARK                         _______ _______ _______ _____ _____    ______ ____
ROOT
ATOM      1  C   UNL     1      -0.238  11.944  -0.855  0.00  0.00    +0.001 A 
ATOM      2  C   UNL     1      -0.435  11.326  -2.083  0.00  0.00    +0.001 A 
ATOM      3  C   UNL     1      -1.266  10.233  -2.194  0.00  0.00    +0.014 A 
ATOM      4  C   UNL     1      -1.914   9.744  -1.060  0.00  0.00    +0.050 A 
ATOM      5  C   UNL     1      -1.713  10.372   0.188  0.00  0.00    +0.015 A 
ATOM      6  C   UNL     1      -0.868  11.476   0.277  0.00  0.00    +0.011 A 
ATOM      7  C   UNL     1      -2.410   9.833   1.365  0.00  0.00    +0.099 A 
ATOM      8  N   UNL     1      -3.199   8.796   1.237  0.00  0.00    -0.167 NA
ATOM      9  N   UNL     1      -3.406   8.159   0.014  0.00  0.00    -0.219 N 
ATOM     10  C   UNL     1      -2.811   8.582  -1.120  0.00  0.00    +0.275 A 
ATOM     11  O   UNL     1      -3.013   8.010  -2.176  0.00  0.00    -0.266 OA
ENDROOT
BRANCH   7  12
ATOM     12  C   UNL     1      -2.224  10.465   2.692  0.00  0.00    +0.003 A 
ATOM     13  C   UNL     1      -0.959  10.897   3.091  0.00  0.00    +0.011 A 
ATOM     14  C   UNL     1      -0.793  11.490   4.325  0.00  0.00    +0.020 A 
ATOM     15  C   UNL     1      -1.877  11.647   5.173  0.00  0.00    +0.041 A 
ATOM     16  C   UNL     1      -3.134  11.214   4.784  0.00  0.00    +0.020 A 
ATOM     17  C   UNL     1      -3.312  10.625   3.550  0.00  0.00    +0.011 A 
ATOM     18 CL   UNL     1      -1.659  12.387   6.728  0.00  0.00    -0.084 Cl
ENDBRANCH   7  12
BRANCH   9  19
ATOM     19  C   UNL     1      -4.301   7.000  -0.042  0.00  0.00    +0.244 C 
BRANCH  19  20
ATOM     20  C   UNL     1      -3.509   5.741   0.195  0.00  0.00    +0.254 C 
ATOM     21  O   UNL     1      -2.313   5.805   0.391  0.00  0.00    -0.272 OA
ATOM     22  N   UNL     1      -4.128   4.544   0.189  0.00  0.00    -0.205 N 
ATOM     23  H   UNL     1      -5.212   4.486   0.011  0.00  0.00    +0.177 HD
BRANCH  22  24
ATOM     24  N   UNL     1      -3.390   3.373   0.409  0.00  0.00    -0.185 NA
ATOM     25  C   UNL     1      -3.988   2.217   0.403  0.00  0.00    +0.176 C 
BRANCH  25  26
ATOM     26  C   UNL     1      -3.216   0.992   0.633  0.00  0.00    +0.147 A 
ATOM     27  C   UNL     1      -3.716  -0.278   0.653  0.00  0.00    +0.051 A 
ATOM     28  C   UNL     1      -2.629  -1.136   0.900  0.00  0.00    +0.042 A 
ATOM     29  C   UNL     1      -1.531  -0.362   1.018  0.00  0.00    +0.196 A 
ATOM     30  O   UNL     1      -1.889   0.922   0.857  0.00  0.00    -0.462 OA
ENDBRANCH  25  26
ENDBRANCH  22  24
ENDBRANCH  19  20
ENDBRANCH   9  19
TORSDOF 5
