REMARK  Name = ZINC36648087
REMARK  11 active torsions:
REMARK  status: ('A' for Active; 'I' for Inactive)
REMARK    1  A    between atoms: C_1  and  C_2
REMARK    2  A    between atoms: C_4  and  C_35
REMARK    3  A    between atoms: N_11  and  C_12
REMARK    4  A    between atoms: C_12  and  C_13
REMARK    5  A    between atoms: C_13  and  C_14
REMARK    6  A    between atoms: C_14  and  N_15
REMARK    7  A    between atoms: N_15  and  C_16
REMARK    8  A    between atoms: N_15  and  C_17
REMARK    9  A    between atoms: C_18  and  C_20
REMARK   10  A    between atoms: N_26  and  S_27
REMARK   11  A    between atoms: S_27  and  C_30
REMARK                            x       y       z     vdW  Elec       q    Type
REMARK                         _______ _______ _______ _____ _____    ______ ____
ROOT
ATOM      1  C   UNL     1      -0.207   1.503   0.536  0.00  0.00    +0.044 C 
ATOM      2  C   UNL     1      -0.178  -0.003   0.477  0.00  0.00    -0.049 A 
ATOM      3  C   UNL     1      -0.091  -0.655  -0.744  0.00  0.00    +0.009 A 
ATOM      4  C   UNL     1      -0.063  -2.022  -0.826  0.00  0.00    -0.024 A 
ATOM      5  C   UNL     1      -0.121  -2.817   0.343  0.00  0.00    +0.083 A 
ATOM      6  C   UNL     1      -0.208  -2.119   1.569  0.00  0.00    +0.041 A 
ATOM      7  C   UNL     1      -0.231  -0.749   1.641  0.00  0.00    +0.020 A 
ATOM      8  S   UNL     1      -0.258  -3.441   2.754  0.00  0.00    -0.052 S 
ATOM      9  C   UNL     1      -0.163  -4.792   1.587  0.00  0.00    +0.168 A 
ATOM     10  N   UNL     1      -0.103  -4.164   0.436  0.00  0.00    -0.224 NA
ATOM     11  N   UNL     1      -0.155  -6.155   1.835  0.00  0.00    -0.249 N 
ATOM     12  C   UNL     1      -0.076  -7.026   0.810  0.00  0.00    +0.240 C 
ATOM     13  O   UNL     1       0.072  -6.618  -0.323  0.00  0.00    -0.273 OA
ATOM     14  C   UNL     1       0.031  -2.687  -2.175  0.00  0.00    +0.046 C 
ENDROOT
BRANCH  12  15
ATOM     15  C   UNL     1      -0.173  -8.507   1.070  0.00  0.00    +0.166 C 
ATOM     16  C   UNL     1       1.153  -9.181   0.700  0.00  0.00    +0.030 C 
ATOM     17  C   UNL     1       1.004 -10.698   0.834  0.00  0.00    +0.003 C 
ATOM     18  C   UNL     1      -0.076 -11.194  -0.131  0.00  0.00    +0.017 C 
ATOM     19  C   UNL     1      -1.415 -10.543   0.229  0.00  0.00    +0.110 C 
ATOM     20  N   UNL     1      -1.245  -9.083   0.246  0.00  0.00    -0.164 NA
BRANCH  20  21
ATOM     21  S   UNL     1      -2.239  -8.106  -0.647  0.00  0.00    +0.068 S 
ATOM     22  O   UNL     1      -3.453  -8.822  -0.832  0.00  0.00    -0.152 OA
ATOM     23  O   UNL     1      -2.197  -6.821  -0.043  0.00  0.00    -0.152 OA
BRANCH  21  24
ATOM     24  C   UNL     1      -1.508  -7.937  -2.241  0.00  0.00    +0.143 A 
ATOM     25  C   UNL     1      -1.688  -8.698  -3.349  0.00  0.00    +0.036 A 
ATOM     26  C   UNL     1      -1.002  -8.374  -4.504  0.00  0.00    +0.010 A 
ATOM     27  C   UNL     1      -0.168  -7.306  -4.495  0.00  0.00    +0.047 A 
ATOM     28  S   UNL     1      -0.342  -6.715  -2.820  0.00  0.00    -0.077 S 
ENDBRANCH  21  24
ENDBRANCH  20  21
ENDBRANCH  12  15
BRANCH  11  29
ATOM     29  C   UNL     1      -0.232  -6.650   3.212  0.00  0.00    +0.114 C 
BRANCH  29  30
ATOM     30  C   UNL     1      -1.699  -6.785   3.624  0.00  0.00    +0.001 C 
BRANCH  30  31
ATOM     31  C   UNL     1      -1.779  -7.302   5.062  0.00  0.00    -0.078 C 
BRANCH  31  32
ATOM     32  N   UNL     1      -3.188  -7.432   5.458  0.00  0.00    +0.376 N 
ATOM     33  C   UNL     1      -3.267  -8.040   6.793  0.00  0.00    -0.097 C 
ATOM     34  C   UNL     1      -3.813  -6.103   5.487  0.00  0.00    -0.097 C 
ATOM     35  H   UNL     1      -3.671  -8.017   4.793  0.00  0.00    -0.083 HD
ENDBRANCH  31  32
ENDBRANCH  30  31
ENDBRANCH  29  30
ENDBRANCH  11  29
TORSDOF 7
