REMARK  Name = ZINC67058178
REMARK  9 active torsions:
REMARK  status: ('A' for Active; 'I' for Inactive)
REMARK    1  A    between atoms: C_1  and  C_2
REMARK    2  A    between atoms: C_2  and  C_3
REMARK    3  A    between atoms: C_2  and  C_4
REMARK    4  A    between atoms: C_2  and  C_23
REMARK    5  A    between atoms: C_4  and  C_5
REMARK    6  A    between atoms: N_7  and  C_8
REMARK    7  A    between atoms: C_8  and  C_9
REMARK    8  A    between atoms: C_12  and  C_15
REMARK    9  A    between atoms: C_15  and  N_16
REMARK                            x       y       z     vdW  Elec       q    Type
REMARK                         _______ _______ _______ _____ _____    ______ ____
ROOT
ATOM      1  C   UNL     1      -4.108   0.081   2.682  0.00  0.00    +0.139 C 
ENDROOT
BRANCH   1   2
ATOM      2  C   UNL     1      -5.522  -0.441   2.692  0.00  0.00    -0.030 A 
ATOM      3  C   UNL     1      -6.534   0.293   2.103  0.00  0.00    +0.005 A 
ATOM      4  C   UNL     1      -7.831  -0.186   2.112  0.00  0.00    +0.006 A 
ATOM      5  C   UNL     1      -8.116  -1.398   2.712  0.00  0.00    -0.028 A 
ATOM      6  C   UNL     1      -7.103  -2.133   3.301  0.00  0.00    +0.006 A 
ATOM      7  C   UNL     1      -5.806  -1.656   3.287  0.00  0.00    +0.005 A 
BRANCH   5   8
ATOM      8  C   UNL     1      -9.530  -1.919   2.723  0.00  0.00    +0.160 C 
BRANCH   8   9
ATOM      9  N   UNL     1      -9.759  -2.735   1.528  0.00  0.00    -0.311 N 
ATOM     10  C   UNL     1     -10.218  -2.147   0.393  0.00  0.00    +0.089 A 
ATOM     11  C   UNL     1     -10.438  -2.880  -0.724  0.00  0.00    +0.018 A 
ATOM     12  C   UNL     1     -10.192  -4.260  -0.716  0.00  0.00    +0.007 A 
ATOM     13  C   UNL     1      -9.731  -4.848   0.425  0.00  0.00    +0.070 A 
ATOM     14  C   UNL     1      -9.508  -4.057   1.566  0.00  0.00    +0.252 A 
ATOM     15  O   UNL     1      -9.091  -4.570   2.592  0.00  0.00    -0.268 OA
ENDBRANCH   8   9
ENDBRANCH   5   8
ENDBRANCH   1   2
BRANCH   1  18
ATOM     16  C   UNL     1      -2.139  -0.048   1.253  0.00  0.00    +0.214 C 
ATOM     17  O   UNL     1      -1.551   0.653   2.049  0.00  0.00    -0.276 OA
ATOM     18  N   UNL     1      -3.422  -0.392   1.476  0.00  0.00    -0.311 N 
ATOM     19  H   UNL     1      -3.892  -0.953   0.839  0.00  0.00    +0.149 HD
BRANCH  16  20
ATOM     20  C   UNL     1      -1.433  -0.534   0.013  0.00  0.00    +0.106 C 
BRANCH  20  22
ATOM     21  C   UNL     1      -0.019   1.526   0.010  0.00  0.00    +0.016 C 
ATOM     22  C   UNL     1       0.002  -0.004   0.002  0.00  0.00    -0.002 C 
ATOM     23  C   UNL     1       0.742  -0.511   1.242  0.00  0.00    +0.016 C 
BRANCH  22  24
ATOM     24  C   UNL     1       0.707  -0.490  -1.238  0.00  0.00    -0.041 A 
ATOM     25  C   UNL     1       0.036  -1.284  -2.148  0.00  0.00    +0.004 A 
ATOM     26  C   UNL     1       0.683  -1.730  -3.286  0.00  0.00    +0.000 A 
ATOM     27  C   UNL     1       2.001  -1.381  -3.513  0.00  0.00    +0.000 A 
ATOM     28  C   UNL     1       2.672  -0.586  -2.603  0.00  0.00    +0.000 A 
ATOM     29  C   UNL     1       2.024  -0.137  -1.467  0.00  0.00    +0.004 A 
ENDBRANCH  22  24
ENDBRANCH  20  22
ENDBRANCH  16  20
ENDBRANCH   1  18
TORSDOF 7
