REMARK  Name = ZINC04063789
REMARK  6 active torsions:
REMARK  status: ('A' for Active; 'I' for Inactive)
REMARK    1  A    between atoms: C_1  and  C_2
REMARK    2  A    between atoms: N_4  and  C_5
REMARK    3  A    between atoms: C_16  and  S_21
REMARK    4  A    between atoms: S_21  and  C_22
REMARK    5  A    between atoms: C_27  and  N_28
REMARK    6  A    between atoms: C_31  and  C_34
REMARK                            x       y       z     vdW  Elec       q    Type
REMARK                         _______ _______ _______ _____ _____    ______ ____
ROOT
ATOM      1  C   UNL     1       6.523   5.081  -0.255  0.00  0.00    +0.034 A 
ATOM      2  C   UNL     1       7.489   5.017   0.740  0.00  0.00    +0.025 A 
ATOM      3  C   UNL     1       8.258   3.879   0.875  0.00  0.00    +0.025 A 
ATOM      4  C   UNL     1       8.064   2.801   0.018  0.00  0.00    +0.031 A 
ATOM      5  C   UNL     1       7.102   2.859  -0.975  0.00  0.00    -0.020 A 
ATOM      6  C   UNL     1       6.332   4.005  -1.108  0.00  0.00    +0.029 A 
ATOM      7  C   UNL     1       6.851   1.720  -1.926  0.00  0.00    +0.045 C 
ATOM      8  C   UNL     1       7.540   0.426  -1.458  0.00  0.00    +0.024 C 
ATOM      9  C   UNL     1       6.646  -0.113  -0.330  0.00  0.00    +0.022 C 
ATOM     10  C   UNL     1       5.245   0.483  -0.565  0.00  0.00    +0.070 C 
ATOM     11  C   UNL     1       5.346   1.353  -1.835  0.00  0.00    +0.101 C 
ATOM     12 CL   UNL     1       4.837   0.412  -3.287  0.00  0.00    -0.120 Cl
ATOM     13  C   UNL     1       8.945   0.712  -0.943  0.00  0.00    +0.107 C 
ATOM     14  N   UNL     1       8.858   1.657   0.177  0.00  0.00    -0.336 N 
ATOM     15  H   UNL     1       9.336   1.493   1.004  0.00  0.00    +0.147 HD
ENDROOT
BRANCH  13  16
ATOM     16  C   UNL     1       9.581  -0.572  -0.475  0.00  0.00    +0.008 A 
ATOM     17  C   UNL     1       9.526  -0.924   0.860  0.00  0.00    +0.008 A 
ATOM     18  C   UNL     1      10.105  -2.104   1.288  0.00  0.00    +0.000 A 
ATOM     19  C   UNL     1      10.749  -2.927   0.384  0.00  0.00    +0.003 A 
ATOM     20  C   UNL     1      10.810  -2.575  -0.951  0.00  0.00    +0.039 A 
ATOM     21  C   UNL     1      10.226  -1.395  -1.382  0.00  0.00    +0.128 A 
ATOM     22  F   UNL     1      10.285  -1.049  -2.687  0.00  0.00    -0.205 F 
ENDBRANCH  13  16
BRANCH   1  26
ATOM     23  C   UNL     1       5.391   8.672  -0.157  0.00  0.00    +0.109 C 
ATOM     24  C   UNL     1       6.264   7.444  -0.120  0.00  0.00    +0.214 C 
ATOM     25  O   UNL     1       7.441   7.545   0.160  0.00  0.00    -0.276 OA
ATOM     26  N   UNL     1       5.739   6.235  -0.397  0.00  0.00    -0.286 N 
ATOM     27  H   UNL     1       4.819   6.162  -0.695  0.00  0.00    +0.155 HD
ENDBRANCH   1  26
BRANCH  10  28
ATOM     28  S   UNL     1       4.038  -0.848  -0.817  0.00  0.00    -0.118 S 
BRANCH  28  29
ATOM     29  C   UNL     1       2.493  -0.007  -0.920  0.00  0.00    +0.038 A 
ATOM     30  C   UNL     1       2.444   1.377  -0.807  0.00  0.00    +0.017 A 
ATOM     31  C   UNL     1       1.231   2.033  -0.889  0.00  0.00    +0.001 A 
ATOM     32  C   UNL     1       0.066   1.313  -1.083  0.00  0.00    +0.002 A 
ATOM     33  C   UNL     1       0.111  -0.064  -1.196  0.00  0.00    +0.034 A 
ATOM     34  C   UNL     1       1.320  -0.727  -1.115  0.00  0.00    +0.140 A 
BRANCH  34  35
ATOM     35  N   UNL     1       1.367  -2.201  -1.237  0.00  0.00    +0.058 N 
ATOM     36  O   UNL     1       0.339  -2.831  -1.409  0.00  0.00    -0.126 OA
ATOM     37  O   UNL     1       2.434  -2.784  -1.165  0.00  0.00    -0.126 OA
ENDBRANCH  34  35
ENDBRANCH  28  29
ENDBRANCH  10  28
TORSDOF 5
