REMARK  Name = ZINC36284355
REMARK  6 active torsions:
REMARK  status: ('A' for Active; 'I' for Inactive)
REMARK    1  A    between atoms: C_1  and  C_2
REMARK    2  A    between atoms: C_5  and  C_8
REMARK    3  A    between atoms: C_11  and  N_20
REMARK    4  A    between atoms: N_16  and  C_17
REMARK    5  A    between atoms: C_17  and  C_18
REMARK    6  A    between atoms: C_17  and  C_19
REMARK                            x       y       z     vdW  Elec       q    Type
REMARK                         _______ _______ _______ _____ _____    ______ ____
ROOT
ATOM      1  C   UNL     1       0.064  -4.186  -0.013  0.00  0.00    +0.142 A 
ATOM      2  N   UNL     1      -0.260  -4.910  -1.056  0.00  0.00    -0.226 NA
ATOM      3  C   UNL     1      -0.077  -6.222  -0.774  0.00  0.00    +0.110 A 
ATOM      4  C   UNL     1      -0.264  -7.402  -1.513  0.00  0.00    +0.052 A 
ATOM      5  C   UNL     1       0.020  -8.625  -0.933  0.00  0.00    +0.025 A 
ATOM      6  C   UNL     1       0.487  -8.692   0.371  0.00  0.00    +0.004 A 
ATOM      7  C   UNL     1       0.675  -7.542   1.108  0.00  0.00    +0.028 A 
ATOM      8  C   UNL     1       0.397  -6.303   0.545  0.00  0.00    +0.071 A 
ATOM      9  N   UNL     1       0.484  -5.003   1.004  0.00  0.00    -0.321 N 
ENDROOT
BRANCH   1  14
ATOM     10  C   UNL     1      -0.209   1.556   0.250  0.00  0.00    +0.044 C 
ATOM     11  C   UNL     1      -0.138   0.053   0.181  0.00  0.00    -0.050 A 
ATOM     12  C   UNL     1       0.155  -0.569  -1.020  0.00  0.00    +0.004 A 
ATOM     13  C   UNL     1       0.222  -1.945  -1.090  0.00  0.00    +0.012 A 
ATOM     14  C   UNL     1      -0.006  -2.710   0.055  0.00  0.00    +0.018 A 
ATOM     15  C   UNL     1      -0.300  -2.078   1.263  0.00  0.00    +0.012 A 
ATOM     16  C   UNL     1      -0.359  -0.700   1.320  0.00  0.00    +0.004 A 
ENDBRANCH   1  14
BRANCH   9  17
ATOM     17  C   UNL     1       0.935  -4.577   2.331  0.00  0.00    +0.083 C 
ATOM     18  C   UNL     1       1.291  -5.808   3.168  0.00  0.00    +0.030 C 
ATOM     19  C   UNL     1       2.170  -3.685   2.187  0.00  0.00    +0.030 C 
ENDBRANCH   9  17
BRANCH   4  20
ATOM     20  N   UNL     1      -0.734  -7.341  -2.826  0.00  0.00    -0.356 N 
ATOM     21  H   UNL     1      -0.933  -6.482  -3.231  0.00  0.00    +0.142 HD
ATOM     22  H   UNL     1      -0.863  -8.157  -3.334  0.00  0.00    +0.142 HD
ENDBRANCH   4  20
TORSDOF 3
