REMARK  Name = ZINC06539345
REMARK  10 active torsions:
REMARK  status: ('A' for Active; 'I' for Inactive)
REMARK    1  A    between atoms: C_1  and  C_2
REMARK    2  A    between atoms: C_2  and  C_3
REMARK    3  A    between atoms: C_2  and  C_4
REMARK    4  A    between atoms: C_4  and  C_6
REMARK    5  A    between atoms: C_4  and  N_19
REMARK    6  A    between atoms: C_6  and  O_8
REMARK    7  A    between atoms: O_8  and  C_9
REMARK    8  A    between atoms: C_9  and  C_10
REMARK    9  A    between atoms: C_10  and  O_11
REMARK   10  A    between atoms: O_11  and  C_12
REMARK                            x       y       z     vdW  Elec       q    Type
REMARK                         _______ _______ _______ _____ _____    ______ ____
ROOT
ATOM      1  C   UNL     1      -1.153  -3.535  -0.005  0.00  0.00    +0.196 C 
ENDROOT
BRANCH   1   2
ATOM      2  N   UNL     1      -0.442  -2.255  -0.005  0.00  0.00    -0.220 N 
ATOM      3  C   UNL     1      -1.042  -1.051   0.007  0.00  0.00    +0.255 C 
ATOM      4  O   UNL     1      -2.240  -0.856   0.019  0.00  0.00    -0.270 OA
ATOM      5  C   UNL     1       0.002  -0.004   0.002  0.00  0.00    +0.049 A 
ATOM      6  C   UNL     1      -0.017   1.381   0.010  0.00  0.00    +0.014 A 
ATOM      7  C   UNL     1       1.178   2.085   0.002  0.00  0.00    +0.001 A 
ATOM      8  C   UNL     1       2.386   1.414  -0.014  0.00  0.00    +0.001 A 
ATOM      9  C   UNL     1       2.420   0.028  -0.021  0.00  0.00    +0.014 A 
ATOM     10  C   UNL     1       1.234  -0.688  -0.013  0.00  0.00    +0.049 A 
ATOM     11  C   UNL     1       0.897  -2.128  -0.018  0.00  0.00    +0.255 C 
ATOM     12  O   UNL     1       1.696  -3.042  -0.029  0.00  0.00    -0.270 OA
ENDBRANCH   1   2
BRANCH   1  14
ATOM     13  C   UNL     1      -2.762  -4.975   1.253  0.00  0.00    +0.009 C 
ATOM     14  C   UNL     1      -2.019  -3.637   1.252  0.00  0.00    +0.015 C 
ATOM     15  C   UNL     1      -1.129  -3.548   2.494  0.00  0.00    +0.009 C 
ENDBRANCH   1  14
BRANCH   1  16
ATOM     16  C   UNL     1      -2.030  -3.623  -1.227  0.00  0.00    +0.329 C 
ATOM     17  O   UNL     1      -2.058  -2.710  -2.018  0.00  0.00    -0.249 OA
BRANCH  16  18
ATOM     18  O   UNL     1      -2.780  -4.716  -1.438  0.00  0.00    -0.460 OA
BRANCH  18  19
ATOM     19  C   UNL     1      -3.600  -4.732  -2.636  0.00  0.00    +0.273 C 
BRANCH  19  20
ATOM     20  C   UNL     1      -4.378  -6.048  -2.704  0.00  0.00    +0.270 C 
BRANCH  20  21
ATOM     21  O   UNL     1      -5.299  -6.114  -1.614  0.00  0.00    -0.486 OA
BRANCH  21  22
ATOM     22  C   UNL     1      -6.074  -7.228  -1.528  0.00  0.00    +0.156 A 
ATOM     23  C   UNL     1      -5.954  -8.233  -2.475  0.00  0.00    +0.048 A 
ATOM     24  C   UNL     1      -6.739  -9.366  -2.383  0.00  0.00    +0.004 A 
ATOM     25  C   UNL     1      -7.652  -9.495  -1.353  0.00  0.00    +0.003 A 
ATOM     26  C   UNL     1      -7.779  -8.493  -0.408  0.00  0.00    +0.042 A 
ATOM     27  C   UNL     1      -6.992  -7.358  -0.493  0.00  0.00    +0.165 A 
ATOM     28  F   UNL     1      -7.116  -6.379   0.429  0.00  0.00    -0.202 F 
ENDBRANCH  21  22
ENDBRANCH  20  21
ENDBRANCH  19  20
ENDBRANCH  18  19
ENDBRANCH  16  18
ENDBRANCH   1  16
TORSDOF 8
