REMARK  Name = ZINC58281853
REMARK  6 active torsions:
REMARK  status: ('A' for Active; 'I' for Inactive)
REMARK    1  A    between atoms: N_9  and  C_11
REMARK    2  A    between atoms: C_14  and  C_17
REMARK    3  A    between atoms: N_19  and  N_20
REMARK    4  A    between atoms: N_20  and  C_21
REMARK    5  A    between atoms: C_24  and  C_30
REMARK    6  A    between atoms: C_26  and  N_27
REMARK                            x       y       z     vdW  Elec       q    Type
REMARK                         _______ _______ _______ _____ _____    ______ ____
ROOT
ATOM      1  C   UNL     1       7.512  -5.023   3.122  0.00  0.00    +0.260 C 
ATOM      2  O   UNL     1       7.423  -6.229   3.249  0.00  0.00    -0.269 OA
ATOM      3  N   UNL     1       8.413  -4.334   3.850  0.00  0.00    -0.232 N 
ATOM      4  H   UNL     1       8.485  -3.372   3.749  0.00  0.00    +0.173 HD
ENDROOT
BRANCH   1   8
ATOM      5  C   UNL     1       4.986  -2.983   0.387  0.00  0.00    +0.030 A 
ATOM      6  C   UNL     1       4.883  -4.364   0.530  0.00  0.00    +0.024 A 
ATOM      7  C   UNL     1       5.700  -5.028   1.415  0.00  0.00    +0.015 A 
ATOM      8  C   UNL     1       6.635  -4.314   2.171  0.00  0.00    +0.038 A 
ATOM      9  C   UNL     1       6.736  -2.928   2.025  0.00  0.00    +0.015 A 
ATOM     10  C   UNL     1       5.919  -2.270   1.134  0.00  0.00    +0.024 A 
BRANCH   5  19
ATOM     11  C   UNL     1       0.164   0.682  -0.800  0.00  0.00    +0.000 A 
ATOM     12  C   UNL     1       1.234   1.527  -0.571  0.00  0.00    +0.000 A 
ATOM     13  C   UNL     1       2.511   1.010  -0.505  0.00  0.00    +0.005 A 
ATOM     14  C   UNL     1       2.729  -0.352  -0.663  0.00  0.00    -0.027 A 
ATOM     15  C   UNL     1       1.664  -1.196  -0.882  0.00  0.00    -0.041 A 
ATOM     16  C   UNL     1       0.379  -0.671  -0.956  0.00  0.00    +0.004 A 
ATOM     17  C   UNL     1       1.819  -2.686  -1.034  0.00  0.00    +0.054 C 
ATOM     18  C   UNL     1       3.255  -3.048  -1.410  0.00  0.00    +0.110 C 
ATOM     19  N   UNL     1       4.158  -2.314  -0.509  0.00  0.00    -0.325 N 
ATOM     20  C   UNL     1       4.151  -0.850  -0.594  0.00  0.00    +0.140 C 
ENDBRANCH   5  19
ENDBRANCH   1   8
BRANCH   3  21
ATOM     21  N   UNL     1       9.246  -5.008   4.753  0.00  0.00    -0.262 N 
ATOM     22  H   UNL     1       9.175  -5.970   4.854  0.00  0.00    +0.170 HD
BRANCH  21  23
ATOM     23  C   UNL     1      10.180  -4.293   5.508  0.00  0.00    +0.075 A 
ATOM     24  C   UNL     1      10.361  -2.934   5.286  0.00  0.00    +0.027 A 
ATOM     25  C   UNL     1      11.285  -2.231   6.034  0.00  0.00    +0.014 A 
ATOM     26  C   UNL     1      12.030  -2.879   7.002  0.00  0.00    +0.057 A 
ATOM     27  C   UNL     1      11.852  -4.232   7.226  0.00  0.00    +0.047 A 
ATOM     28  C   UNL     1      10.925  -4.940   6.486  0.00  0.00    +0.149 A 
BRANCH  26  29
ATOM     29  C   UNL     1      13.038  -2.109   7.816  0.00  0.00    +0.417 C 
ATOM     30  F   UNL     1      13.038  -0.769   7.411  0.00  0.00    -0.166 F 
ATOM     31  F   UNL     1      12.700  -2.186   9.171  0.00  0.00    -0.166 F 
ATOM     32  F   UNL     1      14.311  -2.655   7.620  0.00  0.00    -0.166 F 
ENDBRANCH  26  29
BRANCH  28  33
ATOM     33  N   UNL     1      10.731  -6.387   6.730  0.00  0.00    +0.058 N 
ATOM     34  O   UNL     1       9.623  -6.867   6.666  0.00  0.00    -0.126 OA
ATOM     35  O   UNL     1      11.679  -7.088   6.994  0.00  0.00    -0.126 OA
ENDBRANCH  28  33
ENDBRANCH  21  23
ENDBRANCH   3  21
TORSDOF 6
