REMARK  Name = ZINC16345866
REMARK  8 active torsions:
REMARK  status: ('A' for Active; 'I' for Inactive)
REMARK    1  A    between atoms: C_3  and  C_6
REMARK    2  A    between atoms: C_6  and  N_7
REMARK    3  A    between atoms: N_7  and  C_8
REMARK    4  A    between atoms: C_8  and  N_10
REMARK    5  A    between atoms: N_10  and  C_11
REMARK    6  A    between atoms: C_14  and  S_17
REMARK    7  A    between atoms: S_17  and  N_20
REMARK    8  A    between atoms: N_20  and  C_21
REMARK                            x       y       z     vdW  Elec       q    Type
REMARK                         _______ _______ _______ _____ _____    ______ ____
ROOT
ATOM      1  C   UNL     1       0.843  -0.293  -1.970  0.00  0.00    +0.033 A 
ATOM      2  C   UNL     1      -0.145   0.671  -2.120  0.00  0.00    +0.025 A 
ATOM      3  C   UNL     1      -0.025   1.887  -1.476  0.00  0.00    +0.030 A 
ATOM      4  C   UNL     1       1.078   2.145  -0.683  0.00  0.00    +0.105 A 
ATOM      5  C   UNL     1       2.063   1.187  -0.532  0.00  0.00    +0.030 A 
ATOM      6  C   UNL     1       1.949  -0.031  -1.173  0.00  0.00    +0.025 A 
ENDROOT
BRANCH   4   7
ATOM      7  S   UNL     1       1.228   3.697   0.137  0.00  0.00    +0.059 S 
ATOM      8  O   UNL     1       2.610   4.029   0.128  0.00  0.00    -0.153 OA
ATOM      9  O   UNL     1       0.236   4.548  -0.421  0.00  0.00    -0.153 OA
BRANCH   7  10
ATOM     10  N   UNL     1       0.809   3.457   1.721  0.00  0.00    -0.184 NA
ATOM     11  H   UNL     1       1.488   3.488   2.413  0.00  0.00    +0.149 HD
BRANCH  10  12
ATOM     12  C   UNL     1      -0.588   3.196   2.078  0.00  0.00    +0.041 C 
ATOM     13  C   UNL     1      -1.121   2.034   1.237  0.00  0.00    +0.027 C 
ATOM     14  C   UNL     1      -2.580   1.762   1.609  0.00  0.00    -0.009 C 
ATOM     15  C   UNL     1      -2.668   1.401   3.093  0.00  0.00    +0.007 C 
ATOM     16  C   UNL     1      -2.135   2.563   3.934  0.00  0.00    -0.009 C 
ATOM     17  C   UNL     1      -0.677   2.835   3.562  0.00  0.00    +0.027 C 
ATOM     18  C   UNL     1      -2.973   3.814   3.663  0.00  0.00    +0.007 C 
ATOM     19  C   UNL     1      -2.884   4.176   2.179  0.00  0.00    -0.009 C 
ATOM     20  C   UNL     1      -3.417   3.014   1.339  0.00  0.00    +0.007 C 
ATOM     21  C   UNL     1      -1.425   4.448   1.807  0.00  0.00    +0.027 C 
ENDBRANCH  10  12
ENDBRANCH   7  10
ENDBRANCH   4   7
BRANCH   1  22
ATOM     22  N   UNL     1       0.723  -1.526  -2.621  0.00  0.00    -0.297 N 
ATOM     23  H   UNL     1       0.975  -2.343  -2.162  0.00  0.00    +0.154 HD
BRANCH  22  24
ATOM     24  C   UNL     1       0.259  -1.579  -3.885  0.00  0.00    +0.135 C 
ATOM     25  S   UNL     1      -0.042  -0.131  -4.748  0.00  0.00    -0.019 S 
BRANCH  24  26
ATOM     26  N   UNL     1       0.030  -2.771  -4.470  0.00  0.00    -0.319 N 
ATOM     27  H   UNL     1       0.200  -3.592  -3.981  0.00  0.00    +0.148 HD
BRANCH  26  28
ATOM     28  C   UNL     1      -0.475  -2.829  -5.844  0.00  0.00    +0.177 C 
BRANCH  28  31
ATOM     29  C   UNL     1      -1.474  -6.290  -6.622  0.00  0.00    +0.041 A 
ATOM     30  C   UNL     1      -1.756  -5.007  -6.097  0.00  0.00    +0.046 A 
ATOM     31  C   UNL     1      -0.643  -4.268  -6.257  0.00  0.00    +0.122 A 
ATOM     32  O   UNL     1       0.289  -5.028  -6.854  0.00  0.00    -0.466 OA
ATOM     33  C   UNL     1      -0.207  -6.257  -7.072  0.00  0.00    +0.195 A 
ENDBRANCH  28  31
ENDBRANCH  26  28
ENDBRANCH  24  26
ENDBRANCH  22  24
ENDBRANCH   1  22
TORSDOF 8
