REMARK  Name = ZINC06284224
REMARK  7 active torsions:
REMARK  status: ('A' for Active; 'I' for Inactive)
REMARK    1  A    between atoms: C_1  and  C_2
REMARK    2  A    between atoms: C_2  and  C_3
REMARK    3  A    between atoms: C_6  and  C_8
REMARK    4  A    between atoms: C_10  and  C_31
REMARK    5  A    between atoms: C_11  and  N_30
REMARK    6  A    between atoms: N_12  and  C_20
REMARK    7  A    between atoms: C_22  and  N_27
REMARK                            x       y       z     vdW  Elec       q    Type
REMARK                         _______ _______ _______ _____ _____    ______ ____
ROOT
ATOM      1  C   UNL     1      -2.355   4.080   0.047  0.00  0.00    +0.104 C 
ATOM      2  C   UNL     1      -2.279   4.919   1.289  0.00  0.00    +0.077 C 
ATOM      3  C   UNL     1      -1.826   6.199   1.244  0.00  0.00    +0.107 C 
ATOM      4  N   UNL     1      -1.433   6.751   0.046  0.00  0.00    -0.259 N 
ATOM      5  C   UNL     1      -1.847   6.205  -1.141  0.00  0.00    +0.025 C 
ATOM      6  C   UNL     1      -2.303   4.937  -1.192  0.00  0.00    +0.026 C 
ATOM      7  C   UNL     1      -2.746   4.374  -2.403  0.00  0.00    +0.162 C 
ATOM      8  O   UNL     1      -3.145   3.226  -2.416  0.00  0.00    -0.292 OA
ATOM      9  C   UNL     1      -2.736   5.166  -3.681  0.00  0.00    +0.080 C 
ATOM     10  C   UNL     1      -2.894   6.653  -3.348  0.00  0.00    +0.014 C 
ATOM     11  C   UNL     1      -1.775   7.056  -2.385  0.00  0.00    +0.052 C 
ENDROOT
BRANCH   4  12
ATOM     12  C   UNL     1      -0.604   7.879   0.040  0.00  0.00    +0.060 A 
ATOM     13  C   UNL     1       0.777   7.728   0.026  0.00  0.00    +0.058 A 
ATOM     14  C   UNL     1       1.592   8.842   0.020  0.00  0.00    +0.128 A 
ATOM     15  C   UNL     1       1.036  10.108   0.026  0.00  0.00    +0.034 A 
ATOM     16  C   UNL     1      -0.338  10.263   0.040  0.00  0.00    +0.024 A 
ATOM     17  C   UNL     1      -1.160   9.152   0.042  0.00  0.00    +0.063 A 
ATOM     18 CL   UNL     1      -2.885   9.347   0.051  0.00  0.00    -0.082 Cl
BRANCH  14  19
ATOM     19  N   UNL     1       3.063   8.681   0.005  0.00  0.00    +0.056 N 
ATOM     20  O   UNL     1       3.554   7.566  -0.001  0.00  0.00    -0.126 OA
ATOM     21  O   UNL     1       3.783   9.664  -0.000  0.00  0.00    -0.126 OA
ENDBRANCH  14  19
ENDBRANCH   4  12
BRANCH   1  25
ATOM     22  C   UNL     1       1.146   1.780   0.001  0.00  0.00    -0.010 A 
ATOM     23  C   UNL     1      -0.013   1.076   0.008  0.00  0.00    +0.011 A 
ATOM     24  C   UNL     1      -1.213   1.761   0.017  0.00  0.00    +0.012 A 
ATOM     25  C   UNL     1      -1.196   3.116   0.030  0.00  0.00    +0.003 A 
ATOM     26  S   UNL     1       0.555   3.464   0.015  0.00  0.00    -0.097 S 
BRANCH  22  28
ATOM     27  C   UNL     1       3.031   1.107  -1.463  0.00  0.00    +0.009 C 
ATOM     28  C   UNL     1       2.565   1.272  -0.015  0.00  0.00    +0.039 C 
ENDBRANCH  22  28
ENDBRANCH   1  25
BRANCH   3  29
ATOM     29  N   UNL     1      -1.760   6.944   2.397  0.00  0.00    -0.345 N 
ATOM     30  H   UNL     1      -2.037   6.556   3.242  0.00  0.00    +0.144 HD
ATOM     31  H   UNL     1      -1.437   7.858   2.366  0.00  0.00    +0.144 HD
ENDBRANCH   3  29
BRANCH   2  32
ATOM     32  C   UNL     1      -2.691   4.361   2.542  0.00  0.00    +0.099 C 
ATOM     33  N   UNL     1      -3.018   3.919   3.536  0.00  0.00    -0.191 NA
ENDBRANCH   2  32
TORSDOF 6
