REMARK  Name = ZINC43525879
REMARK  9 active torsions:
REMARK  status: ('A' for Active; 'I' for Inactive)
REMARK    1  A    between atoms: C_1  and  C_2
REMARK    2  A    between atoms: N_4  and  C_5
REMARK    3  A    between atoms: C_8  and  S_11
REMARK    4  A    between atoms: S_11  and  N_14
REMARK    5  A    between atoms: N_14  and  C_15
REMARK    6  A    between atoms: C_15  and  C_16
REMARK    7  A    between atoms: C_25  and  C_27
REMARK    8  A    between atoms: C_29  and  C_33
REMARK    9  A    between atoms: N_31  and  C_32
REMARK                            x       y       z     vdW  Elec       q    Type
REMARK                         _______ _______ _______ _____ _____    ______ ____
ROOT
ATOM      1  C   UNL     1      -1.901  -7.550   4.083  0.00  0.00    -0.053 C 
ATOM      2  C   UNL     1      -3.261  -7.341   4.753  0.00  0.00    -0.010 C 
ATOM      3  C   UNL     1      -3.924  -8.709   4.964  0.00  0.00    -0.007 C 
ATOM      4  C   UNL     1      -4.095  -9.380   3.595  0.00  0.00    -0.015 C 
ATOM      5  C   UNL     1      -2.719  -9.521   2.939  0.00  0.00    -0.078 C 
ATOM      6  N   UNL     1      -1.669  -8.979   3.858  0.00  0.00    +0.383 N 
ATOM      7  C   UNL     1      -1.648  -9.705   5.130  0.00  0.00    -0.068 C 
ATOM      8  C   UNL     1      -2.997  -9.567   5.835  0.00  0.00    +0.024 C 
ATOM      9  H   UNL     1      -0.767  -9.091   3.420  0.00  0.00    -0.081 HD
ENDROOT
BRANCH   8  10
ATOM     10  C   UNL     1      -3.606 -10.932   6.028  0.00  0.00    +0.041 A 
ATOM     11  C   UNL     1      -3.488 -11.985   5.187  0.00  0.00    +0.048 A 
ATOM     12  C   UNL     1      -4.201 -13.056   5.735  0.00  0.00    +0.066 A 
ATOM     13  N   UNL     1      -4.728 -12.660   6.865  0.00  0.00    -0.176 NA
ATOM     14  N   UNL     1      -4.362 -11.324   7.075  0.00  0.00    -0.271 N 
ATOM     15  C   UNL     1      -4.738 -10.498   8.225  0.00  0.00    +0.172 C 
BRANCH  12  16
ATOM     16  C   UNL     1      -4.338 -14.429   5.129  0.00  0.00    +0.040 C 
ATOM     17  C   UNL     1      -3.040 -14.802   4.410  0.00  0.00    +0.010 C 
ATOM     18  C   UNL     1      -3.180 -16.195   3.795  0.00  0.00    +0.001 C 
ATOM     19  C   UNL     1      -4.336 -16.196   2.792  0.00  0.00    +0.000 C 
ATOM     20  C   UNL     1      -5.634 -15.823   3.511  0.00  0.00    +0.001 C 
ATOM     21  C   UNL     1      -5.494 -14.430   4.126  0.00  0.00    +0.010 C 
ENDBRANCH  12  16
ENDBRANCH   8  10
BRANCH   1  22
ATOM     22  C   UNL     1      -1.877  -6.814   2.742  0.00  0.00    +0.090 C 
BRANCH  22  23
ATOM     23  N   UNL     1      -0.621  -7.105   2.047  0.00  0.00    -0.191 NA
ATOM     24  H   UNL     1       0.121  -7.501   2.531  0.00  0.00    +0.148 HD
BRANCH  23  25
ATOM     25  S   UNL     1      -0.467  -6.759   0.435  0.00  0.00    +0.058 S 
ATOM     26  O   UNL     1      -1.615  -7.296  -0.207  0.00  0.00    -0.153 OA
ATOM     27  O   UNL     1       0.855  -7.126   0.066  0.00  0.00    -0.153 OA
BRANCH  25  31
ATOM     28  C   UNL     1      -0.730  -2.258   0.002  0.00  0.00    +0.033 A 
ATOM     29  C   UNL     1       0.502  -2.868   0.200  0.00  0.00    +0.025 A 
ATOM     30  C   UNL     1       0.579  -4.240   0.332  0.00  0.00    +0.030 A 
ATOM     31  C   UNL     1      -0.569  -5.008   0.267  0.00  0.00    +0.105 A 
ATOM     32  C   UNL     1      -1.798  -4.404   0.069  0.00  0.00    +0.030 A 
ATOM     33  C   UNL     1      -1.882  -3.031  -0.058  0.00  0.00    +0.025 A 
BRANCH  28  37
ATOM     34  C   UNL     1      -1.910   1.302   0.317  0.00  0.00    +0.109 C 
ATOM     35  C   UNL     1      -1.871  -0.203   0.369  0.00  0.00    +0.214 C 
ATOM     36  O   UNL     1      -2.794  -0.817   0.861  0.00  0.00    -0.276 OA
ATOM     37  N   UNL     1      -0.811  -0.868  -0.132  0.00  0.00    -0.286 N 
ATOM     38  H   UNL     1      -0.104  -0.382  -0.586  0.00  0.00    +0.155 HD
ENDBRANCH  28  37
ENDBRANCH  25  31
ENDBRANCH  23  25
ENDBRANCH  22  23
ENDBRANCH   1  22
TORSDOF 7
