REMARK  Name = ZINC63908054
REMARK  9 active torsions:
REMARK  status: ('A' for Active; 'I' for Inactive)
REMARK    1  A    between atoms: C_1  and  S_2
REMARK    2  A    between atoms: S_2  and  N_5
REMARK    3  A    between atoms: N_5  and  C_6
REMARK    4  A    between atoms: C_10  and  C_12
REMARK    5  A    between atoms: C_12  and  O_14
REMARK    6  A    between atoms: O_14  and  C_15
REMARK    7  A    between atoms: C_15  and  C_16
REMARK    8  A    between atoms: C_16  and  C_18
REMARK    9  A    between atoms: C_26  and  C_28
REMARK                            x       y       z     vdW  Elec       q    Type
REMARK                         _______ _______ _______ _____ _____    ______ ____
ROOT
ATOM      1  C   UNL     1       3.563  -6.891  -6.137  0.00  0.00    +0.199 C 
ATOM      2  O   UNL     1       3.093  -7.637  -5.302  0.00  0.00    -0.289 OA
ENDROOT
BRANCH   1   3
ATOM      3  C   UNL     1       4.215  -7.422  -7.270  0.00  0.00    +0.034 C 
ATOM      4  C   UNL     1       4.806  -6.716  -8.303  0.00  0.00    +0.007 A 
ATOM      5  C   UNL     1       4.950  -5.333  -8.564  0.00  0.00    +0.010 A 
ATOM      6  C   UNL     1       5.588  -4.914  -9.679  0.00  0.00    +0.001 A 
ATOM      7  C   UNL     1       6.131  -5.806 -10.618  0.00  0.00    +0.002 A 
ATOM      8  C   UNL     1       6.047  -7.145 -10.463  0.00  0.00    +0.026 A 
ATOM      9  C   UNL     1       5.367  -7.686  -9.275  0.00  0.00    +0.044 A 
ATOM     10  N   UNL     1       5.146  -8.908  -8.881  0.00  0.00    -0.373 N 
ATOM     11  C   UNL     1       4.421  -8.883  -7.607  0.00  0.00    +0.144 C 
ATOM     12  H   UNL     1       5.421  -9.709  -9.354  0.00  0.00    +0.161 HD
BRANCH  11  13
ATOM     13  C   UNL     1       3.090  -9.573  -7.757  0.00  0.00    -0.021 A 
ATOM     14  C   UNL     1       2.377  -9.452  -8.935  0.00  0.00    +0.006 A 
ATOM     15  C   UNL     1       1.156 -10.085  -9.073  0.00  0.00    +0.000 A 
ATOM     16  C   UNL     1       0.648 -10.840  -8.033  0.00  0.00    +0.000 A 
ATOM     17  C   UNL     1       1.361 -10.962  -6.855  0.00  0.00    +0.000 A 
ATOM     18  C   UNL     1       2.584 -10.332  -6.718  0.00  0.00    +0.006 A 
ENDBRANCH  11  13
ENDBRANCH   1   3
BRANCH   1  19
ATOM     19  C   UNL     1       3.450  -5.398  -5.964  0.00  0.00    +0.311 C 
BRANCH  19  20
ATOM     20  O   UNL     1       2.753  -5.112  -4.749  0.00  0.00    -0.453 OA
BRANCH  20  21
ATOM     21  C   UNL     1       2.567  -3.813  -4.444  0.00  0.00    +0.340 C 
ATOM     22  O   UNL     1       2.983  -2.948  -5.187  0.00  0.00    -0.245 OA
BRANCH  21  27
ATOM     23  C   UNL     1       0.992  -1.756  -1.718  0.00  0.00    +0.075 A 
ATOM     24  C   UNL     1       0.518  -2.752  -0.872  0.00  0.00    +0.027 A 
ATOM     25  C   UNL     1       0.710  -4.083  -1.189  0.00  0.00    +0.003 A 
ATOM     26  C   UNL     1       1.374  -4.434  -2.347  0.00  0.00    +0.015 A 
ATOM     27  C   UNL     1       1.855  -3.441  -3.204  0.00  0.00    +0.061 A 
ATOM     28  C   UNL     1       1.655  -2.097  -2.887  0.00  0.00    +0.041 A 
BRANCH  23  29
ATOM     29  N   UNL     1       0.795  -0.411  -1.394  0.00  0.00    -0.103 NA
BRANCH  29  31
ATOM     30  C   UNL     1      -0.022   1.810   0.012  0.00  0.00    +0.220 C 
ATOM     31  S   UNL     1       0.002  -0.004   0.002  0.00  0.00    +0.059 S 
ATOM     32  O   UNL     1       0.835  -0.488   1.046  0.00  0.00    -0.154 OA
ATOM     33  O   UNL     1      -1.315  -0.510  -0.168  0.00  0.00    -0.154 OA
ENDBRANCH  29  31
ENDBRANCH  23  29
ENDBRANCH  21  27
ENDBRANCH  20  21
ENDBRANCH  19  20
ENDBRANCH   1  19
TORSDOF 8
