REMARK  Name = ZINC66619251
REMARK  8 active torsions:
REMARK  status: ('A' for Active; 'I' for Inactive)
REMARK    1  A    between atoms: C_1  and  C_2
REMARK    2  A    between atoms: C_5  and  C_9
REMARK    3  A    between atoms: C_6  and  C_8
REMARK    4  A    between atoms: C_9  and  C_10
REMARK    5  A    between atoms: C_10  and  C_12
REMARK    6  A    between atoms: C_10  and  N_13
REMARK    7  A    between atoms: C_18  and  C_25
REMARK    8  A    between atoms: C_21  and  C_24
REMARK                            x       y       z     vdW  Elec       q    Type
REMARK                         _______ _______ _______ _____ _____    ______ ____
ROOT
ATOM      1  N   UNL     1      -2.143  -4.416  -1.073  0.00  0.00    -0.296 N 
ATOM      2  C   UNL     1      -3.484  -4.311  -0.997  0.00  0.00    +0.303 C 
ATOM      3  O   UNL     1      -4.062  -4.623   0.027  0.00  0.00    -0.253 OA
ATOM      4  N   UNL     1      -4.186  -3.861  -2.056  0.00  0.00    -0.281 N 
ATOM      5  C   UNL     1      -5.635  -3.624  -1.959  0.00  0.00    +0.140 C 
ATOM      6  C   UNL     1      -6.321  -4.333  -3.133  0.00  0.00    +0.133 C 
ATOM      7  O   UNL     1      -5.692  -3.936  -4.354  0.00  0.00    -0.371 OA
ATOM      8  C   UNL     1      -4.314  -4.302  -4.449  0.00  0.00    +0.133 C 
ATOM      9  C   UNL     1      -3.525  -3.586  -3.341  0.00  0.00    +0.140 C 
ATOM     10  C   UNL     1      -3.767  -3.885  -5.816  0.00  0.00    +0.039 C 
ATOM     11  C   UNL     1      -7.801  -3.947  -3.169  0.00  0.00    +0.039 C 
ATOM     12  H   UNL     1      -1.689  -4.237  -1.911  0.00  0.00    +0.151 HD
ENDROOT
BRANCH   1  13
ATOM     13  C   UNL     1      -1.370  -4.801   0.111  0.00  0.00    +0.076 C 
ATOM     14  C   UNL     1      -1.336  -6.327   0.224  0.00  0.00    +0.028 C 
BRANCH  13  15
ATOM     15  C   UNL     1       0.058  -4.267  -0.017  0.00  0.00    +0.057 C 
BRANCH  15  20
ATOM     16  C   UNL     1      -0.037   1.510   0.029  0.00  0.00    +0.044 C 
ATOM     17  C   UNL     1      -0.012   0.004   0.018  0.00  0.00    -0.050 A 
ATOM     18  C   UNL     1      -0.005  -0.678  -1.185  0.00  0.00    +0.003 A 
ATOM     19  C   UNL     1       0.018  -2.060  -1.196  0.00  0.00    +0.004 A 
ATOM     20  C   UNL     1       0.034  -2.760  -0.005  0.00  0.00    -0.043 A 
ATOM     21  C   UNL     1       0.028  -2.079   1.198  0.00  0.00    -0.047 A 
ATOM     22  C   UNL     1       0.009  -0.697   1.209  0.00  0.00    +0.007 A 
ATOM     23  C   UNL     1       0.045  -2.843   2.497  0.00  0.00    +0.044 C 
ENDBRANCH  15  20
ENDBRANCH  13  15
ENDBRANCH   1  13
TORSDOF 3
