REMARK  Name = ZINC21327193
REMARK  5 active torsions:
REMARK  status: ('A' for Active; 'I' for Inactive)
REMARK    1  A    between atoms: C_6  and  C_7
REMARK    2  A    between atoms: C_7  and  S_8
REMARK    3  A    between atoms: S_8  and  C_9
REMARK    4  A    between atoms: N_13  and  N_14
REMARK    5  A    between atoms: N_15  and  N_16
REMARK                            x       y       z     vdW  Elec       q    Type
REMARK                         _______ _______ _______ _____ _____    ______ ____
ROOT
ATOM      1  C   UNL     1      -0.452   3.863   1.613  0.00  0.00    +0.210 A 
ATOM      2  N   UNL     1       0.221   4.549   0.720  0.00  0.00    -0.119 NA
ATOM      3  N   UNL     1      -0.077   5.906   0.903  0.00  0.00    -0.109 NA
ATOM      4  C   UNL     1      -0.921   6.005   1.901  0.00  0.00    +0.254 A 
ATOM      5  N   UNL     1      -1.179   4.744   2.362  0.00  0.00    -0.211 N 
ATOM      6  N   UNL     1      -1.463   7.183   2.398  0.00  0.00    -0.204 N 
ATOM      7  H   UNL     1      -2.165   7.151   3.244  0.00  0.00    +0.177 HD
ENDROOT
BRANCH   6   8
ATOM      8  N   UNL     1      -1.114   8.412   1.823  0.00  0.00    -0.189 NA
ATOM      9  C   UNL     1      -1.531   9.504   2.345  0.00  0.00    +0.037 C 
ATOM     10  C   UNL     1      -2.281   9.499   3.658  0.00  0.00    +0.052 C 
ATOM     11  C   UNL     1      -1.611  10.511   4.601  0.00  0.00    +0.006 C 
ATOM     12  C   UNL     1      -1.550  11.877   3.915  0.00  0.00    +0.001 C 
ATOM     13  C   UNL     1      -0.662  11.794   2.672  0.00  0.00    +0.006 C 
ATOM     14  C   UNL     1      -1.291  10.831   1.660  0.00  0.00    +0.052 C 
ENDBRANCH   6   8
BRANCH   5  15
ATOM     15  N   UNL     1      -2.016   4.422   3.393  0.00  0.00    -0.294 N 
ATOM     16  H   UNL     1      -2.556   5.215   3.931  0.00  0.00    +0.163 HD
ATOM     17  H   UNL     1      -2.149   3.370   3.685  0.00  0.00    +0.163 HD
ENDBRANCH   5  15
BRANCH   1  18
ATOM     18  S   UNL     1      -0.427   2.112   1.807  0.00  0.00    -0.080 S 
BRANCH  18  19
ATOM     19  C   UNL     1       0.713   1.544   0.516  0.00  0.00    +0.112 C 
BRANCH  19  25
ATOM     20  C   UNL     1       1.798  -0.548   1.359  0.00  0.00    +0.006 A 
ATOM     21  C   UNL     1       1.900  -1.926   1.416  0.00  0.00    +0.020 A 
ATOM     22  C   UNL     1       1.036  -2.713   0.676  0.00  0.00    +0.041 A 
ATOM     23  C   UNL     1       0.068  -2.122  -0.116  0.00  0.00    +0.020 A 
ATOM     24  C   UNL     1      -0.036  -0.745  -0.167  0.00  0.00    +0.006 A 
ATOM     25  C   UNL     1       0.827   0.042   0.573  0.00  0.00    -0.037 A 
ATOM     26 CL   UNL     1       1.167  -4.443   0.741  0.00  0.00    -0.084 Cl
ENDBRANCH  19  25
ENDBRANCH  18  19
ENDBRANCH   1  18
TORSDOF 5
