REMARK  Name = ZINC50999075
REMARK  9 active torsions:
REMARK  status: ('A' for Active; 'I' for Inactive)
REMARK    1  A    between atoms: C_1  and  C_2
REMARK    2  A    between atoms: C_2  and  C_3
REMARK    3  A    between atoms: C_2  and  C_4
REMARK    4  A    between atoms: C_6  and  C_13
REMARK    5  A    between atoms: N_8  and  C_9
REMARK    6  A    between atoms: C_9  and  C_10
REMARK    7  A    between atoms: C_9  and  C_11
REMARK    8  A    between atoms: C_16  and  O_20
REMARK    9  A    between atoms: O_20  and  C_21
REMARK                            x       y       z     vdW  Elec       q    Type
REMARK                         _______ _______ _______ _____ _____    ______ ____
ROOT
ATOM      1  C   UNL     1      -1.412  -0.526   0.013  0.00  0.00    +0.079 C 
ATOM      2  N   UNL     1      -2.407   0.141   0.480  0.00  0.00    -0.363 N 
ATOM      3  C   UNL     1      -3.620  -0.676   0.325  0.00  0.00    +0.172 C 
ATOM      4  C   UNL     1      -3.119  -1.951  -0.328  0.00  0.00    +0.101 C 
ATOM      5  N   UNL     1      -1.763  -1.752  -0.478  0.00  0.00    -0.276 N 
ATOM      6  N   UNL     1      -3.809  -2.989  -0.669  0.00  0.00    -0.388 N 
ATOM      7  H   UNL     1      -4.766  -3.008  -0.514  0.00  0.00    +0.157 HD
ATOM      8  H   UNL     1      -3.369  -3.749  -1.082  0.00  0.00    +0.157 HD
ATOM      9  H   UNL     1      -2.365   1.029   0.867  0.00  0.00    +0.162 HD
ENDROOT
BRANCH   3  10
ATOM     10  C   UNL     1      -4.232  -0.975   1.669  0.00  0.00    -0.017 A 
ATOM     11  C   UNL     1      -3.418  -1.241   2.754  0.00  0.00    +0.010 A 
ATOM     12  C   UNL     1      -3.976  -1.516   3.988  0.00  0.00    +0.047 A 
ATOM     13  C   UNL     1      -5.355  -1.525   4.138  0.00  0.00    +0.134 A 
ATOM     14  C   UNL     1      -6.171  -1.257   3.047  0.00  0.00    +0.060 A 
ATOM     15  C   UNL     1      -5.607  -0.978   1.816  0.00  0.00    +0.025 A 
ATOM     16 BR   UNL     1      -8.051  -1.269   3.246  0.00  0.00    -0.047 Br
BRANCH  13  17
ATOM     17  O   UNL     1      -5.906  -1.795   5.350  0.00  0.00    -0.494 OA
ATOM     18  C   UNL     1      -5.006  -2.062   6.427  0.00  0.00    +0.277 C 
ENDBRANCH  13  17
ENDBRANCH   3  10
BRANCH   1  20
ATOM     19  C   UNL     1      -0.019   1.526   0.010  0.00  0.00    +0.015 C 
ATOM     20  C   UNL     1       0.002  -0.004   0.002  0.00  0.00    +0.044 C 
ATOM     21  C   UNL     1       0.742  -0.511   1.242  0.00  0.00    +0.015 C 
ENDBRANCH   1  20
BRANCH   5  22
ATOM     22  C   UNL     1      -0.834  -2.715  -1.074  0.00  0.00    +0.075 C 
ATOM     23  C   UNL     1      -0.861  -4.015  -0.267  0.00  0.00    +0.028 C 
ATOM     24  C   UNL     1      -1.253  -3.002  -2.517  0.00  0.00    +0.028 C 
ENDBRANCH   5  22
TORSDOF 4
