REMARK  Name = ZINC41586050
REMARK  11 active torsions:
REMARK  status: ('A' for Active; 'I' for Inactive)
REMARK    1  A    between atoms: C_1  and  C_2
REMARK    2  A    between atoms: C_2  and  O_3
REMARK    3  A    between atoms: O_3  and  C_4
REMARK    4  A    between atoms: N_9  and  C_12
REMARK    5  A    between atoms: C_12  and  C_13
REMARK    6  A    between atoms: C_14  and  O_34
REMARK    7  A    between atoms: C_21  and  C_22
REMARK    8  A    between atoms: C_25  and  O_30
REMARK    9  A    between atoms: C_26  and  O_28
REMARK   10  A    between atoms: O_28  and  C_29
REMARK   11  A    between atoms: O_30  and  C_31
REMARK                            x       y       z     vdW  Elec       q    Type
REMARK                         _______ _______ _______ _____ _____    ______ ____
ROOT
ATOM      1  C   UNL     1       2.125  -5.155  -6.115  0.00  0.00    +0.051 A 
ATOM      2  C   UNL     1       3.378  -5.329  -6.679  0.00  0.00    +0.125 A 
ATOM      3  C   UNL     1       3.761  -6.568  -7.186  0.00  0.00    +0.046 A 
ATOM      4  C   UNL     1       2.900  -7.628  -7.131  0.00  0.00    +0.019 A 
ATOM      5  C   UNL     1       1.635  -7.467  -6.565  0.00  0.00    +0.068 A 
ATOM      6  C   UNL     1       1.240  -6.224  -6.045  0.00  0.00    +0.147 A 
ATOM      7  O   UNL     1      -0.013  -6.315  -5.549  0.00  0.00    -0.451 OA
ATOM      8  C   UNL     1      -0.520  -7.563  -5.688  0.00  0.00    +0.176 C 
ATOM      9  C   UNL     1      -1.750  -7.978  -5.292  0.00  0.00    +0.058 C 
ATOM     10  C   UNL     1       0.500  -8.384  -6.356  0.00  0.00    +0.231 C 
ATOM     11  O   UNL     1       0.428  -9.563  -6.659  0.00  0.00    -0.283 OA
ENDROOT
BRANCH   9  12
ATOM     12  C   UNL     1      -2.721  -7.006  -4.773  0.00  0.00    -0.018 A 
ATOM     13  C   UNL     1      -2.448  -5.634  -4.846  0.00  0.00    +0.012 A 
ATOM     14  C   UNL     1      -3.361  -4.725  -4.359  0.00  0.00    +0.050 A 
ATOM     15  C   UNL     1      -4.551  -5.164  -3.795  0.00  0.00    +0.162 A 
ATOM     16  C   UNL     1      -4.830  -6.529  -3.719  0.00  0.00    +0.162 A 
ATOM     17  C   UNL     1      -3.925  -7.447  -4.210  0.00  0.00    +0.057 A 
BRANCH  16  18
ATOM     18  O   UNL     1      -5.998  -6.954  -3.165  0.00  0.00    -0.491 OA
ATOM     19  C   UNL     1      -6.218  -8.365  -3.120  0.00  0.00    +0.277 C 
ENDBRANCH  16  18
BRANCH  15  20
ATOM     20  O   UNL     1      -5.447  -4.262  -3.316  0.00  0.00    -0.491 OA
ATOM     21  C   UNL     1      -5.098  -2.881  -3.425  0.00  0.00    +0.277 C 
ENDBRANCH  15  20
ENDBRANCH   9  12
BRANCH   2  22
ATOM     22  O   UNL     1       4.240  -4.282  -6.740  0.00  0.00    -0.506 OA
ATOM     23  H   UNL     1       4.815  -4.201  -5.967  0.00  0.00    +0.292 HD
ENDBRANCH   2  22
BRANCH   1  24
ATOM     24  C   UNL     1       1.724  -3.808  -5.570  0.00  0.00    +0.127 C 
BRANCH  24  30
ATOM     25  C   UNL     1       1.352  -2.990  -0.218  0.00  0.00    +0.403 C 
ATOM     26  O   UNL     1       0.844  -3.864   0.456  0.00  0.00    -0.226 OA
ATOM     27  N   UNL     1       1.907  -3.295  -1.408  0.00  0.00    -0.265 N 
ATOM     28  C   UNL     1       2.533  -2.254  -2.238  0.00  0.00    +0.126 C 
ATOM     29  C   UNL     1       1.953  -2.346  -3.653  0.00  0.00    +0.104 C 
ATOM     30  N   UNL     1       2.110  -3.718  -4.155  0.00  0.00    -0.295 NA
ATOM     31  C   UNL     1       1.348  -4.674  -3.340  0.00  0.00    +0.104 C 
ATOM     32  C   UNL     1       1.909  -4.678  -1.909  0.00  0.00    +0.126 C 
BRANCH  25  33
ATOM     33  O   UNL     1       1.361  -1.718   0.222  0.00  0.00    -0.451 OA
BRANCH  33  35
ATOM     34  C   UNL     1       0.860   0.023   1.822  0.00  0.00    +0.048 C 
ATOM     35  C   UNL     1       0.755  -1.468   1.492  0.00  0.00    +0.230 C 
ENDBRANCH  33  35
ENDBRANCH  25  33
ENDBRANCH  24  30
ENDBRANCH   1  24
TORSDOF 8
