REMARK  Name = ZINC09228398
REMARK  4 active torsions:
REMARK  status: ('A' for Active; 'I' for Inactive)
REMARK    1  A    between atoms: C_7  and  N_25
REMARK    2  A    between atoms: C_8  and  C_10
REMARK    3  A    between atoms: N_15  and  C_18
REMARK    4  A    between atoms: C_26  and  C_28
REMARK                            x       y       z     vdW  Elec       q    Type
REMARK                         _______ _______ _______ _____ _____    ______ ____
ROOT
ATOM      1  C   UNL     1       0.422  -2.615   0.424  0.00  0.00    +0.001 A 
ATOM      2  C   UNL     1       0.250  -2.486  -0.947  0.00  0.00    +0.004 A 
ATOM      3  C   UNL     1       0.370  -1.257  -1.559  0.00  0.00    +0.047 A 
ATOM      4  C   UNL     1       0.667  -0.131  -0.798  0.00  0.00    +0.138 A 
ATOM      5  C   UNL     1       0.840  -0.269   0.590  0.00  0.00    +0.042 A 
ATOM      6  C   UNL     1       0.714  -1.521   1.191  0.00  0.00    +0.013 A 
ATOM      7  C   UNL     1       1.137   1.079   1.091  0.00  0.00    +0.092 A 
ATOM      8  C   UNL     1       1.120   1.898  -0.005  0.00  0.00    +0.212 A 
ATOM      9  O   UNL     1       0.842   1.169  -1.109  0.00  0.00    -0.448 OA
ENDROOT
BRANCH   8  10
ATOM     10  C   UNL     1       1.366   3.338   0.015  0.00  0.00    +0.284 C 
ATOM     11  O   UNL     1       0.440   4.112   0.180  0.00  0.00    -0.267 OA
ATOM     12  N   UNL     1       2.617   3.811  -0.149  0.00  0.00    -0.292 N 
ATOM     13  C   UNL     1       3.735   2.901  -0.443  0.00  0.00    +0.127 C 
ATOM     14  C   UNL     1       4.482   3.437  -1.675  0.00  0.00    +0.124 C 
ATOM     15  N   UNL     1       4.865   4.835  -1.439  0.00  0.00    -0.327 N 
ATOM     16  C   UNL     1       3.683   5.692  -1.276  0.00  0.00    +0.124 C 
ATOM     17  C   UNL     1       2.902   5.249  -0.034  0.00  0.00    +0.127 C 
BRANCH  15  18
ATOM     18  C   UNL     1       5.690   5.309  -2.464  0.00  0.00    +0.030 A 
ATOM     19  C   UNL     1       5.333   6.448  -3.173  0.00  0.00    +0.026 A 
ATOM     20  C   UNL     1       6.152   6.916  -4.183  0.00  0.00    +0.040 A 
ATOM     21  C   UNL     1       7.322   6.245  -4.494  0.00  0.00    +0.124 A 
ATOM     22  C   UNL     1       7.678   5.106  -3.791  0.00  0.00    +0.040 A 
ATOM     23  C   UNL     1       6.865   4.637  -2.777  0.00  0.00    +0.026 A 
ATOM     24  F   UNL     1       8.119   6.703  -5.484  0.00  0.00    -0.205 F 
ENDBRANCH  15  18
ENDBRANCH   8  10
BRANCH   7  25
ATOM     25  N   UNL     1       1.380   1.448   2.407  0.00  0.00    -0.277 N 
ATOM     26  C   UNL     1       0.815   0.755   3.416  0.00  0.00    +0.255 C 
ATOM     27  O   UNL     1       0.020  -0.134   3.174  0.00  0.00    -0.269 OA
ATOM     28  H   UNL     1       1.956   2.204   2.601  0.00  0.00    +0.155 HD
BRANCH  26  29
ATOM     29  C   UNL     1       1.158   1.073   4.805  0.00  0.00    +0.074 A 
ATOM     30  C   UNL     1       0.696   0.489   5.975  0.00  0.00    +0.021 A 
ATOM     31  C   UNL     1       1.187   0.984   7.157  0.00  0.00    +0.008 A 
ATOM     32  C   UNL     1       2.085   2.004   7.127  0.00  0.00    +0.046 A 
ATOM     33  S   UNL     1       2.284   2.306   5.431  0.00  0.00    -0.092 S 
ENDBRANCH  26  29
ENDBRANCH   7  25
TORSDOF 4
