REMARK  Name = ZINC04171549
REMARK  5 active torsions:
REMARK  status: ('A' for Active; 'I' for Inactive)
REMARK    1  A    between atoms: C_1  and  C_2
REMARK    2  A    between atoms: C_5  and  S_8
REMARK    3  A    between atoms: S_8  and  N_11
REMARK    4  A    between atoms: N_11  and  N_12
REMARK    5  A    between atoms: N_15  and  C_16
REMARK                            x       y       z     vdW  Elec       q    Type
REMARK                         _______ _______ _______ _____ _____    ______ ____
ROOT
ATOM      1  N   UNL     1       2.500  -4.622   1.014  0.00  0.00    -0.216 N 
ATOM      2  C   UNL     1       3.184  -5.560   1.699  0.00  0.00    +0.315 C 
ATOM      3  O   UNL     1       3.921  -5.232   2.608  0.00  0.00    -0.251 OA
ATOM      4  N   UNL     1       3.050  -6.862   1.375  0.00  0.00    -0.293 N 
ATOM      5  H   UNL     1       2.596  -3.685   1.247  0.00  0.00    +0.172 HD
ATOM      6  H   UNL     1       2.462  -7.123   0.649  0.00  0.00    +0.151 HD
ENDROOT
BRANCH   4   7
ATOM      7  C   UNL     1       3.794  -7.881   2.119  0.00  0.00    +0.037 C 
ATOM      8  C   UNL     1       5.295  -7.619   1.984  0.00  0.00    +0.029 C 
ATOM      9  C   UNL     1       6.071  -8.684   2.761  0.00  0.00    -0.008 C 
ATOM     10  C   UNL     1       5.742 -10.068   2.197  0.00  0.00    +0.007 C 
ATOM     11  C   UNL     1       4.241 -10.330   2.333  0.00  0.00    -0.008 C 
ATOM     12  C   UNL     1       3.465  -9.265   1.555  0.00  0.00    +0.029 C 
ATOM     13  C   UNL     1       3.845 -10.274   3.809  0.00  0.00    +0.007 C 
ATOM     14  C   UNL     1       4.173  -8.890   4.373  0.00  0.00    -0.008 C 
ATOM     15  C   UNL     1       5.675  -8.628   4.238  0.00  0.00    +0.007 C 
ATOM     16  C   UNL     1       3.397  -7.825   3.596  0.00  0.00    +0.029 C 
ENDBRANCH   4   7
BRANCH   1  17
ATOM     17  N   UNL     1       1.651  -4.999  -0.034  0.00  0.00    -0.107 NA
ATOM     18  H   UNL     1       1.993  -5.536  -0.767  0.00  0.00    +0.172 HD
BRANCH  17  19
ATOM     19  S   UNL     1       0.063  -4.530  -0.023  0.00  0.00    +0.074 S 
ATOM     20  O   UNL     1      -0.476  -4.950   1.223  0.00  0.00    -0.152 OA
ATOM     21  O   UNL     1      -0.490  -4.937  -1.267  0.00  0.00    -0.152 OA
BRANCH  19  26
ATOM     22  C   UNL     1      -0.018   1.503   0.010  0.00  0.00    +0.044 C 
ATOM     23  C   UNL     1       0.002  -0.004   0.002  0.00  0.00    -0.050 A 
ATOM     24  C   UNL     1       0.006  -0.689  -1.199  0.00  0.00    +0.005 A 
ATOM     25  C   UNL     1       0.025  -2.071  -1.206  0.00  0.00    +0.029 A 
ATOM     26  C   UNL     1       0.040  -2.768  -0.013  0.00  0.00    +0.107 A 
ATOM     27  C   UNL     1       0.037  -2.084   1.188  0.00  0.00    +0.029 A 
ATOM     28  C   UNL     1       0.023  -0.702   1.195  0.00  0.00    +0.005 A 
ENDBRANCH  19  26
ENDBRANCH  17  19
ENDBRANCH   1  17
TORSDOF 4
