REMARK  Name = ZINC20312742
REMARK  4 active torsions:
REMARK  status: ('A' for Active; 'I' for Inactive)
REMARK    1  A    between atoms: C_1  and  C_2
REMARK    2  A    between atoms: C_2  and  C_3
REMARK    3  A    between atoms: C_2  and  C_4
REMARK    4  A    between atoms: C_2  and  C_17
REMARK                            x       y       z     vdW  Elec       q    Type
REMARK                         _______ _______ _______ _____ _____    ______ ____
ROOT
ATOM      1  C   UNL     1      -0.686   7.987   0.939  0.00  0.00    +0.030 C 
ATOM      2  C   UNL     1      -0.924   7.424  -0.464  0.00  0.00    +0.118 C 
ATOM      3  C   UNL     1       0.314   7.670  -1.329  0.00  0.00    +0.030 C 
ENDROOT
BRANCH   2   4
ATOM      4  C   UNL     1      -1.187   5.942  -0.373  0.00  0.00    +0.235 C 
ATOM      5  O   UNL     1      -1.239   5.401   0.712  0.00  0.00    -0.274 OA
ATOM      6  N   UNL     1      -1.364   5.219  -1.496  0.00  0.00    -0.260 N 
ATOM      7  C   UNL     1      -1.421   5.867  -2.815  0.00  0.00    +0.209 C 
ATOM      8  C   UNL     1      -2.521   5.234  -3.627  0.00  0.00    +0.235 C 
ATOM      9  O   UNL     1      -3.097   5.889  -4.470  0.00  0.00    -0.274 OA
ATOM     10  N   UNL     1      -2.873   3.950  -3.428  0.00  0.00    -0.283 N 
ATOM     11  C   UNL     1      -2.260   3.187  -2.428  0.00  0.00    +0.055 A 
ATOM     12  C   UNL     1      -1.500   3.823  -1.445  0.00  0.00    +0.058 A 
ATOM     13  C   UNL     1      -0.895   3.083  -0.446  0.00  0.00    +0.025 A 
ATOM     14  C   UNL     1      -1.047   1.707  -0.422  0.00  0.00    +0.002 A 
ATOM     15  C   UNL     1      -1.793   1.074  -1.400  0.00  0.00    +0.002 A 
ATOM     16  C   UNL     1      -2.402   1.809  -2.400  0.00  0.00    +0.025 A 
ATOM     17  H   UNL     1      -3.651   3.489  -4.055  0.00  0.00    +0.155 HD
ENDBRANCH   2   4
BRANCH   2  18
ATOM     18  C   UNL     1      -2.115   8.108  -1.085  0.00  0.00    +0.235 C 
ATOM     19  O   UNL     1      -1.978   8.764  -2.095  0.00  0.00    -0.274 OA
ATOM     20  N   UNL     1      -3.332   7.990  -0.517  0.00  0.00    -0.260 N 
ATOM     21  C   UNL     1      -3.504   7.305   0.773  0.00  0.00    +0.209 C 
ATOM     22  C   UNL     1      -4.737   6.440   0.709  0.00  0.00    +0.235 C 
ATOM     23  O   UNL     1      -4.798   5.433   1.383  0.00  0.00    -0.274 OA
ATOM     24  N   UNL     1      -5.771   6.771  -0.087  0.00  0.00    -0.283 N 
ATOM     25  C   UNL     1      -5.706   7.898  -0.913  0.00  0.00    +0.055 A 
ATOM     26  C   UNL     1      -4.474   8.522  -1.135  0.00  0.00    +0.058 A 
ATOM     27  C   UNL     1      -4.392   9.637  -1.949  0.00  0.00    +0.025 A 
ATOM     28  C   UNL     1      -5.537  10.141  -2.540  0.00  0.00    +0.002 A 
ATOM     29  C   UNL     1      -6.759   9.534  -2.319  0.00  0.00    +0.002 A 
ATOM     30  C   UNL     1      -6.848   8.406  -1.511  0.00  0.00    +0.025 A 
ATOM     31  H   UNL     1      -6.680   6.151  -0.094  0.00  0.00    +0.155 HD
ENDBRANCH   2  18
TORSDOF 2
