REMARK  Name = ZINC35982466
REMARK  13 active torsions:
REMARK  status: ('A' for Active; 'I' for Inactive)
REMARK    1  A    between atoms: C_1  and  C_2
REMARK    2  A    between atoms: C_2  and  O_3
REMARK    3  A    between atoms: O_3  and  C_4
REMARK    4  A    between atoms: C_4  and  C_6
REMARK    5  A    between atoms: C_7  and  C_32
REMARK    6  A    between atoms: C_8  and  C_31
REMARK    7  A    between atoms: C_10  and  N_11
REMARK    8  A    between atoms: C_12  and  C_14
REMARK    9  A    between atoms: C_17  and  O_29
REMARK   10  A    between atoms: C_18  and  S_20
REMARK   11  A    between atoms: S_20  and  N_23
REMARK   12  A    between atoms: N_23  and  C_24
REMARK   13  A    between atoms: O_29  and  C_30
REMARK                            x       y       z     vdW  Elec       q    Type
REMARK                         _______ _______ _______ _____ _____    ______ ____
ROOT
ATOM      1  C   UNL     1      -3.344  -2.681   4.920  0.00  0.00    +0.039 A 
ATOM      2  C   UNL     1      -2.078  -2.134   5.149  0.00  0.00    +0.017 A 
ATOM      3  C   UNL     1      -1.630  -1.954   6.438  0.00  0.00    +0.048 A 
ATOM      4  C   UNL     1      -2.435  -2.316   7.512  0.00  0.00    +0.146 A 
ATOM      5  C   UNL     1      -3.694  -2.861   7.290  0.00  0.00    +0.147 A 
ATOM      6  C   UNL     1      -4.152  -3.039   6.003  0.00  0.00    +0.045 A 
ENDROOT
BRANCH   1   8
ATOM      7  N   UNL     1      -3.047  -2.529   2.497  0.00  0.00    -0.275 N 
ATOM      8  C   UNL     1      -3.828  -2.875   3.540  0.00  0.00    +0.249 C 
ATOM      9  O   UNL     1      -4.931  -3.347   3.344  0.00  0.00    -0.270 OA
ATOM     10  H   UNL     1      -2.167  -2.153   2.654  0.00  0.00    +0.156 HD
BRANCH   7  15
ATOM     11  C   UNL     1      -2.842  -2.416   0.016  0.00  0.00    +0.091 A 
ATOM     12  C   UNL     1      -3.551  -2.715  -1.208  0.00  0.00    -0.025 A 
ATOM     13  C   UNL     1      -4.779  -3.243  -1.061  0.00  0.00    -0.008 A 
ATOM     14  S   UNL     1      -4.978  -3.337   0.705  0.00  0.00    -0.078 S 
ATOM     15  C   UNL     1      -3.502  -2.711   1.202  0.00  0.00    +0.087 A 
ATOM     16  C   UNL     1      -5.753  -3.656  -2.134  0.00  0.00    +0.052 C 
ATOM     17  C   UNL     1      -2.950  -2.450  -2.565  0.00  0.00    +0.045 C 
BRANCH  11  18
ATOM     18  C   UNL     1      -1.497  -1.838   0.006  0.00  0.00    +0.342 C 
ATOM     19  O   UNL     1      -0.522  -2.566  -0.007  0.00  0.00    -0.245 OA
BRANCH  18  20
ATOM     20  O   UNL     1      -1.339  -0.499   0.012  0.00  0.00    -0.461 OA
BRANCH  20  22
ATOM     21  C   UNL     1      -0.019   1.526   0.010  0.00  0.00    +0.048 C 
ATOM     22  C   UNL     1       0.002  -0.004   0.002  0.00  0.00    +0.229 C 
ENDBRANCH  20  22
ENDBRANCH  18  20
ENDBRANCH  11  18
ENDBRANCH   7  15
ENDBRANCH   1   8
BRANCH   5  23
ATOM     23  S   UNL     1      -4.708  -3.319   8.656  0.00  0.00    +0.062 S 
ATOM     24  O   UNL     1      -4.711  -2.213   9.548  0.00  0.00    -0.153 OA
ATOM     25  O   UNL     1      -5.903  -3.862   8.111  0.00  0.00    -0.153 OA
BRANCH  23  26
ATOM     26  N   UNL     1      -3.941  -4.559   9.442  0.00  0.00    -0.187 NA
ATOM     27  H   UNL     1      -4.345  -5.440   9.468  0.00  0.00    +0.148 HD
BRANCH  26  28
ATOM     28  C   UNL     1      -2.651  -4.324  10.096  0.00  0.00    +0.077 C 
ATOM     29  C   UNL     1      -1.500  -4.778   9.175  0.00  0.00    +0.020 C 
ATOM     30  C   UNL     1      -0.456  -5.386  10.143  0.00  0.00    +0.002 C 
ATOM     31  C   UNL     1      -1.339  -6.110  11.189  0.00  0.00    +0.002 C 
ATOM     32  C   UNL     1      -2.549  -5.171  11.377  0.00  0.00    +0.020 C 
ENDBRANCH  26  28
ENDBRANCH  23  26
ENDBRANCH   5  23
BRANCH   4  33
ATOM     33  O   UNL     1      -1.989  -2.138   8.782  0.00  0.00    -0.493 OA
ATOM     34  C   UNL     1      -0.686  -1.573   8.939  0.00  0.00    +0.277 C 
ENDBRANCH   4  33
TORSDOF 9
