REMARK  Name = ZINC14201917
REMARK  11 active torsions:
REMARK  status: ('A' for Active; 'I' for Inactive)
REMARK    1  A    between atoms: C_1  and  C_2
REMARK    2  A    between atoms: C_2  and  C_3
REMARK    3  A    between atoms: C_3  and  C_35
REMARK    4  A    between atoms: N_6  and  N_10
REMARK    5  A    between atoms: C_11  and  C_13
REMARK    6  A    between atoms: C_13  and  S_14
REMARK    7  A    between atoms: S_14  and  C_15
REMARK    8  A    between atoms: C_17  and  C_28
REMARK    9  A    between atoms: C_18  and  C_21
REMARK   10  A    between atoms: C_24  and  C_27
REMARK   11  A    between atoms: C_31  and  C_34
REMARK                            x       y       z     vdW  Elec       q    Type
REMARK                         _______ _______ _______ _____ _____    ______ ____
ROOT
ATOM      1  C   UNL     1      -5.218   0.872   0.032  0.00  0.00    +0.210 A 
ATOM      2  N   UNL     1      -6.463   1.331   0.045  0.00  0.00    -0.218 NA
ATOM      3  C   UNL     1      -7.478   0.470   0.041  0.00  0.00    +0.102 A 
ATOM      4  C   UNL     1      -7.190  -0.909   0.032  0.00  0.00    +0.119 A 
ATOM      5  N   UNL     1      -5.921  -1.301   0.024  0.00  0.00    -0.145 NA
ATOM      6  N   UNL     1      -4.970  -0.433   0.023  0.00  0.00    -0.122 NA
ENDROOT
BRANCH   4   7
ATOM      7  C   UNL     1      -8.286  -1.907   0.032  0.00  0.00    +0.004 A 
ATOM      8  C   UNL     1      -9.463  -1.654   0.736  0.00  0.00    +0.010 A 
ATOM      9  C   UNL     1     -10.482  -2.585   0.728  0.00  0.00    +0.004 A 
ATOM     10  C   UNL     1     -10.333  -3.771   0.032  0.00  0.00    -0.050 A 
ATOM     11  C   UNL     1      -9.165  -4.030  -0.664  0.00  0.00    +0.004 A 
ATOM     12  C   UNL     1      -8.142  -3.104  -0.667  0.00  0.00    +0.010 A 
ATOM     13  C   UNL     1     -11.447  -4.786   0.032  0.00  0.00    +0.044 C 
ENDBRANCH   4   7
BRANCH   3  14
ATOM     14  C   UNL     1      -8.880   0.952   0.051  0.00  0.00    +0.003 A 
ATOM     15  C   UNL     1      -9.865   0.252  -0.644  0.00  0.00    +0.010 A 
ATOM     16  C   UNL     1     -11.169   0.702  -0.628  0.00  0.00    +0.004 A 
ATOM     17  C   UNL     1     -11.498   1.851   0.068  0.00  0.00    -0.050 A 
ATOM     18  C   UNL     1     -10.524   2.553   0.756  0.00  0.00    +0.004 A 
ATOM     19  C   UNL     1      -9.217   2.110   0.750  0.00  0.00    +0.010 A 
ATOM     20  C   UNL     1     -12.923   2.341   0.078  0.00  0.00    +0.044 C 
ENDBRANCH   3  14
BRANCH   1  21
ATOM     21  S   UNL     1      -3.874   2.010   0.031  0.00  0.00    -0.075 S 
BRANCH  21  22
ATOM     22  C   UNL     1      -2.482   0.853   0.018  0.00  0.00    +0.174 C 
BRANCH  22  24
ATOM     23  N   UNL     1      -0.011   0.966   0.007  0.00  0.00    -0.223 N 
ATOM     24  C   UNL     1      -1.187   1.624   0.017  0.00  0.00    +0.240 C 
ATOM     25  O   UNL     1      -1.204   2.837   0.023  0.00  0.00    -0.273 OA
ATOM     26  H   UNL     1       0.002  -0.004   0.002  0.00  0.00    +0.174 HD
BRANCH  23  30
ATOM     27  C   UNL     1       3.157   2.667  -0.626  0.00  0.00    +0.111 C 
ATOM     28  C   UNL     1       1.983   1.824  -1.083  0.00  0.00    +0.263 C 
ATOM     29  O   UNL     1       1.794   1.371  -2.191  0.00  0.00    -0.271 OA
ATOM     30  N   UNL     1       1.193   1.683  -0.000  0.00  0.00    -0.137 N 
ATOM     31  C   UNL     1       1.702   2.307   1.067  0.00  0.00    +0.326 C 
ATOM     32  O   UNL     1       1.171   2.319   2.161  0.00  0.00    -0.251 OA
ATOM     33  N   UNL     1       2.868   2.921   0.796  0.00  0.00    -0.284 N 
ATOM     34  C   UNL     1       4.465   1.889  -0.779  0.00  0.00    +0.041 C 
ATOM     35  H   UNL     1       3.412   3.432   1.416  0.00  0.00    +0.151 HD
BRANCH  27  37
ATOM     36  C   UNL     1       4.349   4.851  -0.849  0.00  0.00    +0.006 C 
ATOM     37  C   UNL     1       3.220   3.982  -1.406  0.00  0.00    +0.032 C 
ENDBRANCH  27  37
ENDBRANCH  23  30
ENDBRANCH  22  24
ENDBRANCH  21  22
ENDBRANCH   1  21
TORSDOF 7
