REMARK  Name = ZINC38651767
REMARK  6 active torsions:
REMARK  status: ('A' for Active; 'I' for Inactive)
REMARK    1  A    between atoms: C_5  and  C_7
REMARK    2  A    between atoms: C_7  and  O_9
REMARK    3  A    between atoms: O_9  and  C_10
REMARK    4  A    between atoms: C_17  and  N_30
REMARK    5  A    between atoms: C_18  and  C_28
REMARK    6  A    between atoms: C_19  and  C_21
REMARK                            x       y       z     vdW  Elec       q    Type
REMARK                         _______ _______ _______ _____ _____    ______ ____
ROOT
ATOM      1  C   UNL     1       0.070  -4.213  -0.056  0.00  0.00    +0.135 A 
ATOM      2  C   UNL     1       1.257  -4.932  -0.029  0.00  0.00    +0.047 A 
ATOM      3  C   UNL     1       1.228  -6.312  -0.071  0.00  0.00    +0.012 A 
ATOM      4  C   UNL     1       0.020  -6.982  -0.140  0.00  0.00    +0.008 A 
ATOM      5  C   UNL     1      -1.168  -6.269  -0.168  0.00  0.00    +0.138 A 
ATOM      6  C   UNL     1      -1.141  -4.881  -0.120  0.00  0.00    +0.093 A 
ATOM      7  O   UNL     1      -2.362  -6.908  -0.236  0.00  0.00    -0.441 OA
ATOM      8  C   UNL     1      -2.417  -8.182  -0.659  0.00  0.00    +0.199 C 
ATOM      9  C   UNL     1      -1.326  -8.985  -0.660  0.00  0.00    +0.098 C 
ATOM     10  C   UNL     1       0.010  -8.488  -0.185  0.00  0.00    +0.098 C 
ENDROOT
BRANCH  10  11
ATOM     11  C   UNL     1       0.283  -9.030   1.194  0.00  0.00    -0.035 A 
ATOM     12  C   UNL     1      -0.571  -8.724   2.238  0.00  0.00    +0.005 A 
ATOM     13  C   UNL     1      -0.321  -9.222   3.503  0.00  0.00    +0.015 A 
ATOM     14  C   UNL     1       0.782 -10.026   3.725  0.00  0.00    +0.018 A 
ATOM     15  C   UNL     1       1.636 -10.331   2.680  0.00  0.00    +0.015 A 
ATOM     16  C   UNL     1       1.383  -9.838   1.414  0.00  0.00    +0.005 A 
ATOM     17 BR   UNL     1       1.124 -10.706   5.456  0.00  0.00    -0.050 Br
ENDBRANCH  10  11
BRANCH   8  18
ATOM     18  N   UNL     1      -3.614  -8.685  -1.103  0.00  0.00    -0.328 N 
ATOM     19  H   UNL     1      -4.405  -8.123  -1.108  0.00  0.00    +0.145 HD
ATOM     20  H   UNL     1      -3.670  -9.603  -1.411  0.00  0.00    +0.145 HD
ENDBRANCH   8  18
BRANCH   9  21
ATOM     21  C   UNL     1      -1.448 -10.334  -1.123  0.00  0.00    +0.101 C 
ATOM     22  N   UNL     1      -1.546 -11.405  -1.490  0.00  0.00    -0.191 NA
ENDBRANCH   9  21
BRANCH   1  23
ATOM     23  O   UNL     1       0.097  -2.854  -0.015  0.00  0.00    -0.422 OA
BRANCH  23  24
ATOM     24  C   UNL     1       0.420  -2.193  -1.143  0.00  0.00    +0.347 C 
ATOM     25  O   UNL     1       0.764  -2.811  -2.132  0.00  0.00    -0.244 OA
BRANCH  24  30
ATOM     26  C   UNL     1      -0.096   1.371  -0.086  0.00  0.00    +0.001 A 
ATOM     27  C   UNL     1       0.237   2.049  -1.246  0.00  0.00    +0.003 A 
ATOM     28  C   UNL     1       0.629   1.352  -2.374  0.00  0.00    +0.039 A 
ATOM     29  C   UNL     1       0.692  -0.030  -2.349  0.00  0.00    +0.137 A 
ATOM     30  C   UNL     1       0.357  -0.720  -1.179  0.00  0.00    +0.094 A 
ATOM     31  C   UNL     1      -0.038  -0.006  -0.045  0.00  0.00    +0.018 A 
ATOM     32  F   UNL     1       1.075  -0.711  -3.451  0.00  0.00    -0.205 F 
ENDBRANCH  24  30
ENDBRANCH  23  24
ENDBRANCH   1  23
TORSDOF 6
