REMARK  Name = ZINC42016450
REMARK  6 active torsions:
REMARK  status: ('A' for Active; 'I' for Inactive)
REMARK    1  A    between atoms: C_1  and  C_2
REMARK    2  A    between atoms: C_6  and  N_9
REMARK    3  A    between atoms: C_7  and  C_8
REMARK    4  A    between atoms: C_10  and  C_14
REMARK    5  A    between atoms: C_17  and  N_21
REMARK    6  A    between atoms: C_19  and  N_20
REMARK                            x       y       z     vdW  Elec       q    Type
REMARK                         _______ _______ _______ _____ _____    ______ ____
ROOT
ATOM      1  N   UNL     1       0.227  -2.644   2.217  0.00  0.00    -0.192 N 
ATOM      2  C   UNL     1       0.067  -3.995   2.331  0.00  0.00    +0.189 A 
ATOM      3  N   UNL     1       0.144  -4.282   3.615  0.00  0.00    -0.108 NA
ATOM      4  N   UNL     1       0.338  -3.216   4.304  0.00  0.00    -0.022 NA
ATOM      5  N   UNL     1       0.406  -2.185   3.534  0.00  0.00    -0.039 NA
ENDROOT
BRANCH   1  11
ATOM      6  C   UNL     1       2.311   0.802  -0.605  0.00  0.00    +0.044 C 
ATOM      7  C   UNL     1       1.218  -0.203  -0.351  0.00  0.00    -0.046 A 
ATOM      8  C   UNL     1       0.206  -0.373  -1.278  0.00  0.00    +0.004 A 
ATOM      9  C   UNL     1      -0.798  -1.295  -1.048  0.00  0.00    +0.002 A 
ATOM     10  C   UNL     1      -0.794  -2.049   0.109  0.00  0.00    +0.028 A 
ATOM     11  C   UNL     1       0.220  -1.881   1.042  0.00  0.00    +0.073 A 
ATOM     12  C   UNL     1       1.231  -0.959   0.805  0.00  0.00    -0.022 A 
ATOM     13  C   UNL     1       2.337  -0.777   1.812  0.00  0.00    +0.046 C 
ENDBRANCH   1  11
BRANCH   2  14
ATOM     14  C   UNL     1      -0.150  -4.951   1.227  0.00  0.00    +0.042 A 
ATOM     15  C   UNL     1       0.664  -4.910   0.094  0.00  0.00    +0.015 A 
ATOM     16  C   UNL     1       0.459  -5.802  -0.935  0.00  0.00    +0.023 A 
ATOM     17  C   UNL     1      -0.558  -6.749  -0.849  0.00  0.00    +0.026 A 
ATOM     18  C   UNL     1      -1.373  -6.799   0.274  0.00  0.00    +0.046 A 
ATOM     19  C   UNL     1      -1.172  -5.909   1.316  0.00  0.00    +0.037 A 
BRANCH  19  20
ATOM     20  N   UNL     1      -1.985  -5.960   2.446  0.00  0.00    -0.357 N 
ATOM     21  H   UNL     1      -1.802  -5.381   3.202  0.00  0.00    +0.142 HD
ATOM     22  H   UNL     1      -2.734  -6.576   2.477  0.00  0.00    +0.142 HD
ENDBRANCH  19  20
BRANCH  17  23
ATOM     23  N   UNL     1      -0.759  -7.649  -1.895  0.00  0.00    -0.358 N 
ATOM     24  H   UNL     1      -0.191  -7.615  -2.680  0.00  0.00    +0.142 HD
ATOM     25  H   UNL     1      -1.468  -8.309  -1.837  0.00  0.00    +0.142 HD
ENDBRANCH  17  23
ENDBRANCH   2  14
TORSDOF 4
