REMARK  Name = ZINC06198065
REMARK  9 active torsions:
REMARK  status: ('A' for Active; 'I' for Inactive)
REMARK    1  A    between atoms: C_1  and  C_2
REMARK    2  A    between atoms: C_2  and  C_3
REMARK    3  A    between atoms: C_10  and  C_15
REMARK    4  A    between atoms: C_15  and  C_17
REMARK    5  A    between atoms: C_15  and  N_66
REMARK    6  A    between atoms: N_21  and  C_22
REMARK    7  A    between atoms: C_22  and  C_23
REMARK    8  A    between atoms: C_30  and  N_66
REMARK    9  A    between atoms: C_31  and  N_66
REMARK                            x       y       z     vdW  Elec       q    Type
REMARK                         _______ _______ _______ _____ _____    ______ ____
ROOT
ATOM      1  C   UNL     1       1.339   3.056  -1.941  0.00  0.00    +0.039 C 
ENDROOT
BRANCH   1   9
ATOM      2  C   UNL     1       2.103  -1.904  -5.562  0.00  0.00    -0.047 A 
ATOM      3  C   UNL     1       3.447  -1.690  -5.838  0.00  0.00    +0.005 A 
ATOM      4  C   UNL     1       4.110  -0.604  -5.308  0.00  0.00    +0.026 A 
ATOM      5  C   UNL     1       3.427   0.288  -4.486  0.00  0.00    +0.049 A 
ATOM      6  C   UNL     1       2.065   0.067  -4.208  0.00  0.00    -0.001 A 
ATOM      7  C   UNL     1       1.413  -1.042  -4.758  0.00  0.00    +0.013 A 
ATOM      8  C   UNL     1       1.357   1.007  -3.338  0.00  0.00    +0.017 A 
ATOM      9  C   UNL     1       2.039   2.066  -2.837  0.00  0.00    +0.011 A 
ATOM     10  C   UNL     1       3.405   2.242  -3.146  0.00  0.00    +0.251 A 
ATOM     11  O   UNL     1       4.001   3.199  -2.682  0.00  0.00    -0.268 OA
ATOM     12  N   UNL     1       4.065   1.381  -3.941  0.00  0.00    -0.322 N 
ATOM     13  H   UNL     1       5.033   1.537  -4.139  0.00  0.00    +0.169 HD
BRANCH   2  15
ATOM     14  C   UNL     1       0.800  -2.717  -7.509  0.00  0.00    +0.009 C 
ATOM     15  C   UNL     1       1.401  -3.098  -6.154  0.00  0.00    +0.032 C 
ENDBRANCH   2  15
ENDBRANCH   1   9
BRANCH   1  16
ATOM     16  C   UNL     1       1.923   2.979  -0.554  0.00  0.00    +0.143 A 
ATOM     17  N   UNL     1       3.053   3.506  -0.151  0.00  0.00    -0.115 NA
ATOM     18  N   UNL     1       3.202   3.221   1.097  0.00  0.00    -0.023 NA
ATOM     19  N   UNL     1       2.194   2.530   1.501  0.00  0.00    -0.044 NA
ATOM     20  N   UNL     1       1.386   2.354   0.510  0.00  0.00    -0.226 N 
BRANCH  20  21
ATOM     21  C   UNL     1       0.119   1.619   0.540  0.00  0.00    +0.182 C 
BRANCH  21  22
ATOM     22  C   UNL     1      -0.976   2.527   1.038  0.00  0.00    -0.026 A 
ATOM     23  C   UNL     1      -1.240   2.613   2.392  0.00  0.00    +0.008 A 
ATOM     24  C   UNL     1      -2.241   3.448   2.850  0.00  0.00    +0.038 A 
ATOM     25  C   UNL     1      -2.987   4.191   1.951  0.00  0.00    +0.123 A 
ATOM     26  C   UNL     1      -2.726   4.100   0.594  0.00  0.00    +0.038 A 
ATOM     27  C   UNL     1      -1.721   3.268   0.139  0.00  0.00    +0.008 A 
ATOM     28  F   UNL     1      -3.969   5.005   2.397  0.00  0.00    -0.205 F 
ENDBRANCH  21  22
ENDBRANCH  20  21
ENDBRANCH   1  16
BRANCH   1  30
ATOM     29  C   UNL     1       0.910   5.412  -1.588  0.00  0.00    -0.094 C 
ATOM     30  N   UNL     1       1.549   4.418  -2.476  0.00  0.00    +0.389 N 
ATOM     31  H   UNL     1       2.557   4.608  -2.519  0.00  0.00    -0.080 HD
BRANCH  30  32
ATOM     32  C   UNL     1       0.982   4.519  -3.837  0.00  0.00    -0.068 C 
ATOM     33  C   UNL     1       1.391   5.863  -4.444  0.00  0.00    -0.015 C 
ATOM     34  C   UNL     1       0.830   5.974  -5.863  0.00  0.00    -0.002 C 
ATOM     35  C   UNL     1      -0.696   5.878  -5.817  0.00  0.00    -0.000 C 
ATOM     36  C   UNL     1      -1.105   4.534  -5.211  0.00  0.00    -0.002 C 
ATOM     37  C   UNL     1      -0.544   4.423  -3.791  0.00  0.00    -0.015 C 
ENDBRANCH  30  32
ENDBRANCH   1  30
TORSDOF 7
