REMARK  Name = ZINC57995474
REMARK  8 active torsions:
REMARK  status: ('A' for Active; 'I' for Inactive)
REMARK    1  A    between atoms: C_3  and  C_28
REMARK    2  A    between atoms: C_5  and  C_7
REMARK    3  A    between atoms: N_8  and  O_9
REMARK    4  A    between atoms: O_9  and  C_10
REMARK    5  A    between atoms: C_10  and  C_11
REMARK    6  A    between atoms: N_13  and  C_14
REMARK    7  A    between atoms: N_13  and  C_22
REMARK    8  A    between atoms: C_28  and  N_29
REMARK                            x       y       z     vdW  Elec       q    Type
REMARK                         _______ _______ _______ _____ _____    ______ ____
ROOT
ATOM      1  C   UNL     1       1.255  -2.164   0.068  0.00  0.00    +0.163 C 
ATOM      2  N   UNL     1       0.143  -2.836   0.147  0.00  0.00    -0.069 NA
ATOM      3  N   UNL     1       2.469  -2.818   0.195  0.00  0.00    -0.340 N 
ATOM      4  H   UNL     1       3.298  -2.317   0.136  0.00  0.00    +0.144 HD
ATOM      5  H   UNL     1       2.490  -3.776   0.342  0.00  0.00    +0.144 HD
ENDROOT
BRANCH   1  10
ATOM      6  C   UNL     1       0.098   1.250  -0.992  0.00  0.00    +0.001 A 
ATOM      7  C   UNL     1       1.160   2.034  -0.579  0.00  0.00    +0.002 A 
ATOM      8  C   UNL     1       2.252   1.458   0.044  0.00  0.00    -0.063 A 
ATOM      9  C   UNL     1       2.289   0.095   0.258  0.00  0.00    +0.013 A 
ATOM     10  C   UNL     1       1.222  -0.701  -0.157  0.00  0.00    +0.018 A 
ATOM     11  C   UNL     1       0.123  -0.114  -0.784  0.00  0.00    +0.011 A 
BRANCH   8  12
ATOM     12  C   UNL     1       3.405   2.320   0.491  0.00  0.00    -0.043 C 
BRANCH  12  13
ATOM     13  N   UNL     1       3.170   2.777   1.868  0.00  0.00    +0.382 N 
ATOM     14  C   UNL     1       1.988   3.647   1.898  0.00  0.00    -0.078 C 
ATOM     15  C   UNL     1       1.691   4.060   3.341  0.00  0.00    -0.019 C 
ATOM     16  C   UNL     1       2.897   4.814   3.909  0.00  0.00    -0.004 C 
ATOM     17  C   UNL     1       4.138   3.924   3.804  0.00  0.00    -0.019 C 
ATOM     18  C   UNL     1       4.345   3.516   2.344  0.00  0.00    -0.078 C 
ATOM     19  H   UNL     1       3.012   1.978   2.464  0.00  0.00    -0.081 HD
ENDBRANCH  12  13
ENDBRANCH   8  12
ENDBRANCH   1  10
BRANCH   2  20
ATOM     20  O   UNL     1      -1.097  -2.152   0.160  0.00  0.00    -0.383 OA
BRANCH  20  21
ATOM     21  C   UNL     1      -2.234  -3.014   0.250  0.00  0.00    +0.358 C 
BRANCH  21  22
ATOM     22  C   UNL     1      -3.492  -2.185   0.256  0.00  0.00    +0.256 C 
ATOM     23  O   UNL     1      -3.428  -0.983   0.103  0.00  0.00    -0.272 OA
ATOM     24  N   UNL     1      -4.689  -2.779   0.432  0.00  0.00    -0.291 N 
BRANCH  24  25
ATOM     25  C   UNL     1      -5.905  -1.966   0.516  0.00  0.00    +0.099 C 
ATOM     26  C   UNL     1      -6.064  -1.135  -0.768  0.00  0.00    +0.047 C 
ATOM     27  C   UNL     1      -7.148  -0.049  -0.564  0.00  0.00    +0.168 C 
ATOM     28  S   UNL     1      -7.069   0.265   1.246  0.00  0.00    -0.029 S 
ATOM     29  O   UNL     1      -8.312  -0.096   1.833  0.00  0.00    -0.174 OA
ATOM     30  O   UNL     1      -6.543   1.567   1.467  0.00  0.00    -0.174 OA
ATOM     31  C   UNL     1      -5.799  -0.983   1.717  0.00  0.00    +0.188 C 
ENDBRANCH  24  25
BRANCH  24  32
ATOM     32  C   UNL     1      -4.775  -4.237   0.540  0.00  0.00    +0.077 C 
ATOM     33  C   UNL     1      -5.652  -4.800  -0.597  0.00  0.00    +0.022 C 
ATOM     34  C   UNL     1      -6.427  -5.967   0.064  0.00  0.00    +0.002 C 
ATOM     35  C   UNL     1      -6.732  -5.417   1.479  0.00  0.00    +0.002 C 
ATOM     36  C   UNL     1      -5.461  -4.629   1.860  0.00  0.00    +0.022 C 
ENDBRANCH  24  32
ENDBRANCH  21  22
ENDBRANCH  20  21
ENDBRANCH   2  20
TORSDOF 8
