REMARK  Name = ZINC17221920
REMARK  5 active torsions:
REMARK  status: ('A' for Active; 'I' for Inactive)
REMARK    1  A    between atoms: C_1  and  C_2
REMARK    2  A    between atoms: C_7  and  N_8
REMARK    3  A    between atoms: C_9  and  C_11
REMARK    4  A    between atoms: C_11  and  C_12
REMARK    5  A    between atoms: N_17  and  N_18
REMARK                            x       y       z     vdW  Elec       q    Type
REMARK                         _______ _______ _______ _____ _____    ______ ____
ROOT
ATOM      1  C   UNL     1       3.561   1.750   0.110  0.00  0.00    +0.059 A 
ATOM      2  C   UNL     1       4.500   1.739   1.089  0.00  0.00    +0.072 A 
ATOM      3  S   UNL     1       5.581   3.046   0.527  0.00  0.00    -0.059 S 
ATOM      4  C   UNL     1       4.697   3.470  -0.906  0.00  0.00    +0.178 A 
ATOM      5  N   UNL     1       3.684   2.624  -0.868  0.00  0.00    -0.228 NA
ATOM      6  N   UNL     1       4.981   4.446  -1.848  0.00  0.00    -0.215 N 
ATOM      7  H   UNL     1       4.391   4.574  -2.607  0.00  0.00    +0.176 HD
ENDROOT
BRANCH   6   8
ATOM      8  N   UNL     1       6.030   5.185  -1.714  0.00  0.00    -0.175 NA
ATOM      9  C   UNL     1       6.248   6.174  -2.552  0.00  0.00    +0.152 C 
ATOM     10  C   UNL     1       5.467   6.519  -3.762  0.00  0.00    +0.028 A 
ATOM     11  C   UNL     1       4.343   5.962  -4.362  0.00  0.00    +0.012 A 
ATOM     12  C   UNL     1       3.834   6.522  -5.516  0.00  0.00    +0.001 A 
ATOM     13  C   UNL     1       4.440   7.636  -6.073  0.00  0.00    +0.002 A 
ATOM     14  C   UNL     1       5.555   8.197  -5.485  0.00  0.00    +0.024 A 
ATOM     15  C   UNL     1       6.083   7.646  -4.322  0.00  0.00    +0.043 A 
ATOM     16  N   UNL     1       7.176   8.006  -3.542  0.00  0.00    -0.280 N 
ATOM     17  C   UNL     1       7.318   7.184  -2.488  0.00  0.00    +0.269 C 
ATOM     18  O   UNL     1       8.181   7.259  -1.633  0.00  0.00    -0.268 OA
ATOM     19  H   UNL     1       7.759   8.757  -3.731  0.00  0.00    +0.155 HD
ENDBRANCH   6   8
BRANCH   1  20
ATOM     20  C   UNL     1       2.400   0.790   0.143  0.00  0.00    +0.152 C 
BRANCH  20  22
ATOM     21  N   UNL     1      -0.070   0.906   0.087  0.00  0.00    -0.285 N 
ATOM     22  C   UNL     1       1.107   1.561   0.072  0.00  0.00    +0.223 C 
ATOM     23  O   UNL     1       1.127   2.772   0.001  0.00  0.00    -0.275 OA
ATOM     24  H   UNL     1      -0.086  -0.064   0.060  0.00  0.00    +0.155 HD
BRANCH  21  31
ATOM     25  C   UNL     1      -2.423  -0.337  -0.921  0.00  0.00    +0.045 C 
ATOM     26  C   UNL     1      -2.442   1.055  -0.344  0.00  0.00    -0.029 A 
ATOM     27  C   UNL     1      -3.625   1.767  -0.294  0.00  0.00    +0.005 A 
ATOM     28  C   UNL     1      -3.643   3.044   0.236  0.00  0.00    +0.000 A 
ATOM     29  C   UNL     1      -2.477   3.613   0.717  0.00  0.00    +0.002 A 
ATOM     30  C   UNL     1      -1.293   2.905   0.674  0.00  0.00    +0.023 A 
ATOM     31  C   UNL     1      -1.270   1.624   0.137  0.00  0.00    +0.036 A 
ENDBRANCH  21  31
ENDBRANCH  20  22
ENDBRANCH   1  20
TORSDOF 4
