REMARK  Name = ZINC13152524
REMARK  11 active torsions:
REMARK  status: ('A' for Active; 'I' for Inactive)
REMARK    1  A    between atoms: C_1  and  C_2
REMARK    2  A    between atoms: C_2  and  O_4
REMARK    3  A    between atoms: O_4  and  C_5
REMARK    4  A    between atoms: C_9  and  C_35
REMARK    5  A    between atoms: C_12  and  C_13
REMARK    6  A    between atoms: C_12  and  C_14
REMARK    7  A    between atoms: C_17  and  C_33
REMARK    8  A    between atoms: C_17  and  O_34
REMARK    9  A    between atoms: C_18  and  C_20
REMARK   10  A    between atoms: C_20  and  O_21
REMARK   11  A    between atoms: O_21  and  C_22
REMARK                            x       y       z     vdW  Elec       q    Type
REMARK                         _______ _______ _______ _____ _____    ______ ____
ROOT
ATOM      1  C   UNL     1      -3.701  -5.385   0.300  0.00  0.00    +0.182 C 
ATOM      2  C   UNL     1      -2.238  -4.962   0.367  0.00  0.00    +0.046 C 
ATOM      3  C   UNL     1      -2.070  -3.595  -0.304  0.00  0.00    +0.011 C 
ATOM      4  C   UNL     1      -2.898  -2.545   0.428  0.00  0.00    -0.020 C 
ATOM      5  C   UNL     1      -4.368  -2.958   0.465  0.00  0.00    +0.005 C 
ATOM      6  C   UNL     1      -4.603  -4.366   0.993  0.00  0.00    +0.005 C 
ATOM      7  C   UNL     1      -4.427  -4.462   2.512  0.00  0.00    +0.015 C 
ATOM      8  C   UNL     1      -6.064  -4.791   0.724  0.00  0.00    +0.015 C 
ATOM      9  C   UNL     1      -4.941  -2.847  -0.955  0.00  0.00    +0.007 C 
ATOM     10  C   UNL     1      -4.886  -1.396  -1.431  0.00  0.00    +0.035 C 
ATOM     11  C   UNL     1      -3.446  -0.904  -1.490  0.00  0.00    +0.070 C 
ATOM     12  C   UNL     1      -2.725  -1.155  -0.182  0.00  0.00    +0.064 C 
ATOM     13  C   UNL     1      -2.708  -1.526  -2.675  0.00  0.00    +0.042 C 
ATOM     14  C   UNL     1      -2.338  -2.402   1.861  0.00  0.00    +0.012 C 
ENDROOT
BRANCH  11  15
ATOM     15  O   UNL     1      -3.483   0.524  -1.710  0.00  0.00    -0.388 OA
ATOM     16  H   UNL     1      -3.927   0.784  -2.529  0.00  0.00    +0.210 HD
ENDBRANCH  11  15
BRANCH   1  17
ATOM     17  O   UNL     1      -3.860  -6.681   0.943  0.00  0.00    -0.461 OA
BRANCH  17  19
ATOM     18  C   UNL     1      -3.872  -9.143   0.762  0.00  0.00    +0.136 C 
ATOM     19  C   UNL     1      -3.721  -7.767   0.167  0.00  0.00    +0.304 C 
ATOM     20  O   UNL     1      -3.476  -7.642  -1.010  0.00  0.00    -0.251 OA
ENDBRANCH  17  19
ENDBRANCH   1  17
BRANCH  12  21
ATOM     21  C   UNL     1      -1.238  -0.818  -0.333  0.00  0.00    +0.236 C 
BRANCH  21  22
ATOM     22  O   UNL     1      -1.090   0.582  -0.578  0.00  0.00    -0.491 OA
BRANCH  22  23
ATOM     23  C   UNL     1       0.175   1.049  -0.736  0.00  0.00    +0.124 A 
ATOM     24  C   UNL     1       1.252   0.169  -0.656  0.00  0.00    +0.046 A 
ATOM     25  C   UNL     1       2.529   0.622  -0.819  0.00  0.00    +0.015 A 
ATOM     26  C   UNL     1       2.759   1.981  -1.063  0.00  0.00    +0.018 A 
ATOM     27  C   UNL     1       4.118   2.496  -1.241  0.00  0.00    +0.018 A 
ATOM     28  C   UNL     1       4.275   3.825  -1.474  0.00  0.00    +0.092 A 
ATOM     29  C   UNL     1       3.144   4.665  -1.538  0.00  0.00    +0.337 A 
ATOM     30  O   UNL     1       3.300   5.854  -1.748  0.00  0.00    -0.245 OA
ATOM     31  O   UNL     1       1.901   4.186  -1.374  0.00  0.00    -0.422 OA
ATOM     32  C   UNL     1       1.675   2.876  -1.140  0.00  0.00    +0.143 A 
ATOM     33  C   UNL     1       0.384   2.398  -0.972  0.00  0.00    +0.092 A 
ENDBRANCH  22  23
ENDBRANCH  21  22
ENDBRANCH  12  21
TORSDOF 6
