REMARK  Name = ZINC06724351
REMARK  12 active torsions:
REMARK  status: ('A' for Active; 'I' for Inactive)
REMARK    1  A    between atoms: C_1  and  C_2
REMARK    2  A    between atoms: C_2  and  N_3
REMARK    3  A    between atoms: C_5  and  C_12
REMARK    4  A    between atoms: C_12  and  C_14
REMARK    5  A    between atoms: C_12  and  C_23
REMARK    6  A    between atoms: C_14  and  C_15
REMARK    7  A    between atoms: N_17  and  C_18
REMARK    8  A    between atoms: C_18  and  C_19
REMARK    9  A    between atoms: C_19  and  C_20
REMARK   10  A    between atoms: C_20  and  C_21
REMARK   11  A    between atoms: C_20  and  C_22
REMARK   12  A    between atoms: C_26  and  C_29
REMARK                            x       y       z     vdW  Elec       q    Type
REMARK                         _______ _______ _______ _____ _____    ______ ____
ROOT
ATOM      1  C   UNL     1       1.649   3.289   0.004  0.00  0.00    +0.060 C 
ENDROOT
BRANCH   1   4
ATOM      2  N   UNL     1       0.002  -0.004   0.002  0.00  0.00    -0.347 N 
ATOM      3  C   UNL     1      -0.017   1.364   0.009  0.00  0.00    +0.091 A 
ATOM      4  C   UNL     1       1.239   1.839   0.000  0.00  0.00    -0.014 A 
ATOM      5  C   UNL     1       2.135   0.680  -0.015  0.00  0.00    +0.004 A 
ATOM      6  C   UNL     1       1.303  -0.455  -0.013  0.00  0.00    +0.049 A 
ATOM      7  C   UNL     1       1.878  -1.721  -0.026  0.00  0.00    +0.026 A 
ATOM      8  C   UNL     1       3.250  -1.850  -0.040  0.00  0.00    +0.002 A 
ATOM      9  C   UNL     1       4.066  -0.727  -0.043  0.00  0.00    +0.001 A 
ATOM     10  C   UNL     1       3.522   0.527  -0.030  0.00  0.00    +0.010 A 
BRANCH   2  12
ATOM     11  C   UNL     1      -1.512  -1.271   1.446  0.00  0.00    +0.027 C 
ATOM     12  C   UNL     1      -1.185  -0.862   0.008  0.00  0.00    +0.118 C 
ENDBRANCH   2  12
ENDBRANCH   1   4
BRANCH   1  13
ATOM     13  C   UNL     1       1.114   3.959   1.243  0.00  0.00    -0.039 A 
ATOM     14  C   UNL     1      -0.248   4.002   1.472  0.00  0.00    +0.004 A 
ATOM     15  C   UNL     1      -0.739   4.612   2.611  0.00  0.00    +0.003 A 
ATOM     16  C   UNL     1       0.133   5.190   3.516  0.00  0.00    -0.050 A 
ATOM     17  C   UNL     1       1.495   5.152   3.284  0.00  0.00    +0.003 A 
ATOM     18  C   UNL     1       1.986   4.537   2.147  0.00  0.00    +0.004 A 
ATOM     19  C   UNL     1      -0.402   5.861   4.755  0.00  0.00    +0.044 C 
ENDBRANCH   1  13
BRANCH   1  20
ATOM     20  C   UNL     1       1.081   3.982  -1.237  0.00  0.00    +0.108 C 
BRANCH  20  21
ATOM     21  C   UNL     1       1.710   3.393  -2.473  0.00  0.00    +0.214 C 
ATOM     22  O   UNL     1       2.531   2.506  -2.373  0.00  0.00    -0.276 OA
ATOM     23  N   UNL     1       1.359   3.853  -3.691  0.00  0.00    -0.315 N 
ATOM     24  H   UNL     1       0.703   4.562  -3.772  0.00  0.00    +0.149 HD
BRANCH  23  25
ATOM     25  C   UNL     1       1.970   3.280  -4.893  0.00  0.00    +0.104 C 
BRANCH  25  26
ATOM     26  C   UNL     1       1.403   3.973  -6.133  0.00  0.00    +0.022 C 
BRANCH  26  27
ATOM     27  C   UNL     1       2.041   3.375  -7.389  0.00  0.00    -0.016 C 
ATOM     28  C   UNL     1       1.384   3.979  -8.632  0.00  0.00    +0.007 C 
ATOM     29  C   UNL     1       3.538   3.689  -7.399  0.00  0.00    +0.007 C 
ENDBRANCH  26  27
ENDBRANCH  25  26
ENDBRANCH  23  25
ENDBRANCH  20  21
ENDBRANCH   1  20
TORSDOF 8
