REMARK  Name = ZINC05605184
REMARK  2 active torsions:
REMARK  status: ('A' for Active; 'I' for Inactive)
REMARK    1  A    between atoms: N_10  and  C_13
REMARK    2  A    between atoms: N_26  and  O_27
REMARK                            x       y       z     vdW  Elec       q    Type
REMARK                         _______ _______ _______ _____ _____    ______ ____
ROOT
ATOM      1  C   UNL     1       1.171  -5.759  -1.990  0.00  0.00    +0.105 C 
ATOM      2  C   UNL     1      -0.062  -6.618  -1.704  0.00  0.00    +0.025 C 
ATOM      3  C   UNL     1      -0.990  -6.600  -2.921  0.00  0.00    +0.002 C 
ATOM      4  C   UNL     1      -1.361  -8.035  -3.300  0.00  0.00    +0.000 C 
ATOM      5  C   UNL     1      -1.052  -8.267  -4.780  0.00  0.00    +0.000 C 
ATOM      6  C   UNL     1      -0.146  -9.491  -4.926  0.00  0.00    +0.000 C 
ATOM      7  C   UNL     1       1.079  -9.122  -5.765  0.00  0.00    +0.000 C 
ATOM      8  C   UNL     1       2.351  -9.514  -5.010  0.00  0.00    +0.000 C 
ATOM      9  C   UNL     1       3.259  -8.291  -4.872  0.00  0.00    +0.000 C 
ATOM     10  C   UNL     1       3.647  -8.106  -3.404  0.00  0.00    +0.006 C 
ATOM     11  C   UNL     1       3.410  -6.652  -2.992  0.00  0.00    +0.056 C 
ATOM     12  C   UNL     1       2.412  -6.605  -1.864  0.00  0.00    +0.074 C 
ATOM     13  N   UNL     1       2.619  -7.283  -0.799  0.00  0.00    -0.095 NA
ENDROOT
BRANCH   1  23
ATOM     14  C   UNL     1      -0.017   1.379  -0.013  0.00  0.00    +0.005 A 
ATOM     15  C   UNL     1       1.195   2.058   0.002  0.00  0.00    +0.018 A 
ATOM     16  C   UNL     1       2.373   1.339   0.009  0.00  0.00    +0.084 A 
ATOM     17  N   UNL     1       2.361   0.020   0.001  0.00  0.00    -0.350 N 
ATOM     18  C   UNL     1       1.227  -0.664  -0.014  0.00  0.00    +0.099 A 
ATOM     19  C   UNL     1       0.002  -0.004  -0.021  0.00  0.00    +0.042 A 
ATOM     20  N   UNL     1       1.260  -2.054  -0.022  0.00  0.00    -0.314 N 
ATOM     21  C   UNL     1       2.535  -2.777  -0.142  0.00  0.00    +0.122 C 
ATOM     22  C   UNL     1       2.407  -3.805  -1.271  0.00  0.00    +0.104 C 
ATOM     23  N   UNL     1       1.232  -4.653  -1.026  0.00  0.00    -0.291 NA
ATOM     24  C   UNL     1      -0.007  -3.865  -1.049  0.00  0.00    +0.104 C 
ATOM     25  C   UNL     1       0.023  -2.839   0.095  0.00  0.00    +0.122 C 
ATOM     26  H   UNL     1       3.203  -0.461   0.006  0.00  0.00    +0.166 HD
ENDBRANCH   1  23
BRANCH  13  27
ATOM     27  O   UNL     1       3.784  -8.078  -0.680  0.00  0.00    -0.409 OA
ATOM     28  H   UNL     1       3.853  -8.553   0.159  0.00  0.00    +0.328 HD
ENDBRANCH  13  27
TORSDOF 2
