REMARK  Name = ZINC12564072
REMARK  11 active torsions:
REMARK  status: ('A' for Active; 'I' for Inactive)
REMARK    1  A    between atoms: C_1  and  C_2
REMARK    2  A    between atoms: C_2  and  C_3
REMARK    3  A    between atoms: C_2  and  N_4
REMARK    4  A    between atoms: N_12  and  N_13
REMARK    5  A    between atoms: N_13  and  C_14
REMARK    6  A    between atoms: C_17  and  N_32
REMARK    7  A    between atoms: C_19  and  S_20
REMARK    8  A    between atoms: S_20  and  N_23
REMARK    9  A    between atoms: N_23  and  C_24
REMARK   10  A    between atoms: C_29  and  O_30
REMARK   11  A    between atoms: O_30  and  C_31
REMARK                            x       y       z     vdW  Elec       q    Type
REMARK                         _______ _______ _______ _____ _____    ______ ____
ROOT
ATOM      1  C   UNL     1      -6.916  -1.426   1.496  0.00  0.00    +0.075 A 
ATOM      2  C   UNL     1      -7.004  -0.722   2.691  0.00  0.00    +0.029 A 
ATOM      3  C   UNL     1      -8.212  -0.639   3.354  0.00  0.00    +0.035 A 
ATOM      4  C   UNL     1      -9.334  -1.257   2.831  0.00  0.00    +0.128 A 
ATOM      5  C   UNL     1      -9.250  -1.959   1.643  0.00  0.00    +0.063 A 
ATOM      6  C   UNL     1      -8.046  -2.040   0.970  0.00  0.00    +0.135 A 
ENDROOT
BRANCH   6   7
ATOM      7  S   UNL     1      -7.942  -2.928  -0.548  0.00  0.00    +0.094 S 
ATOM      8  O   UNL     1      -6.820  -3.793  -0.437  0.00  0.00    -0.148 OA
ATOM      9  O   UNL     1      -9.249  -3.409  -0.828  0.00  0.00    -0.148 OA
BRANCH   7  10
ATOM     10  N   UNL     1      -7.577  -1.830  -1.733  0.00  0.00    -0.094 NA
BRANCH  10  11
ATOM     11  C   UNL     1      -7.431  -2.254  -3.059  0.00  0.00    +0.116 A 
ATOM     12  C   UNL     1      -7.596  -3.593  -3.383  0.00  0.00    +0.030 A 
ATOM     13  C   UNL     1      -7.452  -4.009  -4.693  0.00  0.00    +0.002 A 
ATOM     14  C   UNL     1      -7.142  -3.094  -5.683  0.00  0.00    +0.004 A 
ATOM     15  C   UNL     1      -6.976  -1.758  -5.367  0.00  0.00    +0.047 A 
ATOM     16  C   UNL     1      -7.124  -1.332  -4.057  0.00  0.00    +0.144 A 
BRANCH  16  17
ATOM     17  O   UNL     1      -6.966  -0.018  -3.746  0.00  0.00    -0.493 OA
ATOM     18  C   UNL     1      -6.652   0.871  -4.821  0.00  0.00    +0.277 C 
ENDBRANCH  16  17
ENDBRANCH  10  11
ENDBRANCH   7  10
ENDBRANCH   6   7
BRANCH   4  19
ATOM     19  N   UNL     1     -10.627  -1.167   3.545  0.00  0.00    +0.056 N 
ATOM     20  O   UNL     1     -10.703  -0.553   4.584  0.00  0.00    -0.126 OA
ATOM     21  O   UNL     1     -11.609  -1.706   3.089  0.00  0.00    -0.126 OA
ENDBRANCH   4  19
BRANCH   1  22
ATOM     22  N   UNL     1      -5.697  -1.511   0.823  0.00  0.00    -0.235 N 
ATOM     23  H   UNL     1      -5.637  -2.000  -0.013  0.00  0.00    +0.174 HD
BRANCH  22  32
ATOM     24  N   UNL     1      -1.324  -0.672   0.094  0.00  0.00    -0.263 N 
ATOM     25  C   UNL     1      -1.933  -1.264  -1.007  0.00  0.00    +0.046 A 
ATOM     26  C   UNL     1      -1.429  -1.654  -2.243  0.00  0.00    +0.024 A 
ATOM     27  C   UNL     1      -2.263  -2.230  -3.180  0.00  0.00    +0.002 A 
ATOM     28  C   UNL     1      -3.606  -2.426  -2.903  0.00  0.00    +0.001 A 
ATOM     29  C   UNL     1      -4.123  -2.045  -1.681  0.00  0.00    +0.012 A 
ATOM     30  C   UNL     1      -3.291  -1.464  -0.731  0.00  0.00    +0.028 A 
ATOM     31  C   UNL     1      -3.518  -0.955   0.641  0.00  0.00    +0.153 C 
ATOM     32  N   UNL     1      -4.648  -0.940   1.312  0.00  0.00    -0.177 NA
ATOM     33  C   UNL     1      -2.202  -0.472   1.092  0.00  0.00    +0.272 C 
ATOM     34  O   UNL     1      -1.954   0.023   2.176  0.00  0.00    -0.268 OA
BRANCH  24  36
ATOM     35  C   UNL     1       0.234   1.189   0.396  0.00  0.00    +0.028 C 
ATOM     36  C   UNL     1       0.096  -0.317   0.161  0.00  0.00    +0.076 C 
ATOM     37  C   UNL     1       0.758  -1.076   1.312  0.00  0.00    +0.028 C 
ENDBRANCH  24  36
ENDBRANCH  22  32
ENDBRANCH   1  22
TORSDOF 8
