REMARK  Name = ZINC63249898
REMARK  13 active torsions:
REMARK  status: ('A' for Active; 'I' for Inactive)
REMARK    1  A    between atoms: C_1  and  C_2
REMARK    2  A    between atoms: C_7  and  C_14
REMARK    3  A    between atoms: C_14  and  N_15
REMARK    4  A    between atoms: N_15  and  C_16
REMARK    5  A    between atoms: C_19  and  C_23
REMARK    6  A    between atoms: C_20  and  C_22
REMARK    7  A    between atoms: C_24  and  C_26
REMARK    8  A    between atoms: C_28  and  O_36
REMARK    9  A    between atoms: C_29  and  O_34
REMARK   10  A    between atoms: C_30  and  O_32
REMARK   11  A    between atoms: O_32  and  C_33
REMARK   12  A    between atoms: O_34  and  C_35
REMARK   13  A    between atoms: O_36  and  C_37
REMARK                            x       y       z     vdW  Elec       q    Type
REMARK                         _______ _______ _______ _____ _____    ______ ____
ROOT
ATOM      1  N   UNL     1       4.530  -0.550   3.930  0.00  0.00    -0.266 N 
ATOM      2  C   UNL     1       4.214  -1.686   3.277  0.00  0.00    +0.251 C 
ATOM      3  O   UNL     1       4.896  -2.682   3.424  0.00  0.00    -0.270 OA
ENDROOT
BRANCH   1   4
ATOM      4  C   UNL     1       5.593  -0.539   4.839  0.00  0.00    +0.037 A 
ATOM      5  C   UNL     1       5.366  -0.825   6.179  0.00  0.00    +0.024 A 
ATOM      6  C   UNL     1       6.418  -0.813   7.074  0.00  0.00    +0.005 A 
ATOM      7  C   UNL     1       7.696  -0.517   6.637  0.00  0.00    -0.047 A 
ATOM      8  C   UNL     1       7.926  -0.231   5.303  0.00  0.00    -0.046 A 
ATOM      9  C   UNL     1       6.879  -0.246   4.402  0.00  0.00    +0.027 A 
ATOM     10  C   UNL     1       9.320   0.093   4.832  0.00  0.00    +0.044 C 
ATOM     11  C   UNL     1       8.842  -0.505   7.616  0.00  0.00    +0.044 C 
ENDBRANCH   1   4
BRANCH   2  12
ATOM     12  C   UNL     1       3.039  -1.721   2.385  0.00  0.00    +0.044 A 
ATOM     13  C   UNL     1       2.967  -0.857   1.289  0.00  0.00    +0.062 A 
ATOM     14  C   UNL     1       1.866  -0.893   0.454  0.00  0.00    +0.166 A 
ATOM     15  C   UNL     1       0.830  -1.788   0.704  0.00  0.00    +0.204 A 
ATOM     16  C   UNL     1       0.899  -2.650   1.795  0.00  0.00    +0.166 A 
ATOM     17  C   UNL     1       2.001  -2.623   2.630  0.00  0.00    +0.062 A 
BRANCH  16  18
ATOM     18  O   UNL     1      -0.115  -3.523   2.037  0.00  0.00    -0.491 OA
ATOM     19  C   UNL     1       0.022  -4.378   3.174  0.00  0.00    +0.277 C 
ENDBRANCH  16  18
BRANCH  15  20
ATOM     20  O   UNL     1      -0.251  -1.821  -0.119  0.00  0.00    -0.488 OA
ATOM     21  C   UNL     1      -0.189  -2.709  -1.237  0.00  0.00    +0.277 C 
ENDBRANCH  15  20
BRANCH  14  22
ATOM     22  O   UNL     1       1.795  -0.052  -0.613  0.00  0.00    -0.491 OA
ATOM     23  C   UNL     1       2.744   1.015  -0.662  0.00  0.00    +0.277 C 
ENDBRANCH  14  22
ENDBRANCH   2  12
BRANCH   1  24
ATOM     24  C   UNL     1       3.761   0.673   3.688  0.00  0.00    +0.131 C 
BRANCH  24  31
ATOM     25  C   UNL     1       2.054   7.896   4.747  0.00  0.00    +0.044 C 
ATOM     26  C   UNL     1       2.368   6.430   4.902  0.00  0.00    -0.049 A 
ATOM     27  C   UNL     1       1.603   5.671   5.788  0.00  0.00    +0.004 A 
ATOM     28  C   UNL     1       1.838   4.346   5.970  0.00  0.00    +0.010 A 
ATOM     29  C   UNL     1       2.918   3.711   5.215  0.00  0.00    -0.007 A 
ATOM     30  C   UNL     1       3.190   2.383   5.364  0.00  0.00    -0.003 C 
ATOM     31  C   UNL     1       4.327   1.809   4.542  0.00  0.00    +0.116 C 
ATOM     32  C   UNL     1       5.066   2.755   3.622  0.00  0.00    +0.226 C 
ATOM     33  O   UNL     1       5.986   2.348   2.939  0.00  0.00    -0.275 OA
ATOM     34  N   UNL     1       4.708   4.027   3.564  0.00  0.00    -0.284 N 
ATOM     35  C   UNL     1       3.709   4.536   4.285  0.00  0.00    +0.041 A 
ATOM     36  C   UNL     1       3.380   5.899   4.168  0.00  0.00    +0.027 A 
ATOM     37  H   UNL     1       5.195   4.617   2.968  0.00  0.00    +0.155 HD
ENDBRANCH  24  31
ENDBRANCH   1  24
TORSDOF 7
