REMARK  Name = ZINC11789214
REMARK  8 active torsions:
REMARK  status: ('A' for Active; 'I' for Inactive)
REMARK    1  A    between atoms: C_5  and  C_7
REMARK    2  A    between atoms: C_7  and  C_8
REMARK    3  A    between atoms: C_8  and  N_59
REMARK    4  A    between atoms: C_9  and  N_59
REMARK    5  A    between atoms: N_20  and  C_23
REMARK    6  A    between atoms: C_23  and  C_24
REMARK    7  A    between atoms: C_24  and  C_25
REMARK    8  A    between atoms: C_25  and  C_26
REMARK                            x       y       z     vdW  Elec       q    Type
REMARK                         _______ _______ _______ _____ _____    ______ ____
ROOT
ATOM      1  C   UNL     1      -3.266   3.749   2.809  0.00  0.00    -0.067 C 
ATOM      2  C   UNL     1      -4.198   4.961   2.725  0.00  0.00    -0.011 C 
ATOM      3  C   UNL     1      -4.353   5.593   4.109  0.00  0.00    +0.035 C 
ATOM      4  C   UNL     1      -4.773   4.513   5.102  0.00  0.00    -0.023 A 
ATOM      5  C   UNL     1      -4.588   3.203   4.812  0.00  0.00    -0.006 A 
ATOM      6  S   UNL     1      -5.209   2.324   6.223  0.00  0.00    -0.073 S 
ATOM      7  C   UNL     1      -5.713   3.708   7.195  0.00  0.00    +0.116 A 
ATOM      8  C   UNL     1      -5.380   4.816   6.385  0.00  0.00    +0.076 A 
ATOM      9  C   UNL     1      -5.673   6.119   6.912  0.00  0.00    +0.262 A 
ATOM     10  O   UNL     1      -5.425   7.140   6.293  0.00  0.00    -0.267 OA
ATOM     11  N   UNL     1      -6.242   6.142   8.140  0.00  0.00    -0.299 N 
ATOM     12  C   UNL     1      -6.526   5.020   8.844  0.00  0.00    +0.203 A 
ATOM     13  N   UNL     1      -6.273   3.810   8.396  0.00  0.00    -0.230 NA
ATOM     14  C   UNL     1      -3.988   2.626   3.568  0.00  0.00    +0.027 C 
ENDROOT
BRANCH   1  15
ATOM     15  N   UNL     1      -2.936   3.293   1.446  0.00  0.00    +0.381 N 
ATOM     16  H   UNL     1      -3.675   2.664   1.110  0.00  0.00    -0.086 HD
ATOM     17  H   UNL     1      -2.870   4.107   0.823  0.00  0.00    -0.086 HD
BRANCH  15  18
ATOM     18  C   UNL     1      -1.648   2.574   1.444  0.00  0.00    -0.077 C 
BRANCH  18  19
ATOM     19  C   UNL     1      -1.332   2.114   0.020  0.00  0.00    +0.019 C 
BRANCH  19  24
ATOM     20  C   UNL     1       1.208  -0.679  -0.013  0.00  0.00    +0.000 A 
ATOM     21  C   UNL     1       2.397   0.027  -0.021  0.00  0.00    +0.003 A 
ATOM     22  C   UNL     1       2.381   1.408  -0.013  0.00  0.00    +0.038 A 
ATOM     23  C   UNL     1       1.173   2.086   0.002  0.00  0.00    +0.126 A 
ATOM     24  C   UNL     1      -0.017   1.378   0.010  0.00  0.00    -0.014 A 
ATOM     25  C   UNL     1       0.002  -0.004   0.002  0.00  0.00    +0.006 A 
ATOM     26  F   UNL     1       1.156   3.437   0.009  0.00  0.00    -0.205 F 
ENDBRANCH  19  24
ENDBRANCH  18  19
ENDBRANCH  15  18
ENDBRANCH   1  15
BRANCH  11  27
ATOM     27  C   UNL     1      -6.566   7.441   8.735  0.00  0.00    +0.126 C 
BRANCH  27  28
ATOM     28  C   UNL     1      -5.371   7.942   9.548  0.00  0.00    +0.026 C 
BRANCH  28  29
ATOM     29  C   UNL     1      -5.710   9.298  10.170  0.00  0.00    +0.037 C 
BRANCH  29  30
ATOM     30  C   UNL     1      -4.532   9.792  10.970  0.00  0.00    -0.044 A 
ATOM     31  C   UNL     1      -4.407   9.479  12.315  0.00  0.00    +0.023 A 
ATOM     32  C   UNL     1      -3.311   9.946  13.016  0.00  0.00    +0.111 A 
ATOM     33  N   UNL     1      -2.397  10.688  12.423  0.00  0.00    -0.263 NA
ATOM     34  C   UNL     1      -2.485  11.009  11.146  0.00  0.00    +0.111 A 
ATOM     35  C   UNL     1      -3.551  10.574  10.381  0.00  0.00    +0.023 A 
ENDBRANCH  29  30
ENDBRANCH  28  29
ENDBRANCH  27  28
ENDBRANCH  11  27
TORSDOF 8
