REMARK  Name = ZINC63485918
REMARK  10 active torsions:
REMARK  status: ('A' for Active; 'I' for Inactive)
REMARK    1  A    between atoms: C_1  and  C_2
REMARK    2  A    between atoms: C_7  and  O_31
REMARK    3  A    between atoms: C_13  and  C_15
REMARK    4  A    between atoms: C_15  and  C_16
REMARK    5  A    between atoms: N_18  and  C_19
REMARK    6  A    between atoms: C_19  and  C_20
REMARK    7  A    between atoms: C_20  and  C_21
REMARK    8  A    between atoms: O_31  and  C_32
REMARK    9  A    between atoms: C_32  and  C_33
REMARK   10  A    between atoms: C_33  and  C_35
REMARK                            x       y       z     vdW  Elec       q    Type
REMARK                         _______ _______ _______ _____ _____    ______ ____
ROOT
ATOM      1  C   UNL     1       2.021   0.300   1.454  0.00  0.00    +0.111 C 
ENDROOT
BRANCH   1  13
ATOM      2  C   UNL     1      -0.019   1.526   0.010  0.00  0.00    +0.013 C 
ATOM      3  C   UNL     1       0.002  -0.004   0.002  0.00  0.00    +0.034 C 
ATOM      4  C   UNL     1       0.705  -0.489  -1.241  0.00  0.00    -0.001 A 
ATOM      5  C   UNL     1       0.474   0.181  -2.433  0.00  0.00    +0.011 A 
ATOM      6  C   UNL     1       1.090  -0.230  -3.597  0.00  0.00    +0.046 A 
ATOM      7  C   UNL     1       1.945  -1.323  -3.580  0.00  0.00    +0.124 A 
ATOM      8  C   UNL     1       2.180  -1.994  -2.391  0.00  0.00    +0.092 A 
ATOM      9  C   UNL     1       1.562  -1.575  -1.218  0.00  0.00    +0.139 A 
ATOM     10  O   UNL     1       1.836  -2.249  -0.069  0.00  0.00    -0.425 OA
ATOM     11  C   UNL     1       1.083  -1.967   1.014  0.00  0.00    +0.316 C 
ATOM     12  O   UNL     1       0.701  -2.835   1.762  0.00  0.00    -0.250 OA
ATOM     13  C   UNL     1       0.740  -0.510   1.245  0.00  0.00    +0.114 C 
BRANCH   7  14
ATOM     14  O   UNL     1       2.550  -1.734  -4.725  0.00  0.00    -0.488 OA
BRANCH  14  15
ATOM     15  C   UNL     1       2.260  -0.994  -5.913  0.00  0.00    +0.259 C 
BRANCH  15  16
ATOM     16  C   UNL     1       3.015  -1.591  -7.073  0.00  0.00    -0.043 C 
ATOM     17  C   UNL     1       3.788  -2.632  -6.886  0.00  0.00    +0.011 C 
ATOM     18  C   UNL     1       2.880  -0.990  -8.449  0.00  0.00    +0.042 C 
ENDBRANCH  15  16
ENDBRANCH  14  15
ENDBRANCH   7  14
ENDBRANCH   1  13
BRANCH   1  19
ATOM     19  C   UNL     1       2.676  -0.121   2.744  0.00  0.00    +0.214 C 
ATOM     20  O   UNL     1       2.169  -0.983   3.430  0.00  0.00    -0.276 OA
ATOM     21  N   UNL     1       3.827   0.461   3.137  0.00  0.00    -0.315 N 
ATOM     22  H   UNL     1       4.233   1.151   2.589  0.00  0.00    +0.149 HD
BRANCH  21  23
ATOM     23  C   UNL     1       4.464   0.053   4.391  0.00  0.00    +0.108 C 
BRANCH  23  24
ATOM     24  C   UNL     1       5.745   0.862   4.600  0.00  0.00    +0.052 C 
BRANCH  24  25
ATOM     25  C   UNL     1       6.401   0.442   5.890  0.00  0.00    -0.040 C 
ATOM     26  C   UNL     1       7.388  -0.470   6.041  0.00  0.00    +0.000 A 
ATOM     27  C   UNL     1       8.119  -1.312   5.086  0.00  0.00    +0.030 A 
ATOM     28  C   UNL     1       9.077  -2.149   5.548  0.00  0.00    +0.042 A 
ATOM     29  C   UNL     1       9.387  -2.232   6.913  0.00  0.00    +0.022 A 
ATOM     30  C   UNL     1       8.759  -1.490   7.850  0.00  0.00    +0.027 A 
ATOM     31  C   UNL     1       7.736  -0.577   7.476  0.00  0.00    +0.043 A 
ATOM     32  N   UNL     1       6.992   0.238   8.185  0.00  0.00    -0.380 N 
ATOM     33  C   UNL     1       6.092   0.959   7.277  0.00  0.00    +0.144 C 
ATOM     34 CL   UNL     1       9.943  -3.146   4.421  0.00  0.00    -0.084 Cl
ATOM     35  H   UNL     1       7.032   0.349   9.148  0.00  0.00    +0.160 HD
ENDBRANCH  24  25
ENDBRANCH  23  24
ENDBRANCH  21  23
ENDBRANCH   1  19
TORSDOF 8
