REMARK  Name = ZINC59987512
REMARK  10 active torsions:
REMARK  status: ('A' for Active; 'I' for Inactive)
REMARK    1  A    between atoms: C_1  and  C_2
REMARK    2  A    between atoms: C_5  and  S_26
REMARK    3  A    between atoms: C_7  and  C_8
REMARK    4  A    between atoms: N_10  and  C_11
REMARK    5  A    between atoms: C_14  and  C_17
REMARK    6  A    between atoms: S_26  and  N_29
REMARK    7  A    between atoms: N_29  and  C_30
REMARK    8  A    between atoms: C_30  and  C_31
REMARK    9  A    between atoms: C_30  and  C_32
REMARK   10  A    between atoms: C_30  and  C_33
REMARK                            x       y       z     vdW  Elec       q    Type
REMARK                         _______ _______ _______ _____ _____    ______ ____
ROOT
ATOM      1  C   UNL     1       2.865   0.993   1.083  0.00  0.00    +0.249 C 
ATOM      2  O   UNL     1       2.832   2.136   0.671  0.00  0.00    -0.270 OA
ATOM      3  N   UNL     1       3.666   0.674   2.119  0.00  0.00    -0.281 N 
ATOM      4  H   UNL     1       3.657  -0.226   2.481  0.00  0.00    +0.155 HD
ENDROOT
BRANCH   1  11
ATOM      5  C   UNL     1       0.951   1.743  -0.952  0.00  0.00    +0.044 C 
ATOM      6  C   UNL     1       1.101   0.303  -0.534  0.00  0.00    -0.038 A 
ATOM      7  C   UNL     1       0.327  -0.673  -1.127  0.00  0.00    +0.006 A 
ATOM      8  C   UNL     1       0.464  -1.996  -0.744  0.00  0.00    +0.029 A 
ATOM      9  C   UNL     1       1.377  -2.349   0.234  0.00  0.00    +0.106 A 
ATOM     10  C   UNL     1       2.157  -1.382   0.835  0.00  0.00    +0.041 A 
ATOM     11  C   UNL     1       2.028  -0.047   0.449  0.00  0.00    +0.042 A 
BRANCH   9  12
ATOM     12  S   UNL     1       1.544  -4.036   0.713  0.00  0.00    +0.059 S 
ATOM     13  O   UNL     1       1.840  -4.036   2.103  0.00  0.00    -0.153 OA
ATOM     14  O   UNL     1       0.424  -4.724   0.173  0.00  0.00    -0.153 OA
BRANCH  12  15
ATOM     15  N   UNL     1       2.883  -4.634  -0.057  0.00  0.00    -0.185 NA
ATOM     16  H   UNL     1       3.662  -4.896   0.459  0.00  0.00    +0.149 HD
BRANCH  15  17
ATOM     17  C   UNL     1       2.891  -4.766  -1.516  0.00  0.00    +0.032 C 
ATOM     18  C   UNL     1       2.557  -3.415  -2.152  0.00  0.00    +0.029 C 
ATOM     19  C   UNL     1       4.277  -5.218  -1.979  0.00  0.00    +0.029 C 
ATOM     20  C   UNL     1       1.848  -5.802  -1.940  0.00  0.00    +0.029 C 
ENDBRANCH  15  17
ENDBRANCH  12  15
ENDBRANCH   9  12
ENDBRANCH   1  11
BRANCH   3  21
ATOM     21  C   UNL     1       4.511   1.641   2.673  0.00  0.00    +0.034 A 
ATOM     22  C   UNL     1       4.089   2.962   2.763  0.00  0.00    +0.024 A 
ATOM     23  C   UNL     1       4.921   3.917   3.309  0.00  0.00    +0.012 A 
ATOM     24  C   UNL     1       6.186   3.556   3.771  0.00  0.00    -0.000 A 
ATOM     25  C   UNL     1       6.607   2.230   3.680  0.00  0.00    +0.012 A 
ATOM     26  C   UNL     1       5.770   1.278   3.139  0.00  0.00    +0.024 A 
BRANCH  24  27
ATOM     27  C   UNL     1       7.083   4.582   4.358  0.00  0.00    +0.064 A 
ATOM     28  C   UNL     1       6.798   5.903   4.511  0.00  0.00    +0.113 A 
ATOM     29  N   UNL     1       7.893   6.472   5.088  0.00  0.00    -0.335 N 
ATOM     30  C   UNL     1       8.814   5.495   5.270  0.00  0.00    +0.087 A 
ATOM     31  N   UNL     1       8.326   4.370   4.840  0.00  0.00    -0.343 N 
ATOM     32  C   UNL     1      10.176   5.724   5.885  0.00  0.00    +0.072 C 
ATOM     33  C   UNL     1      10.461   7.231   5.872  0.00  0.00    +0.009 C 
ATOM     34  C   UNL     1       9.251   7.978   6.441  0.00  0.00    +0.022 C 
ATOM     35  C   UNL     1       8.079   7.878   5.458  0.00  0.00    +0.123 C 
ATOM     36  H   UNL     1       8.782   3.514   4.861  0.00  0.00    +0.167 HD
ENDBRANCH  24  27
ENDBRANCH   3  21
TORSDOF 6
