REMARK  Name = ZINC13112701
REMARK  7 active torsions:
REMARK  status: ('A' for Active; 'I' for Inactive)
REMARK    1  A    between atoms: C_1  and  C_2
REMARK    2  A    between atoms: C_7  and  N_12
REMARK    3  A    between atoms: C_9  and  C_11
REMARK    4  A    between atoms: C_13  and  C_15
REMARK    5  A    between atoms: C_15  and  N_16
REMARK    6  A    between atoms: C_19  and  C_23
REMARK    7  A    between atoms: C_19  and  C_24
REMARK                            x       y       z     vdW  Elec       q    Type
REMARK                         _______ _______ _______ _____ _____    ______ ____
ROOT
ATOM      1  N   UNL     1       3.562   1.887  -0.022  0.00  0.00    -0.215 N 
ATOM      2  C   UNL     1       4.124   2.389  -1.139  0.00  0.00    +0.251 C 
ATOM      3  O   UNL     1       3.825   2.135  -2.287  0.00  0.00    -0.272 OA
ATOM      4  C   UNL     1       5.206   3.338  -0.664  0.00  0.00    +0.135 C 
ATOM      5  N   UNL     1       5.125   3.247   0.804  0.00  0.00    -0.281 N 
ATOM      6  C   UNL     1       4.138   2.377   1.082  0.00  0.00    +0.310 C 
ATOM      7  O   UNL     1       3.806   2.070   2.210  0.00  0.00    -0.252 OA
ATOM      8  C   UNL     1       4.918   4.766  -1.131  0.00  0.00    +0.047 C 
ATOM      9  H   UNL     1       5.676   3.723   1.445  0.00  0.00    +0.152 HD
ENDROOT
BRANCH   4  10
ATOM     10  C   UNL     1       6.558   2.886  -1.150  0.00  0.00    -0.016 A 
ATOM     11  C   UNL     1       6.680   2.270  -2.382  0.00  0.00    +0.006 A 
ATOM     12  C   UNL     1       7.922   1.860  -2.830  0.00  0.00    +0.000 A 
ATOM     13  C   UNL     1       9.040   2.054  -2.041  0.00  0.00    +0.000 A 
ATOM     14  C   UNL     1       8.918   2.665  -0.807  0.00  0.00    +0.000 A 
ATOM     15  C   UNL     1       7.677   3.081  -0.361  0.00  0.00    +0.006 A 
ENDBRANCH   4  10
BRANCH   1  16
ATOM     16  C   UNL     1       2.462   0.920  -0.017  0.00  0.00    +0.213 C 
BRANCH  16  18
ATOM     17  N   UNL     1      -0.011   0.966   0.007  0.00  0.00    -0.311 N 
ATOM     18  C   UNL     1       1.147   1.655   0.000  0.00  0.00    +0.231 C 
ATOM     19  O   UNL     1       1.130   2.868   0.007  0.00  0.00    -0.274 OA
ATOM     20  H   UNL     1       0.002  -0.004   0.002  0.00  0.00    +0.149 HD
BRANCH  17  26
ATOM     21  C   UNL     1      -4.786   0.637   1.248  0.00  0.00    +0.008 C 
ATOM     22  C   UNL     1      -3.705   1.533   0.638  0.00  0.00    -0.009 C 
ATOM     23  C   UNL     1      -4.096   1.899  -0.796  0.00  0.00    +0.003 C 
ATOM     24  C   UNL     1      -3.015   2.794  -1.405  0.00  0.00    +0.002 C 
ATOM     25  C   UNL     1      -1.680   2.047  -1.416  0.00  0.00    +0.022 C 
ATOM     26  C   UNL     1      -1.290   1.681   0.017  0.00  0.00    +0.076 C 
ATOM     27  C   UNL     1      -2.370   0.786   0.627  0.00  0.00    +0.009 C 
ATOM     28  C   UNL     1      -2.506  -0.490  -0.206  0.00  0.00    +0.009 C 
ENDBRANCH  17  26
ENDBRANCH  16  18
ENDBRANCH   1  16
TORSDOF 4
