REMARK  Name = ZINC09576086
REMARK  14 active torsions:
REMARK  status: ('A' for Active; 'I' for Inactive)
REMARK    1  A    between atoms: C_1  and  C_2
REMARK    2  A    between atoms: C_2  and  C_3
REMARK    3  A    between atoms: C_3  and  N_59
REMARK    4  A    between atoms: C_4  and  C_5
REMARK    5  A    between atoms: C_4  and  N_59
REMARK    6  A    between atoms: C_5  and  C_6
REMARK    7  A    between atoms: C_7  and  C_8
REMARK    8  A    between atoms: C_7  and  N_59
REMARK    9  A    between atoms: C_9  and  O_29
REMARK   10  A    between atoms: C_16  and  C_17
REMARK   11  A    between atoms: C_21  and  O_25
REMARK   12  A    between atoms: C_22  and  O_23
REMARK   13  A    between atoms: O_23  and  C_24
REMARK   14  A    between atoms: O_25  and  C_26
REMARK                            x       y       z     vdW  Elec       q    Type
REMARK                         _______ _______ _______ _____ _____    ______ ____
ROOT
ATOM      1  C   UNL     1       1.869   6.529  -0.022  0.00  0.00    +0.020 A 
ATOM      2  C   UNL     1       2.690   7.447  -0.657  0.00  0.00    +0.122 A 
ATOM      3  C   UNL     1       4.044   7.179  -0.837  0.00  0.00    +0.046 A 
ATOM      4  C   UNL     1       4.578   6.004  -0.388  0.00  0.00    +0.019 A 
ATOM      5  C   UNL     1       3.763   5.071   0.253  0.00  0.00    +0.068 A 
ATOM      6  C   UNL     1       2.395   5.329   0.441  0.00  0.00    +0.144 A 
ATOM      7  O   UNL     1       1.817   4.285   1.074  0.00  0.00    -0.451 OA
ATOM      8  C   UNL     1       2.711   3.307   1.351  0.00  0.00    +0.176 C 
ATOM      9  C   UNL     1       2.447   2.134   1.982  0.00  0.00    +0.062 C 
ATOM     10  C   UNL     1       4.019   3.743   0.839  0.00  0.00    +0.231 C 
ATOM     11  O   UNL     1       5.077   3.140   0.889  0.00  0.00    -0.283 OA
ENDROOT
BRANCH   9  12
ATOM     12  C   UNL     1       1.068   1.793   2.350  0.00  0.00    +0.024 A 
ATOM     13  C   UNL     1       0.083   2.789   2.389  0.00  0.00    +0.012 A 
ATOM     14  C   UNL     1      -1.210   2.464   2.735  0.00  0.00    +0.004 A 
ATOM     15  C   UNL     1      -1.544   1.155   3.046  0.00  0.00    +0.049 A 
ATOM     16  C   UNL     1      -0.582   0.159   3.012  0.00  0.00    +0.162 A 
ATOM     17  C   UNL     1       0.728   0.469   2.665  0.00  0.00    +0.169 A 
BRANCH  17  18
ATOM     18  O   UNL     1       1.674  -0.505   2.632  0.00  0.00    -0.491 OA
ATOM     19  C   UNL     1       1.854  -1.192   1.392  0.00  0.00    +0.277 C 
ENDBRANCH  17  18
BRANCH  16  20
ATOM     20  O   UNL     1      -0.919  -1.122   3.319  0.00  0.00    -0.491 OA
ATOM     21  C   UNL     1      -2.283  -1.369   3.667  0.00  0.00    +0.277 C 
ENDBRANCH  16  20
ENDBRANCH   9  12
BRANCH   2  22
ATOM     22  O   UNL     1       2.170   8.617  -1.106  0.00  0.00    -0.506 OA
ATOM     23  H   UNL     1       2.168   9.325  -0.448  0.00  0.00    +0.292 HD
ENDBRANCH   2  22
BRANCH   1  24
ATOM     24  C   UNL     1       0.405   6.832   0.166  0.00  0.00    -0.036 C 
BRANCH  24  25
ATOM     25  N   UNL     1       0.186   7.264   1.563  0.00  0.00    +0.383 N 
ATOM     26  H   UNL     1       0.696   6.633   2.191  0.00  0.00    -0.081 HD
BRANCH  25  27
ATOM     27  C   UNL     1       0.690   8.641   1.750  0.00  0.00    -0.079 C 
BRANCH  27  29
ATOM     28  C   UNL     1       0.546  11.014   0.984  0.00  0.00    +0.002 C 
ATOM     29  C   UNL     1      -0.050   9.614   0.830  0.00  0.00    -0.022 C 
ENDBRANCH  27  29
ENDBRANCH  25  27
BRANCH  25  30
ATOM     30  C   UNL     1      -1.255   7.205   1.889  0.00  0.00    -0.079 C 
BRANCH  30  31
ATOM     31  C   UNL     1      -1.431   7.449   3.390  0.00  0.00    -0.022 C 
ATOM     32  C   UNL     1      -2.895   7.228   3.774  0.00  0.00    +0.002 C 
ENDBRANCH  30  31
ENDBRANCH  25  30
ENDBRANCH  24  25
ENDBRANCH   1  24
TORSDOF 10
