REMARK  Name = ZINC36936422
REMARK  5 active torsions:
REMARK  status: ('A' for Active; 'I' for Inactive)
REMARK    1  A    between atoms: C_1  and  C_2
REMARK    2  A    between atoms: C_7  and  C_8
REMARK    3  A    between atoms: C_9  and  C_14
REMARK    4  A    between atoms: C_12  and  N_13
REMARK    5  A    between atoms: C_19  and  C_20
REMARK                            x       y       z     vdW  Elec       q    Type
REMARK                         _______ _______ _______ _____ _____    ______ ____
ROOT
ATOM      1  C   UNL     1       0.025   0.020   2.494  0.00  0.00    +0.071 A 
ATOM      2  C   UNL     1      -1.148   0.430   3.270  0.00  0.00    +0.123 A 
ATOM      3  N   UNL     1      -0.708   1.046   4.341  0.00  0.00    -0.075 NA
ATOM      4  O   UNL     1       0.705   1.064   4.310  0.00  0.00    -0.339 OA
ATOM      5  C   UNL     1       1.134   0.441   3.202  0.00  0.00    +0.224 A 
ENDROOT
BRANCH   1  12
ATOM      6  C   UNL     1      -0.018   1.503   0.010  0.00  0.00    +0.044 C 
ATOM      7  C   UNL     1       0.002  -0.004   0.002  0.00  0.00    -0.043 A 
ATOM      8  C   UNL     1       0.006  -0.689  -1.196  0.00  0.00    +0.004 A 
ATOM      9  C   UNL     1       0.025  -2.072  -1.205  0.00  0.00    +0.000 A 
ATOM     10  C   UNL     1       0.039  -2.777  -0.015  0.00  0.00    +0.001 A 
ATOM     11  C   UNL     1       0.035  -2.104   1.189  0.00  0.00    +0.009 A 
ATOM     12  C   UNL     1       0.023  -0.709   1.205  0.00  0.00    -0.008 A 
ENDBRANCH   1  12
BRANCH   2  13
ATOM     13  C   UNL     1      -2.568   0.192   2.911  0.00  0.00    +0.007 A 
ATOM     14  C   UNL     1      -2.888  -0.486   1.736  0.00  0.00    +0.010 A 
ATOM     15  C   UNL     1      -4.210  -0.704   1.408  0.00  0.00    +0.001 A 
ATOM     16  C   UNL     1      -5.217  -0.251   2.241  0.00  0.00    +0.000 A 
ATOM     17  C   UNL     1      -4.905   0.423   3.408  0.00  0.00    +0.004 A 
ATOM     18  C   UNL     1      -3.585   0.641   3.750  0.00  0.00    -0.041 A 
ATOM     19  C   UNL     1      -3.246   1.369   5.025  0.00  0.00    +0.044 C 
ENDBRANCH   2  13
BRANCH   5  20
ATOM     20  N   UNL     1       2.450   0.256   2.833  0.00  0.00    -0.327 N 
ATOM     21  H   UNL     1       2.662  -0.207   2.007  0.00  0.00    +0.145 HD
ATOM     22  H   UNL     1       3.164   0.589   3.399  0.00  0.00    +0.145 HD
ENDBRANCH   5  20
TORSDOF 3
