REMARK  Name = ZINC36883636
REMARK  9 active torsions:
REMARK  status: ('A' for Active; 'I' for Inactive)
REMARK    1  A    between atoms: C_4  and  C_7
REMARK    2  A    between atoms: C_7  and  C_8
REMARK    3  A    between atoms: C_8  and  C_10
REMARK    4  A    between atoms: C_8  and  N_27
REMARK    5  A    between atoms: N_12  and  C_13
REMARK    6  A    between atoms: C_13  and  C_14
REMARK    7  A    between atoms: C_14  and  C_16
REMARK    8  A    between atoms: C_14  and  N_22
REMARK    9  A    between atoms: C_28  and  C_30
REMARK                            x       y       z     vdW  Elec       q    Type
REMARK                         _______ _______ _______ _____ _____    ______ ____
ROOT
ATOM      1  C   UNL     1       4.155  -1.005   1.333  0.00  0.00    +0.163 C 
ENDROOT
BRANCH   1   2
ATOM      2  C   UNL     1       5.497  -1.678   1.193  0.00  0.00    +0.234 C 
ATOM      3  O   UNL     1       5.616  -2.854   1.464  0.00  0.00    -0.274 OA
ATOM      4  N   UNL     1       6.563  -0.973   0.767  0.00  0.00    -0.315 N 
ATOM      5  H   UNL     1       6.468  -0.032   0.551  0.00  0.00    +0.149 HD
BRANCH   4   6
ATOM      6  C   UNL     1       7.867  -1.627   0.632  0.00  0.00    +0.093 C 
BRANCH   6   7
ATOM      7  C   UNL     1       8.866  -0.650   0.009  0.00  0.00    -0.020 C 
BRANCH   7   8
ATOM      8  C   UNL     1       8.444  -0.330  -1.401  0.00  0.00    -0.059 A 
ATOM      9  C   UNL     1       8.720  -1.218  -2.424  0.00  0.00    +0.002 A 
ATOM     10  C   UNL     1       8.333  -0.924  -3.718  0.00  0.00    +0.000 A 
ATOM     11  C   UNL     1       7.668   0.257  -3.989  0.00  0.00    +0.000 A 
ATOM     12  C   UNL     1       7.391   1.145  -2.967  0.00  0.00    +0.000 A 
ATOM     13  C   UNL     1       7.774   0.849  -1.672  0.00  0.00    +0.002 A 
ENDBRANCH   7   8
BRANCH   7  14
ATOM     14  N   UNL     1      10.203  -1.259  -0.006  0.00  0.00    +0.385 N 
ATOM     15  C   UNL     1      11.188  -0.317  -0.594  0.00  0.00    -0.078 C 
ATOM     16  C   UNL     1      12.542  -0.827  -0.039  0.00  0.00    -0.020 C 
ATOM     17  C   UNL     1      12.183  -1.265   1.399  0.00  0.00    -0.020 C 
ATOM     18  C   UNL     1      10.663  -1.514   1.377  0.00  0.00    -0.078 C 
ATOM     19  H   UNL     1      10.187  -2.120  -0.531  0.00  0.00    -0.081 HD
ENDBRANCH   7  14
ENDBRANCH   6   7
ENDBRANCH   4   6
ENDBRANCH   1   2
BRANCH   1  20
ATOM     20  N   UNL     1       3.168  -1.977   1.808  0.00  0.00    -0.300 N 
ATOM     21  C   UNL     1       2.075  -1.556   2.476  0.00  0.00    +0.245 C 
ATOM     22  O   UNL     1       1.909  -0.370   2.684  0.00  0.00    -0.270 OA
ATOM     23  H   UNL     1       3.301  -2.923   1.642  0.00  0.00    +0.150 HD
BRANCH  21  24
ATOM     24  C   UNL     1       1.079  -2.538   2.955  0.00  0.00    +0.037 A 
ATOM     25  C   UNL     1       1.270  -3.901   2.723  0.00  0.00    +0.013 A 
ATOM     26  C   UNL     1       0.336  -4.811   3.174  0.00  0.00    +0.001 A 
ATOM     27  C   UNL     1      -0.787  -4.376   3.854  0.00  0.00    +0.000 A 
ATOM     28  C   UNL     1      -0.983  -3.026   4.087  0.00  0.00    +0.001 A 
ATOM     29  C   UNL     1      -0.054  -2.106   3.647  0.00  0.00    +0.013 A 
ENDBRANCH  21  24
ENDBRANCH   1  20
BRANCH   1  30
ATOM     30  C   UNL     1       3.717  -0.455  -0.026  0.00  0.00    +0.067 C 
BRANCH  30  34
ATOM     31  C   UNL     1       0.089   1.753   0.433  0.00  0.00    +0.000 A 
ATOM     32  C   UNL     1       1.308   2.392   0.559  0.00  0.00    +0.000 A 
ATOM     33  C   UNL     1       2.482   1.678   0.411  0.00  0.00    +0.004 A 
ATOM     34  C   UNL     1       2.437   0.324   0.137  0.00  0.00    -0.045 A 
ATOM     35  C   UNL     1       1.218  -0.316   0.011  0.00  0.00    +0.004 A 
ATOM     36  C   UNL     1       0.044   0.399   0.158  0.00  0.00    +0.000 A 
ENDBRANCH  30  34
ENDBRANCH   1  30
TORSDOF 9
