REMARK  Name = ZINC55307505
REMARK  9 active torsions:
REMARK  status: ('A' for Active; 'I' for Inactive)
REMARK    1  A    between atoms: C_1  and  C_2
REMARK    2  A    between atoms: C_2  and  C_3
REMARK    3  A    between atoms: C_6  and  C_8
REMARK    4  A    between atoms: C_8  and  N_9
REMARK    5  A    between atoms: N_9  and  C_10
REMARK    6  A    between atoms: N_9  and  C_17
REMARK    7  A    between atoms: C_10  and  C_11
REMARK    8  A    between atoms: C_17  and  C_18
REMARK    9  A    between atoms: N_23  and  C_25
REMARK                            x       y       z     vdW  Elec       q    Type
REMARK                         _______ _______ _______ _____ _____    ______ ____
ROOT
ATOM      1  N   UNL     1      -4.146  -2.986   2.073  0.00  0.00    -0.291 NA
ENDROOT
BRANCH   1   2
ATOM      2  C   UNL     1      -3.838  -1.561   1.891  0.00  0.00    +0.159 C 
BRANCH   2   6
ATOM      3  C   UNL     1      -0.362  -1.232   0.823  0.00  0.00    +0.105 A 
ATOM      4  C   UNL     1      -0.958  -1.215  -0.382  0.00  0.00    +0.045 A 
ATOM      5  C   UNL     1      -2.348  -1.337  -0.154  0.00  0.00    +0.046 A 
ATOM      6  C   UNL     1      -2.518  -1.420   1.178  0.00  0.00    +0.119 A 
ATOM      7  O   UNL     1      -1.311  -1.362   1.764  0.00  0.00    -0.463 OA
BRANCH   3   9
ATOM      8  C   UNL     1       1.508   0.343   1.243  0.00  0.00    +0.012 C 
ATOM      9  C   UNL     1       1.121  -1.128   1.075  0.00  0.00    +0.071 C 
ENDBRANCH   3   9
ENDBRANCH   2   6
ENDBRANCH   1   2
BRANCH   1  10
ATOM     10  C   UNL     1      -4.585  -3.596   0.810  0.00  0.00    +0.121 C 
BRANCH  10  11
ATOM     11  C   UNL     1      -5.895  -2.984   0.385  0.00  0.00    -0.015 A 
ATOM     12  C   UNL     1      -7.096  -3.542   0.795  0.00  0.00    +0.008 A 
ATOM     13  C   UNL     1      -8.277  -2.946   0.380  0.00  0.00    +0.020 A 
ATOM     14  C   UNL     1      -8.217  -1.823  -0.423  0.00  0.00    +0.111 A 
ATOM     15  N   UNL     1      -7.057  -1.319  -0.794  0.00  0.00    -0.263 NA
ATOM     16  C   UNL     1      -5.914  -1.856  -0.413  0.00  0.00    +0.115 A 
ENDBRANCH  10  11
ENDBRANCH   1  10
BRANCH   1  17
ATOM     17  C   UNL     1      -5.152  -3.176   3.126  0.00  0.00    +0.087 C 
BRANCH  17  18
ATOM     18  C   UNL     1      -5.166  -4.644   3.559  0.00  0.00    -0.014 C 
ATOM     19  C   UNL     1      -3.817  -5.003   4.190  0.00  0.00    +0.001 C 
ATOM     20  C   UNL     1      -3.869  -6.450   4.690  0.00  0.00    -0.018 C 
ATOM     21  C   UNL     1      -5.029  -6.602   5.676  0.00  0.00    -0.078 C 
ATOM     22  N   UNL     1      -6.292  -6.269   5.007  0.00  0.00    +0.382 N 
ATOM     23  C   UNL     1      -6.279  -4.863   4.587  0.00  0.00    -0.074 C 
ATOM     24  H   UNL     1      -6.407  -6.860   4.196  0.00  0.00    -0.081 HD
BRANCH  22  25
ATOM     25  C   UNL     1      -7.409  -6.492   5.934  0.00  0.00    -0.069 C 
ATOM     26  C   UNL     1      -7.430  -7.960   6.364  0.00  0.00    -0.015 C 
ATOM     27  C   UNL     1      -8.594  -8.191   7.330  0.00  0.00    -0.002 C 
ATOM     28  C   UNL     1      -9.912  -7.845   6.633  0.00  0.00    -0.000 C 
ATOM     29  C   UNL     1      -9.890  -6.377   6.203  0.00  0.00    -0.002 C 
ATOM     30  C   UNL     1      -8.727  -6.146   5.237  0.00  0.00    -0.015 C 
ENDBRANCH  22  25
ENDBRANCH  17  18
ENDBRANCH   1  17
TORSDOF 8
