REMARK  Name = ZINC35699989
REMARK  19 active torsions:
REMARK  status: ('A' for Active; 'I' for Inactive)
REMARK    1  A    between atoms: C_1  and  C_2
REMARK    2  A    between atoms: C_2  and  C_3
REMARK    3  A    between atoms: C_3  and  C_4
REMARK    4  A    between atoms: C_4  and  C_5
REMARK    5  A    between atoms: C_8  and  C_11
REMARK    6  A    between atoms: N_13  and  C_14
REMARK    7  A    between atoms: N_13  and  C_18
REMARK    8  A    between atoms: C_14  and  C_15
REMARK    9  A    between atoms: C_15  and  C_16
REMARK   10  A    between atoms: C_15  and  C_17
REMARK   11  A    between atoms: C_18  and  C_19
REMARK   12  A    between atoms: N_21  and  C_22
REMARK   13  A    between atoms: C_24  and  C_35
REMARK   14  A    between atoms: N_26  and  C_27
REMARK   15  A    between atoms: C_30  and  C_34
REMARK   16  A    between atoms: C_32  and  C_33
REMARK   17  A    between atoms: C_35  and  C_36
REMARK   18  A    between atoms: C_35  and  C_37
REMARK   19  A    between atoms: C_35  and  C_38
REMARK                            x       y       z     vdW  Elec       q    Type
REMARK                         _______ _______ _______ _____ _____    ______ ____
ROOT
ATOM      1  C   UNL     1       4.328  -3.221   8.644  0.00  0.00    +0.236 C 
ATOM      2  O   UNL     1       3.982  -2.190   8.107  0.00  0.00    -0.274 OA
ATOM      3  N   UNL     1       4.915  -3.185   9.857  0.00  0.00    -0.269 N 
ATOM      4  H   UNL     1       5.192  -4.010  10.286  0.00  0.00    +0.156 HD
ENDROOT
BRANCH   3   5
ATOM      5  C   UNL     1       5.124  -1.963  10.494  0.00  0.00    +0.129 A 
ATOM      6  C   UNL     1       4.688  -0.746  10.066  0.00  0.00    +0.069 A 
ATOM      7  C   UNL     1       5.111   0.211  10.992  0.00  0.00    +0.071 A 
ATOM      8  N   UNL     1       5.775  -0.396  11.943  0.00  0.00    -0.169 NA
ATOM      9  N   UNL     1       5.796  -1.768  11.661  0.00  0.00    -0.218 N 
BRANCH   9  10
ATOM     10  C   UNL     1       6.404  -2.761  12.441  0.00  0.00    +0.070 A 
ATOM     11  C   UNL     1       5.708  -3.922  12.755  0.00  0.00    +0.028 A 
ATOM     12  C   UNL     1       6.310  -4.899  13.523  0.00  0.00    +0.005 A 
ATOM     13  C   UNL     1       7.604  -4.723  13.979  0.00  0.00    -0.050 A 
ATOM     14  C   UNL     1       8.299  -3.569  13.668  0.00  0.00    +0.008 A 
ATOM     15  C   UNL     1       7.704  -2.591  12.896  0.00  0.00    -0.025 A 
ATOM     16  C   UNL     1       8.465  -1.336  12.552  0.00  0.00    +0.046 C 
ATOM     17  C   UNL     1       8.257  -5.792  14.817  0.00  0.00    +0.044 C 
ENDBRANCH   9  10
BRANCH   7  18
ATOM     18  C   UNL     1       4.846   1.693  10.910  0.00  0.00    +0.006 C 
ATOM     19  C   UNL     1       3.388   1.972  11.279  0.00  0.00    +0.017 C 
ATOM     20  C   UNL     1       5.769   2.430  11.883  0.00  0.00    +0.017 C 
ATOM     21  C   UNL     1       5.114   2.180   9.485  0.00  0.00    +0.017 C 
ENDBRANCH   7  18
ENDBRANCH   3   5
BRANCH   1  22
ATOM     22  C   UNL     1       4.103  -4.543   7.955  0.00  0.00    +0.204 C 
BRANCH  22  25
ATOM     23  C   UNL     1       4.200  -4.203   5.544  0.00  0.00    +0.247 C 
ATOM     24  O   UNL     1       3.668  -3.954   4.480  0.00  0.00    -0.270 OA
ATOM     25  N   UNL     1       3.454  -4.314   6.661  0.00  0.00    -0.288 N 
BRANCH  23  29
ATOM     26  C   UNL     1       8.411  -4.725   5.742  0.00  0.00    -0.047 A 
ATOM     27  C   UNL     1       7.782  -3.862   6.621  0.00  0.00    +0.004 A 
ATOM     28  C   UNL     1       6.415  -3.687   6.562  0.00  0.00    +0.013 A 
ATOM     29  C   UNL     1       5.666  -4.385   5.613  0.00  0.00    +0.037 A 
ATOM     30  C   UNL     1       6.307  -5.254   4.729  0.00  0.00    +0.013 A 
ATOM     31  C   UNL     1       7.676  -5.415   4.795  0.00  0.00    +0.004 A 
BRANCH  26  32
ATOM     32  C   UNL     1       9.905  -4.910   5.812  0.00  0.00    +0.035 C 
BRANCH  32  33
ATOM     33  C   UNL     1      10.589  -3.886   4.905  0.00  0.00    +0.004 C 
BRANCH  33  35
ATOM     34  C   UNL     1      12.790  -3.049   4.070  0.00  0.00    +0.004 C 
ATOM     35  C   UNL     1      12.106  -4.074   4.977  0.00  0.00    -0.003 C 
ENDBRANCH  33  35
ENDBRANCH  32  33
ENDBRANCH  26  32
ENDBRANCH  23  29
BRANCH  25  36
ATOM     36  C   UNL     1       1.996  -4.206   6.582  0.00  0.00    +0.111 C 
BRANCH  36  37
ATOM     37  C   UNL     1       1.403  -5.567   6.210  0.00  0.00    +0.000 C 
ATOM     38  C   UNL     1       1.674  -6.566   7.336  0.00  0.00    +0.009 C 
ATOM     39  C   UNL     1      -0.106  -5.427   6.005  0.00  0.00    +0.009 C 
ENDBRANCH  36  37
ENDBRANCH  25  36
ENDBRANCH  22  25
ENDBRANCH   1  22
TORSDOF 11
