REMARK  Name = ZINC00709395
REMARK  21 active torsions:
REMARK  status: ('A' for Active; 'I' for Inactive)
REMARK    1  A    between atoms: C_1  and  C_2
REMARK    2  A    between atoms: C_2  and  C_38
REMARK    3  A    between atoms: C_6  and  C_7
REMARK    4  A    between atoms: C_6  and  C_8
REMARK    5  A    between atoms: C_9  and  C_36
REMARK    6  A    between atoms: C_9  and  O_37
REMARK    7  A    between atoms: N_10  and  C_14
REMARK    8  A    between atoms: C_14  and  C_15
REMARK    9  A    between atoms: C_15  and  N_16
REMARK   10  A    between atoms: C_17  and  C_19
REMARK   11  A    between atoms: C_19  and  C_20
REMARK   12  A    between atoms: C_20  and  C_21
REMARK   13  A    between atoms: C_23  and  C_32
REMARK   14  A    between atoms: C_24  and  O_31
REMARK   15  A    between atoms: C_25  and  C_27
REMARK   16  A    between atoms: C_27  and  C_28
REMARK   17  A    between atoms: C_27  and  C_29
REMARK   18  A    between atoms: C_27  and  C_30
REMARK   19  A    between atoms: C_32  and  C_33
REMARK   20  A    between atoms: C_32  and  C_34
REMARK   21  A    between atoms: C_32  and  C_35
REMARK                            x       y       z     vdW  Elec       q    Type
REMARK                         _______ _______ _______ _____ _____    ______ ____
ROOT
ATOM      1  C   UNL     1       7.922  -1.192   2.874  0.00  0.00    +0.123 C 
ENDROOT
BRANCH   1   2
ATOM      2  N   UNL     1       6.721  -0.368   3.026  0.00  0.00    -0.314 N 
ATOM      3  C   UNL     1       5.508  -0.951   3.098  0.00  0.00    +0.213 C 
ATOM      4  O   UNL     1       5.411  -2.158   3.036  0.00  0.00    -0.276 OA
ATOM      5  H   UNL     1       6.799   0.598   3.076  0.00  0.00    +0.149 HD
BRANCH   3   6
ATOM      6  C   UNL     1       4.272  -0.102   3.255  0.00  0.00    +0.100 C 
BRANCH   6   7
ATOM      7  C   UNL     1       3.038  -1.004   3.310  0.00  0.00    +0.044 C 
BRANCH   7   8
ATOM      8  C   UNL     1       1.802  -0.156   3.466  0.00  0.00    -0.046 A 
ATOM      9  C   UNL     1       1.340   0.163   4.730  0.00  0.00    +0.011 A 
ATOM     10  C   UNL     1       0.208   0.941   4.876  0.00  0.00    -0.000 A 
ATOM     11  C   UNL     1      -0.463   1.406   3.754  0.00  0.00    +0.124 A 
ATOM     12  C   UNL     1       0.000   1.080   2.488  0.00  0.00    -0.000 A 
ATOM     13  C   UNL     1       1.133   0.302   2.347  0.00  0.00    +0.011 A 
BRANCH  12  14
ATOM     14  C   UNL     1      -0.729   1.579   1.267  0.00  0.00    -0.009 C 
ATOM     15  C   UNL     1      -0.013   1.086   0.008  0.00  0.00    +0.015 C 
ATOM     16  C   UNL     1      -0.750   3.109   1.275  0.00  0.00    +0.015 C 
ATOM     17  C   UNL     1      -2.164   1.050   1.278  0.00  0.00    +0.015 C 
ENDBRANCH  12  14
BRANCH  10  18
ATOM     18  C   UNL     1      -0.296   1.288   6.253  0.00  0.00    -0.009 C 
ATOM     19  C   UNL     1       0.621   0.660   7.305  0.00  0.00    +0.015 C 
ATOM     20  C   UNL     1      -0.303   2.808   6.426  0.00  0.00    +0.015 C 
ATOM     21  C   UNL     1      -1.717   0.749   6.428  0.00  0.00    +0.015 C 
ENDBRANCH  10  18
BRANCH  11  22
ATOM     22  O   UNL     1      -1.573   2.176   3.896  0.00  0.00    -0.506 OA
ATOM     23  H   UNL     1      -2.398   1.673   3.940  0.00  0.00    +0.292 HD
ENDBRANCH  11  22
ENDBRANCH   7   8
ENDBRANCH   6   7
ENDBRANCH   3   6
ENDBRANCH   1   2
BRANCH   1  24
ATOM     24  C   UNL     1       9.157  -0.290   2.819  0.00  0.00    +0.132 C 
BRANCH  24  34
ATOM     25  C   UNL     1      13.286  -5.016   3.102  0.00  0.00    -0.010 C 
ATOM     26  C   UNL     1      13.358  -4.579   1.636  0.00  0.00    -0.070 C 
ATOM     27  C   UNL     1      12.108  -3.777   1.267  0.00  0.00    +0.040 C 
ATOM     28  C   UNL     1      12.182  -2.355   1.796  0.00  0.00    +0.158 C 
ATOM     29  C   UNL     1      13.445  -1.669   1.284  0.00  0.00    +0.040 C 
ATOM     30  C   UNL     1      14.702  -2.458   1.634  0.00  0.00    -0.070 C 
ATOM     31  C   UNL     1      15.087  -2.212   3.097  0.00  0.00    -0.010 C 
ATOM     32  C   UNL     1      15.853  -1.895   0.766  0.00  0.00    -0.010 C 
ATOM     33  C   UNL     1      10.955  -1.526   1.383  0.00  0.00    +0.175 C 
ATOM     34  N   UNL     1      10.358  -1.115   2.667  0.00  0.00    -0.234 N 
ATOM     35  C   UNL     1      11.093  -1.619   3.666  0.00  0.00    +0.406 C 
ATOM     36  O   UNL     1      10.830  -1.442   4.839  0.00  0.00    -0.226 OA
ATOM     37  O   UNL     1      12.142  -2.335   3.249  0.00  0.00    -0.439 OA
ATOM     38  C   UNL     1       9.945  -2.335   0.571  0.00  0.00    +0.068 C 
ATOM     39  C   UNL     1      13.340  -5.867   0.780  0.00  0.00    -0.010 C 
ATOM     40  N   UNL     1      14.648  -3.911   1.323  0.00  0.00    +0.386 N 
ATOM     41  H   UNL     1      14.831  -4.028   0.319  0.00  0.00    -0.084 HD
ATOM     42  H   UNL     1      15.386  -4.378   1.862  0.00  0.00    -0.084 HD
BRANCH  33  43
ATOM     43  O   UNL     1      11.362  -0.368   0.645  0.00  0.00    -0.368 OA
ATOM     44  H   UNL     1      10.636   0.230   0.419  0.00  0.00    +0.212 HD
ENDBRANCH  33  43
ENDBRANCH  24  34
ENDBRANCH   1  24
TORSDOF 10
