REMARK  Name = ZINC23550725
REMARK  9 active torsions:
REMARK  status: ('A' for Active; 'I' for Inactive)
REMARK    1  A    between atoms: C_1  and  C_2
REMARK    2  A    between atoms: C_5  and  N_9
REMARK    3  A    between atoms: C_6  and  C_8
REMARK    4  A    between atoms: C_13  and  C_15
REMARK    5  A    between atoms: C_15  and  O_16
REMARK    6  A    between atoms: O_16  and  C_17
REMARK    7  A    between atoms: C_17  and  C_19
REMARK    8  A    between atoms: C_22  and  S_25
REMARK    9  A    between atoms: S_25  and  N_28
REMARK                            x       y       z     vdW  Elec       q    Type
REMARK                         _______ _______ _______ _____ _____    ______ ____
ROOT
ATOM      1  O   UNL     1       4.730   1.087  -0.073  0.00  0.00    -0.452 OA
ENDROOT
BRANCH   1   2
ATOM      2  C   UNL     1       5.968   1.619  -0.094  0.00  0.00    +0.340 C 
ATOM      3  O   UNL     1       6.110   2.826  -0.098  0.00  0.00    -0.245 OA
BRANCH   2   4
ATOM      4  C   UNL     1       7.152   0.736  -0.113  0.00  0.00    +0.059 A 
ATOM      5  C   UNL     1       6.992  -0.651  -0.102  0.00  0.00    +0.017 A 
ATOM      6  C   UNL     1       8.101  -1.471  -0.125  0.00  0.00    +0.029 A 
ATOM      7  C   UNL     1       9.371  -0.921  -0.147  0.00  0.00    +0.106 A 
ATOM      8  C   UNL     1       9.537   0.453  -0.152  0.00  0.00    +0.029 A 
ATOM      9  C   UNL     1       8.435   1.284  -0.135  0.00  0.00    +0.017 A 
BRANCH   7  10
ATOM     10  S   UNL     1      10.783  -1.975  -0.170  0.00  0.00    +0.061 S 
ATOM     11  O   UNL     1      10.354  -3.216  -0.712  0.00  0.00    -0.153 OA
ATOM     12  O   UNL     1      11.844  -1.220  -0.739  0.00  0.00    -0.153 OA
BRANCH  10  13
ATOM     13  N   UNL     1      11.202  -2.265   1.406  0.00  0.00    -0.177 NA
ATOM     14  C   UNL     1      12.140  -1.374   2.049  0.00  0.00    +0.109 C 
ATOM     15  C   UNL     1      13.582  -1.873   1.818  0.00  0.00    +0.017 C 
ATOM     16  C   UNL     1      13.831  -3.094   2.600  0.00  0.00    +0.001 C 
ATOM     17  C   UNL     1      12.952  -4.279   2.212  0.00  0.00    +0.001 C 
ATOM     18  C   UNL     1      11.637  -4.189   2.946  0.00  0.00    +0.017 C 
ATOM     19  C   UNL     1      10.606  -3.428   2.093  0.00  0.00    +0.109 C 
ENDBRANCH  10  13
ENDBRANCH   7  10
ENDBRANCH   2   4
ENDBRANCH   1   2
BRANCH   1  20
ATOM     20  C   UNL     1       3.614   2.015  -0.056  0.00  0.00    +0.328 C 
BRANCH  20  25
ATOM     21  N   UNL     1      -1.191   1.869   0.018  0.00  0.00    -0.269 N 
ATOM     22  C   UNL     1      -0.014   1.212   0.005  0.00  0.00    +0.310 C 
ATOM     23  O   UNL     1       0.003  -0.004   0.006  0.00  0.00    -0.252 OA
ATOM     24  N   UNL     1       1.143   1.901  -0.015  0.00  0.00    -0.237 N 
ATOM     25  C   UNL     1       2.320   1.244  -0.034  0.00  0.00    +0.258 C 
ATOM     26  O   UNL     1       2.336   0.032  -0.032  0.00  0.00    -0.272 OA
ATOM     27  H   UNL     1      -1.207   2.965   0.110  0.00  0.00    +0.156 HD
ATOM     28  H   UNL     1       1.128   3.001  -0.016  0.00  0.00    +0.159 HD
BRANCH  21  33
ATOM     29  C   UNL     1      -6.057  -1.016  -0.401  0.00  0.00    +0.044 C 
ATOM     30  C   UNL     1      -4.765  -0.250  -0.290  0.00  0.00    -0.050 A 
ATOM     31  C   UNL     1      -3.597  -0.788  -0.799  0.00  0.00    +0.005 A 
ATOM     32  C   UNL     1      -2.411  -0.089  -0.699  0.00  0.00    +0.024 A 
ATOM     33  C   UNL     1      -2.391   1.158  -0.086  0.00  0.00    +0.038 A 
ATOM     34  C   UNL     1      -3.564   1.694   0.428  0.00  0.00    -0.029 A 
ATOM     35  C   UNL     1      -4.748   0.991   0.321  0.00  0.00    +0.008 A 
ATOM     36  C   UNL     1      -3.546   3.043   1.099  0.00  0.00    +0.045 C 
ENDBRANCH  21  33
ENDBRANCH  20  25
ENDBRANCH   1  20
TORSDOF 7
