REMARK  Name = ZINC21874764
REMARK  8 active torsions:
REMARK  status: ('A' for Active; 'I' for Inactive)
REMARK    1  A    between atoms: C_1  and  C_2
REMARK    2  A    between atoms: C_5  and  N_9
REMARK    3  A    between atoms: C_6  and  C_8
REMARK    4  A    between atoms: C_10  and  C_12
REMARK    5  A    between atoms: C_18  and  C_23
REMARK    6  A    between atoms: C_18  and  C_24
REMARK    7  A    between atoms: N_19  and  C_22
REMARK    8  A    between atoms: N_26  and  C_27
REMARK                            x       y       z     vdW  Elec       q    Type
REMARK                         _______ _______ _______ _____ _____    ______ ____
ROOT
ATOM      1  C   UNL     1      -0.447  -2.076   0.259  0.00  0.00    +0.148 A 
ATOM      2  C   UNL     1       0.764  -2.016  -0.467  0.00  0.00    +0.067 A 
ATOM      3  C   UNL     1       1.012  -0.697  -0.632  0.00  0.00    +0.124 A 
ATOM      4  N   UNL     1      -0.015  -0.004  -0.025  0.00  0.00    -0.256 N 
ATOM      5  N   UNL     1      -0.842  -0.833   0.480  0.00  0.00    -0.166 NA
ATOM      6  C   UNL     1      -0.041   1.464  -0.026  0.00  0.00    +0.179 C 
ATOM      7  C   UNL     1       1.392   1.993  -0.045  0.00  0.00    +0.130 C 
ATOM      8  N   UNL     1       2.222   1.337  -1.049  0.00  0.00    -0.284 N 
ATOM      9  C   UNL     1       2.116   0.010  -1.304  0.00  0.00    +0.265 C 
ATOM     10  O   UNL     1       2.889  -0.565  -2.046  0.00  0.00    -0.268 OA
ATOM     11  C   UNL     1       3.194   2.133  -1.802  0.00  0.00    +0.133 C 
ATOM     12  C   UNL     1       1.361   3.495  -0.335  0.00  0.00    +0.044 C 
ENDROOT
BRANCH   1  14
ATOM     13  N   UNL     1      -2.300  -3.215   1.382  0.00  0.00    -0.280 N 
ATOM     14  C   UNL     1      -1.145  -3.304   0.693  0.00  0.00    +0.268 C 
ATOM     15  O   UNL     1      -0.678  -4.395   0.427  0.00  0.00    -0.268 OA
ATOM     16  H   UNL     1      -2.675  -2.232   1.702  0.00  0.00    +0.155 HD
BRANCH  13  21
ATOM     17  C   UNL     1      -5.221  -7.912   2.640  0.00  0.00    +0.044 C 
ATOM     18  C   UNL     1      -4.445  -6.664   2.306  0.00  0.00    -0.050 A 
ATOM     19  C   UNL     1      -3.593  -6.653   1.217  0.00  0.00    +0.005 A 
ATOM     20  C   UNL     1      -2.880  -5.511   0.908  0.00  0.00    +0.024 A 
ATOM     21  C   UNL     1      -3.020  -4.373   1.692  0.00  0.00    +0.037 A 
ATOM     22  C   UNL     1      -3.873  -4.390   2.788  0.00  0.00    -0.029 A 
ATOM     23  C   UNL     1      -4.587  -5.533   3.089  0.00  0.00    +0.008 A 
ATOM     24  C   UNL     1      -4.023  -3.159   3.646  0.00  0.00    +0.045 C 
ENDBRANCH  13  21
ENDBRANCH   1  14
BRANCH   7  25
ATOM     25  C   UNL     1       2.008   1.775   1.313  0.00  0.00    +0.238 C 
ATOM     26  O   UNL     1       1.300   1.692   2.294  0.00  0.00    -0.273 OA
ATOM     27  N   UNL     1       3.346   1.674   1.438  0.00  0.00    -0.311 N 
ATOM     28  H   UNL     1       3.989   1.750   0.548  0.00  0.00    +0.149 HD
BRANCH  27  29
ATOM     29  C   UNL     1       3.945   1.463   2.758  0.00  0.00    +0.073 C 
ATOM     30  C   UNL     1       4.130   2.812   3.456  0.00  0.00    +0.022 C 
ATOM     31  C   UNL     1       4.755   2.591   4.835  0.00  0.00    +0.002 C 
ATOM     32  C   UNL     1       6.116   1.909   4.675  0.00  0.00    +0.000 C 
ATOM     33  C   UNL     1       5.931   0.560   3.977  0.00  0.00    +0.002 C 
ATOM     34  C   UNL     1       5.306   0.781   2.598  0.00  0.00    +0.022 C 
ENDBRANCH  27  29
ENDBRANCH   7  25
TORSDOF 4
