REMARK  Name = ZINC39606932
REMARK  7 active torsions:
REMARK  status: ('A' for Active; 'I' for Inactive)
REMARK    1  A    between atoms: C_1  and  C_2
REMARK    2  A    between atoms: C_9  and  C_14
REMARK    3  A    between atoms: C_14  and  O_16
REMARK    4  A    between atoms: O_16  and  C_17
REMARK    5  A    between atoms: C_17  and  C_18
REMARK    6  A    between atoms: C_20  and  O_21
REMARK    7  A    between atoms: C_30  and  C_32
REMARK                            x       y       z     vdW  Elec       q    Type
REMARK                         _______ _______ _______ _____ _____    ______ ____
ROOT
ATOM      1  C   UNL     1       8.460   1.269   0.891  0.00  0.00    +0.269 C 
ENDROOT
BRANCH   1   2
ATOM      2  C   UNL     1       9.642   1.392   1.817  0.00  0.00    +0.007 A 
ATOM      3  C   UNL     1      10.050   0.321   2.587  0.00  0.00    +0.095 A 
ATOM      4  C   UNL     1      11.141   0.453   3.434  0.00  0.00    +0.285 A 
ATOM      5  O   UNL     1      11.816   1.603   3.526  0.00  0.00    -0.425 OA
ATOM      6  C   UNL     1      11.460   2.681   2.796  0.00  0.00    +0.141 A 
ATOM      7  C   UNL     1      10.361   2.602   1.913  0.00  0.00    +0.024 A 
ATOM      8  C   UNL     1       9.990   3.722   1.147  0.00  0.00    +0.014 A 
ATOM      9  C   UNL     1      10.694   4.879   1.254  0.00  0.00    +0.024 A 
ATOM     10  C   UNL     1      11.794   4.965   2.126  0.00  0.00    +0.037 A 
ATOM     11  C   UNL     1      12.167   3.866   2.901  0.00  0.00    +0.070 A 
ATOM     12  N   UNL     1      12.491   6.130   2.223  0.00  0.00    -0.286 N 
ATOM     13  C   UNL     1      13.686   6.139   2.781  0.00  0.00    +0.214 C 
ATOM     14  O   UNL     1      14.217   5.090   3.099  0.00  0.00    -0.276 OA
ATOM     15  C   UNL     1      14.394   7.447   3.027  0.00  0.00    +0.109 C 
ATOM     16  H   UNL     1      12.109   6.954   1.882  0.00  0.00    +0.155 HD
BRANCH   4  17
ATOM     17  O   UNL     1      11.528  -0.600   4.179  0.00  0.00    -0.480 OA
ATOM     18  H   UNL     1      12.295  -0.423   4.741  0.00  0.00    +0.295 HD
ENDBRANCH   4  17
ENDBRANCH   1   2
BRANCH   1  19
ATOM     19  O   UNL     1       7.319   0.828   1.630  0.00  0.00    -0.456 OA
BRANCH  19  20
ATOM     20  C   UNL     1       6.198   0.568   0.929  0.00  0.00    +0.340 C 
ATOM     21  O   UNL     1       6.215   0.623  -0.285  0.00  0.00    -0.245 OA
BRANCH  20  29
ATOM     22  C   UNL     1      -0.157   1.438   2.979  0.00  0.00    +0.029 C 
ATOM     23  C   UNL     1      -0.149  -0.074   2.746  0.00  0.00    +0.134 C 
ATOM     24  C   UNL     1       0.180  -0.360   1.306  0.00  0.00    +0.230 C 
ATOM     25  O   UNL     1      -0.738  -0.522   0.530  0.00  0.00    -0.274 OA
ATOM     26  N   UNL     1       1.422  -0.445   0.837  0.00  0.00    -0.284 N 
ATOM     27  C   UNL     1       2.594  -0.279   1.571  0.00  0.00    +0.048 A 
ATOM     28  C   UNL     1       3.767   0.052   0.913  0.00  0.00    +0.039 A 
ATOM     29  C   UNL     1       4.953   0.217   1.633  0.00  0.00    +0.061 A 
ATOM     30  C   UNL     1       4.960   0.051   3.022  0.00  0.00    +0.016 A 
ATOM     31  C   UNL     1       3.793  -0.275   3.677  0.00  0.00    +0.017 A 
ATOM     32  C   UNL     1       2.615  -0.438   2.961  0.00  0.00    +0.030 A 
ATOM     33  S   UNL     1       1.113  -0.847   3.803  0.00  0.00    -0.111 S 
ATOM     34  H   UNL     1       1.521  -0.642  -0.108  0.00  0.00    +0.155 HD
ENDBRANCH  20  29
ENDBRANCH  19  20
ENDBRANCH   1  19
TORSDOF 5
