REMARK  Name = ZINC35704079
REMARK  14 active torsions:
REMARK  status: ('A' for Active; 'I' for Inactive)
REMARK    1  A    between atoms: C_1  and  C_2
REMARK    2  A    between atoms: C_2  and  C_3
REMARK    3  A    between atoms: C_2  and  N_4
REMARK    4  A    between atoms: C_5  and  C_7
REMARK    5  A    between atoms: C_10  and  C_12
REMARK    6  A    between atoms: C_12  and  N_13
REMARK    7  A    between atoms: N_13  and  C_14
REMARK    8  A    between atoms: N_13  and  C_25
REMARK    9  A    between atoms: C_14  and  C_15
REMARK   10  A    between atoms: C_18  and  C_21
REMARK   11  A    between atoms: C_21  and  C_22
REMARK   12  A    between atoms: C_21  and  C_23
REMARK   13  A    between atoms: C_21  and  C_24
REMARK   14  A    between atoms: C_25  and  C_26
REMARK                            x       y       z     vdW  Elec       q    Type
REMARK                         _______ _______ _______ _____ _____    ______ ____
ROOT
ATOM      1  N   UNL     1      -7.235  -0.414  -1.095  0.00  0.00    +0.391 N 
ATOM      2  H   UNL     1      -6.758   0.334  -1.577  0.00  0.00    -0.080 HD
ENDROOT
BRANCH   1   3
ATOM      3  C   UNL     1      -6.343  -0.989  -0.079  0.00  0.00    +0.020 C 
BRANCH   3   7
ATOM      4  C   UNL     1      -3.037  -1.402  -1.500  0.00  0.00    +0.163 A 
ATOM      5  C   UNL     1      -3.560  -2.635  -1.737  0.00  0.00    +0.230 A 
ATOM      6  O   UNL     1      -4.812  -2.629  -1.252  0.00  0.00    -0.449 OA
ATOM      7  C   UNL     1      -5.053  -1.418  -0.729  0.00  0.00    +0.179 A 
ATOM      8  N   UNL     1      -3.996  -0.674  -0.866  0.00  0.00    -0.210 NA
BRANCH   4  10
ATOM      9  N   UNL     1      -1.295   0.313  -1.555  0.00  0.00    -0.308 N 
ATOM     10  C   UNL     1      -1.683  -0.942  -1.858  0.00  0.00    +0.266 C 
ATOM     11  O   UNL     1      -0.915  -1.694  -2.427  0.00  0.00    -0.268 OA
ATOM     12  H   UNL     1      -1.907   0.913  -1.101  0.00  0.00    +0.149 HD
BRANCH   9  14
ATOM     13  C   UNL     1       0.052   2.293  -2.051  0.00  0.00    +0.027 C 
ATOM     14  C   UNL     1       0.051   0.770  -1.911  0.00  0.00    +0.067 C 
ATOM     15  C   UNL     1       1.036   0.358  -0.815  0.00  0.00    +0.027 C 
ENDBRANCH   9  14
ENDBRANCH   4  10
ENDBRANCH   3   7
ENDBRANCH   1   3
BRANCH   1  16
ATOM     16  C   UNL     1      -8.442   0.113  -0.445  0.00  0.00    -0.042 C 
BRANCH  16  17
ATOM     17  C   UNL     1      -8.070   1.272   0.442  0.00  0.00    -0.064 A 
ATOM     18  C   UNL     1      -7.846   1.067   1.791  0.00  0.00    +0.002 A 
ATOM     19  C   UNL     1      -7.504   2.130   2.605  0.00  0.00    +0.004 A 
ATOM     20  C   UNL     1      -7.386   3.400   2.071  0.00  0.00    -0.042 A 
ATOM     21  C   UNL     1      -7.608   3.605   0.722  0.00  0.00    +0.004 A 
ATOM     22  C   UNL     1      -7.946   2.541  -0.093  0.00  0.00    +0.002 A 
BRANCH  20  23
ATOM     23  C   UNL     1      -7.014   4.559   2.959  0.00  0.00    -0.013 C 
ATOM     24  C   UNL     1      -5.700   4.249   3.679  0.00  0.00    +0.015 C 
ATOM     25  C   UNL     1      -6.844   5.819   2.107  0.00  0.00    +0.015 C 
ATOM     26  C   UNL     1      -8.120   4.786   3.991  0.00  0.00    +0.015 C 
ENDBRANCH  20  23
ENDBRANCH  16  17
ENDBRANCH   1  16
BRANCH   1  27
ATOM     27  C   UNL     1      -7.613  -1.455  -2.060  0.00  0.00    -0.042 C 
BRANCH  27  28
ATOM     28  C   UNL     1      -8.425  -0.839  -3.171  0.00  0.00    -0.060 A 
ATOM     29  C   UNL     1      -9.806  -0.869  -3.114  0.00  0.00    +0.005 A 
ATOM     30  C   UNL     1     -10.555  -0.305  -4.130  0.00  0.00    +0.050 A 
ATOM     31  C   UNL     1      -9.922   0.291  -5.209  0.00  0.00    +0.166 A 
ATOM     32  C   UNL     1      -8.531   0.321  -5.266  0.00  0.00    +0.166 A 
ATOM     33  C   UNL     1      -7.787  -0.241  -4.242  0.00  0.00    +0.051 A 
ATOM     34  O   UNL     1      -8.155   0.955  -6.415  0.00  0.00    -0.453 OA
ATOM     35  C   UNL     1      -9.324   0.952  -7.256  0.00  0.00    +0.466 C 
ATOM     36  O   UNL     1     -10.418   0.907  -6.321  0.00  0.00    -0.453 OA
ENDBRANCH  27  28
ENDBRANCH   1  27
TORSDOF 9
