REMARK  Name = ZINC36571451
REMARK  14 active torsions:
REMARK  status: ('A' for Active; 'I' for Inactive)
REMARK    1  A    between atoms: C_1  and  C_2
REMARK    2  A    between atoms: C_2  and  C_3
REMARK    3  A    between atoms: C_3  and  N_4
REMARK    4  A    between atoms: N_4  and  C_5
REMARK    5  A    between atoms: C_5  and  C_7
REMARK    6  A    between atoms: C_5  and  C_14
REMARK    7  A    between atoms: C_10  and  C_13
REMARK    8  A    between atoms: N_16  and  C_17
REMARK    9  A    between atoms: C_17  and  S_18
REMARK   10  A    between atoms: S_18  and  C_21
REMARK   11  A    between atoms: C_24  and  C_27
REMARK   12  A    between atoms: C_28  and  C_30
REMARK   13  A    between atoms: C_34  and  O_37
REMARK   14  A    between atoms: C_35  and  O_36
REMARK                            x       y       z     vdW  Elec       q    Type
REMARK                         _______ _______ _______ _____ _____    ______ ____
ROOT
ATOM      1  C   UNL     1      -0.501  -3.219  -0.509  0.00  0.00    +0.192 C 
ENDROOT
BRANCH   1   2
ATOM      2  C   UNL     1      -1.242  -2.987  -1.801  0.00  0.00    -0.018 A 
ATOM      3  C   UNL     1      -1.125  -1.776  -2.457  0.00  0.00    +0.006 A 
ATOM      4  C   UNL     1      -1.804  -1.563  -3.641  0.00  0.00    +0.004 A 
ATOM      5  C   UNL     1      -2.601  -2.561  -4.170  0.00  0.00    -0.050 A 
ATOM      6  C   UNL     1      -2.718  -3.772  -3.515  0.00  0.00    +0.004 A 
ATOM      7  C   UNL     1      -2.035  -3.987  -2.333  0.00  0.00    +0.006 A 
ATOM      8  C   UNL     1      -3.343  -2.328  -5.462  0.00  0.00    +0.044 C 
ENDBRANCH   1   2
BRANCH   1   9
ATOM      9  C   UNL     1      -1.462  -3.723   0.537  0.00  0.00    +0.239 C 
ATOM     10  O   UNL     1      -1.957  -2.948   1.329  0.00  0.00    -0.273 OA
ATOM     11  N   UNL     1      -1.771  -5.033   0.594  0.00  0.00    -0.294 N 
ATOM     12  H   UNL     1      -1.375  -5.652  -0.039  0.00  0.00    +0.150 HD
BRANCH  11  13
ATOM     13  C   UNL     1      -2.705  -5.522   1.611  0.00  0.00    +0.278 C 
BRANCH  13  14
ATOM     14  S   UNL     1      -4.376  -5.602   0.910  0.00  0.00    +0.013 S 
ATOM     15  O   UNL     1      -5.283  -6.135   1.865  0.00  0.00    -0.168 OA
ATOM     16  O   UNL     1      -4.676  -4.396   0.220  0.00  0.00    -0.168 OA
BRANCH  14  17
ATOM     17  C   UNL     1      -4.279  -6.829  -0.351  0.00  0.00    +0.090 A 
ATOM     18  C   UNL     1      -3.942  -6.468  -1.642  0.00  0.00    +0.027 A 
ATOM     19  C   UNL     1      -3.866  -7.431  -2.632  0.00  0.00    +0.005 A 
ATOM     20  C   UNL     1      -4.128  -8.754  -2.330  0.00  0.00    -0.050 A 
ATOM     21  C   UNL     1      -4.465  -9.115  -1.039  0.00  0.00    +0.005 A 
ATOM     22  C   UNL     1      -4.536  -8.153  -0.049  0.00  0.00    +0.027 A 
ATOM     23  C   UNL     1      -4.046  -9.803  -3.409  0.00  0.00    +0.044 C 
ENDBRANCH  14  17
ENDBRANCH  13  14
ENDBRANCH  11  13
ENDBRANCH   1   9
BRANCH   1  24
ATOM     24  N   UNL     1       0.098  -1.962  -0.057  0.00  0.00    -0.282 N 
ATOM     25  C   UNL     1       1.438  -1.847   0.032  0.00  0.00    +0.251 C 
ATOM     26  O   UNL     1       1.940  -0.776   0.313  0.00  0.00    -0.270 OA
BRANCH  25  27
ATOM     27  C   UNL     1       2.296  -3.022  -0.213  0.00  0.00    +0.082 A 
ATOM     28  C   UNL     1       2.111  -3.801  -1.359  0.00  0.00    +0.017 A 
ATOM     29  C   UNL     1       2.915  -4.897  -1.585  0.00  0.00    +0.005 A 
ATOM     30  C   UNL     1       3.909  -5.234  -0.680  0.00  0.00    +0.049 A 
ATOM     31  C   UNL     1       4.104  -4.473   0.460  0.00  0.00    +0.159 A 
ATOM     32  C   UNL     1       3.304  -3.360   0.698  0.00  0.00    +0.171 A 
BRANCH  32  33
ATOM     33  O   UNL     1       3.497  -2.607   1.812  0.00  0.00    -0.503 OA
ATOM     34  H   UNL     1       2.982  -2.898   2.577  0.00  0.00    +0.292 HD
ENDBRANCH  32  33
BRANCH  31  35
ATOM     35  O   UNL     1       5.082  -4.810   1.343  0.00  0.00    -0.503 OA
ATOM     36  H   UNL     1       5.937  -4.398   1.160  0.00  0.00    +0.292 HD
ENDBRANCH  31  35
ENDBRANCH  25  27
BRANCH  24  37
ATOM     37  C   UNL     1      -0.758  -0.828   0.299  0.00  0.00    +0.109 C 
BRANCH  37  39
ATOM     38  C   UNL     1      -1.560   0.605   2.182  0.00  0.00    +0.005 C 
ATOM     39  C   UNL     1      -0.577  -0.497   1.782  0.00  0.00    +0.016 C 
ENDBRANCH  37  39
ENDBRANCH  24  37
ENDBRANCH   1  24
TORSDOF 11
