REMARK  Name = ZINC48478995
REMARK  9 active torsions:
REMARK  status: ('A' for Active; 'I' for Inactive)
REMARK    1  A    between atoms: C_1  and  C_2
REMARK    2  A    between atoms: C_2  and  C_3
REMARK    3  A    between atoms: C_2  and  C_4
REMARK    4  A    between atoms: C_4  and  C_6
REMARK    5  A    between atoms: C_4  and  N_13
REMARK    6  A    between atoms: N_8  and  S_9
REMARK    7  A    between atoms: S_9  and  C_12
REMARK    8  A    between atoms: N_13  and  C_14
REMARK    9  A    between atoms: C_17  and  C_21
REMARK                            x       y       z     vdW  Elec       q    Type
REMARK                         _______ _______ _______ _____ _____    ______ ____
ROOT
ATOM      1  N   UNL     1      -2.105  -0.148  -1.230  0.00  0.00    -0.331 N 
ATOM      2  H   UNL     1      -2.648   0.655  -1.260  0.00  0.00    +0.147 HD
ENDROOT
BRANCH   1   3
ATOM      3  C   UNL     1      -1.965  -0.938  -2.375  0.00  0.00    +0.046 A 
ATOM      4  C   UNL     1      -1.193  -2.092  -2.333  0.00  0.00    +0.025 A 
ATOM      5  C   UNL     1      -1.056  -2.871  -3.466  0.00  0.00    +0.014 A 
ATOM      6  C   UNL     1      -1.687  -2.504  -4.640  0.00  0.00    +0.056 A 
ATOM      7  C   UNL     1      -2.456  -1.356  -4.686  0.00  0.00    +0.034 A 
ATOM      8  C   UNL     1      -2.602  -0.574  -3.555  0.00  0.00    +0.062 A 
ATOM      9 CL   UNL     1      -3.573   0.863  -3.611  0.00  0.00    -0.082 Cl
BRANCH   6  10
ATOM     10  C   UNL     1      -1.534  -3.356  -5.874  0.00  0.00    +0.417 C 
ATOM     11  F   UNL     1      -2.549  -4.318  -5.904  0.00  0.00    -0.166 F 
ATOM     12  F   UNL     1      -1.623  -2.548  -7.013  0.00  0.00    -0.166 F 
ATOM     13  F   UNL     1      -0.289  -3.993  -5.850  0.00  0.00    -0.166 F 
ENDBRANCH   6  10
ENDBRANCH   1   3
BRANCH   1  14
ATOM     14  C   UNL     1      -1.433  -0.534   0.013  0.00  0.00    +0.165 C 
BRANCH  14  16
ATOM     15  C   UNL     1      -0.019   1.526   0.010  0.00  0.00    +0.009 C 
ATOM     16  C   UNL     1       0.002  -0.004   0.002  0.00  0.00    +0.012 C 
ATOM     17  C   UNL     1       0.742  -0.511   1.242  0.00  0.00    +0.009 C 
ENDBRANCH  14  16
BRANCH  14  18
ATOM     18  C   UNL     1      -2.175   0.051   1.187  0.00  0.00    +0.284 C 
ATOM     19  O   UNL     1      -2.928   1.159   1.026  0.00  0.00    -0.267 OA
ATOM     20  N   UNL     1      -2.092  -0.509   2.347  0.00  0.00    -0.094 NA
BRANCH  20  21
ATOM     21  S   UNL     1      -2.907   0.133   3.637  0.00  0.00    +0.070 S 
ATOM     22  O   UNL     1      -2.324   1.414   3.834  0.00  0.00    -0.152 OA
ATOM     23  O   UNL     1      -4.281   0.008   3.296  0.00  0.00    -0.152 OA
ATOM     24  C   UNL     1      -2.507  -0.956   5.031  0.00  0.00    +0.223 C 
ENDBRANCH  20  21
ENDBRANCH  14  18
ENDBRANCH   1  14
TORSDOF 6
