REMARK  Name = ZINC65449586
REMARK  5 active torsions:
REMARK  status: ('A' for Active; 'I' for Inactive)
REMARK    1  A    between atoms: C_1  and  C_2
REMARK    2  A    between atoms: C_6  and  C_8
REMARK    3  A    between atoms: C_6  and  C_9
REMARK    4  A    between atoms: N_12  and  C_13
REMARK    5  A    between atoms: C_18  and  N_19
REMARK                            x       y       z     vdW  Elec       q    Type
REMARK                         _______ _______ _______ _____ _____    ______ ____
ROOT
ATOM      1  C   UNL     1      -0.250   1.657   0.089  0.00  0.00    +0.039 C 
ATOM      2  C   UNL     1      -0.067   0.152  -0.110  0.00  0.00    +0.133 C 
ATOM      3  C   UNL     1      -1.423  -0.551   0.025  0.00  0.00    +0.140 C 
ATOM      4  N   UNL     1      -1.196  -2.005   0.017  0.00  0.00    -0.280 N 
ATOM      5  C   UNL     1      -0.182  -2.551   0.933  0.00  0.00    +0.143 C 
ATOM      6  C   UNL     1       1.113  -1.751   0.754  0.00  0.00    +0.080 C 
ATOM      7  O   UNL     1       0.827  -0.356   0.883  0.00  0.00    -0.368 OA
ATOM      8  C   UNL     1       1.696  -2.027  -0.633  0.00  0.00    +0.043 C 
ATOM      9  C   UNL     1       2.123  -2.167   1.826  0.00  0.00    +0.043 C 
ATOM     10  C   UNL     1      -1.895  -2.812  -0.805  0.00  0.00    +0.307 C 
ATOM     11  O   UNL     1      -1.629  -3.997  -0.864  0.00  0.00    -0.252 OA
ATOM     12  N   UNL     1      -2.889  -2.306  -1.561  0.00  0.00    -0.268 N 
ATOM     13  H   UNL     1      -3.059  -1.351  -1.563  0.00  0.00    +0.156 HD
ENDROOT
BRANCH  12  14
ATOM     14  C   UNL     1      -3.678  -3.160  -2.345  0.00  0.00    +0.056 A 
ATOM     15  C   UNL     1      -3.701  -4.521  -2.082  0.00  0.00    +0.025 A 
ATOM     16  C   UNL     1      -4.480  -5.361  -2.856  0.00  0.00    +0.002 A 
ATOM     17  C   UNL     1      -5.237  -4.848  -3.893  0.00  0.00    +0.002 A 
ATOM     18  C   UNL     1      -5.220  -3.493  -4.162  0.00  0.00    +0.025 A 
ATOM     19  C   UNL     1      -4.447  -2.642  -3.386  0.00  0.00    +0.051 A 
BRANCH  19  20
ATOM     20  N   UNL     1      -4.433  -1.268  -3.653  0.00  0.00    -0.328 N 
ATOM     21  C   UNL     1      -3.461  -0.698  -4.595  0.00  0.00    +0.105 C 
ATOM     22  C   UNL     1      -4.217   0.116  -5.651  0.00  0.00    +0.019 C 
ATOM     23  C   UNL     1      -5.100   1.153  -4.954  0.00  0.00    +0.003 C 
ATOM     24  C   UNL     1      -6.125   0.441  -4.068  0.00  0.00    +0.019 C 
ATOM     25  C   UNL     1      -5.394  -0.369  -2.999  0.00  0.00    +0.105 C 
ENDBRANCH  19  20
ENDBRANCH  12  14
TORSDOF 2
