REMARK  Name = ZINC09972964
REMARK  11 active torsions:
REMARK  status: ('A' for Active; 'I' for Inactive)
REMARK    1  A    between atoms: C_1  and  C_2
REMARK    2  A    between atoms: C_5  and  N_8
REMARK    3  A    between atoms: C_12  and  C_13
REMARK    4  A    between atoms: C_16  and  O_21
REMARK    5  A    between atoms: C_17  and  O_19
REMARK    6  A    between atoms: O_19  and  C_20
REMARK    7  A    between atoms: O_21  and  C_22
REMARK    8  A    between atoms: C_22  and  C_23
REMARK    9  A    between atoms: C_26  and  C_28
REMARK   10  A    between atoms: C_28  and  O_30
REMARK   11  A    between atoms: O_30  and  C_31
REMARK                            x       y       z     vdW  Elec       q    Type
REMARK                         _______ _______ _______ _____ _____    ______ ____
ROOT
ATOM      1  C   UNL     1       5.932   8.084  -0.605  0.00  0.00    -0.020 A 
ATOM      2  C   UNL     1       6.313   8.097   0.746  0.00  0.00    +0.012 A 
ATOM      3  C   UNL     1       6.363   6.920   1.457  0.00  0.00    +0.050 A 
ATOM      4  C   UNL     1       6.037   5.717   0.842  0.00  0.00    +0.163 A 
ATOM      5  C   UNL     1       5.662   5.694  -0.503  0.00  0.00    +0.162 A 
ATOM      6  C   UNL     1       5.603   6.868  -1.224  0.00  0.00    +0.057 A 
ENDROOT
BRANCH   1  11
ATOM      7  N   UNL     1       3.839  11.466   0.856  0.00  0.00    -0.217 N 
ATOM      8  C   UNL     1       4.423  10.342   0.391  0.00  0.00    +0.262 C 
ATOM      9  O   UNL     1       4.274   9.279   0.962  0.00  0.00    -0.269 OA
ATOM     10  C   UNL     1       5.248  10.440  -0.829  0.00  0.00    +0.100 C 
ATOM     11  C   UNL     1       5.878   9.332  -1.364  0.00  0.00    +0.026 C 
ATOM     12  C   UNL     1       5.376  11.774  -1.448  0.00  0.00    +0.255 C 
ATOM     13  O   UNL     1       6.043  11.936  -2.452  0.00  0.00    -0.270 OA
ATOM     14  N   UNL     1       4.728  12.808  -0.872  0.00  0.00    -0.263 N 
ATOM     15  C   UNL     1       3.995  12.645   0.237  0.00  0.00    +0.150 C 
ATOM     16  S   UNL     1       3.215  14.017   0.901  0.00  0.00    -0.018 S 
ATOM     17  H   UNL     1       4.798  13.691  -1.268  0.00  0.00    +0.157 HD
BRANCH   7  22
ATOM     18  C   UNL     1       0.644  11.195   5.538  0.00  0.00    +0.044 C 
ATOM     19  C   UNL     1       1.492  11.267   4.295  0.00  0.00    -0.050 A 
ATOM     20  C   UNL     1       0.929  11.008   3.059  0.00  0.00    +0.005 A 
ATOM     21  C   UNL     1       1.704  11.073   1.917  0.00  0.00    +0.024 A 
ATOM     22  C   UNL     1       3.050  11.399   2.012  0.00  0.00    +0.043 A 
ATOM     23  C   UNL     1       3.615  11.653   3.255  0.00  0.00    +0.024 A 
ATOM     24  C   UNL     1       2.833  11.593   4.392  0.00  0.00    +0.005 A 
ENDBRANCH   7  22
ENDBRANCH   1  11
BRANCH   5  25
ATOM     25  O   UNL     1       5.349   4.513  -1.101  0.00  0.00    -0.491 OA
ATOM     26  C   UNL     1       4.973   4.563  -2.479  0.00  0.00    +0.277 C 
ENDBRANCH   5  25
BRANCH   4  27
ATOM     27  O   UNL     1       6.088   4.560   1.549  0.00  0.00    -0.481 OA
BRANCH  27  28
ATOM     28  C   UNL     1       6.485   4.654   2.918  0.00  0.00    +0.303 C 
BRANCH  28  29
ATOM     29  C   UNL     1       6.485   3.280   3.537  0.00  0.00    +0.143 A 
ATOM     30  C   UNL     1       7.534   2.429   3.565  0.00  0.00    +0.049 A 
ATOM     31  C   UNL     1       7.109   1.269   4.231  0.00  0.00    +0.057 A 
ATOM     32  C   UNL     1       5.802   1.472   4.576  0.00  0.00    +0.212 A 
ATOM     33  O   UNL     1       5.444   2.701   4.150  0.00  0.00    -0.450 OA
BRANCH  32  34
ATOM     34  C   UNL     1       4.942   0.522   5.285  0.00  0.00    +0.375 C 
ATOM     35  O   UNL     1       5.380  -0.561   5.622  0.00  0.00    -0.241 OA
BRANCH  34  36
ATOM     36  O   UNL     1       3.663   0.849   5.565  0.00  0.00    -0.462 OA
ATOM     37  C   UNL     1       2.869  -0.141   6.270  0.00  0.00    +0.280 C 
ENDBRANCH  34  36
ENDBRANCH  32  34
ENDBRANCH  28  29
ENDBRANCH  27  28
ENDBRANCH   4  27
TORSDOF 8
