REMARK  Name = ZINC11905563
REMARK  3 active torsions:
REMARK  status: ('A' for Active; 'I' for Inactive)
REMARK    1  A    between atoms: C_3  and  C_9
REMARK    2  A    between atoms: C_9  and  S_10
REMARK    3  A    between atoms: S_10  and  C_11
REMARK                            x       y       z     vdW  Elec       q    Type
REMARK                         _______ _______ _______ _____ _____    ______ ____
ROOT
ATOM      1  C   UNL     1      -4.207   1.046   2.338  0.00  0.00    +0.169 A 
ATOM      2  N   UNL     1      -4.881   0.733   1.196  0.00  0.00    -0.302 N 
ATOM      3  H   UNL     1      -5.833   0.552   1.225  0.00  0.00    +0.171 HD
ATOM      4  C   UNL     1      -4.213   0.677   0.027  0.00  0.00    +0.255 A 
ATOM      5  O   UNL     1      -4.799   0.395  -1.006  0.00  0.00    -0.267 OA
ATOM      6  C   UNL     1      -2.829   0.948   0.011  0.00  0.00    +0.038 A 
ATOM      7  C   UNL     1      -2.208   1.262   1.178  0.00  0.00    +0.052 A 
ATOM      8  N   UNL     1      -2.915   1.299   2.314  0.00  0.00    -0.228 NA
ATOM      9  C   UNL     1      -0.738   1.584   1.257  0.00  0.00    +0.056 C 
ATOM     10  C   UNL     1      -0.013   1.086   0.008  0.00  0.00    +0.006 C 
ATOM     11  C   UNL     1      -0.765   1.599  -1.226  0.00  0.00    +0.005 C 
ATOM     12  C   UNL     1      -2.107   0.873  -1.306  0.00  0.00    +0.042 C 
ENDROOT
BRANCH   1  13
ATOM     13  S   UNL     1      -5.076   1.112   3.869  0.00  0.00    -0.083 S 
BRANCH  13  14
ATOM     14  C   UNL     1      -3.719   1.556   4.982  0.00  0.00    +0.114 C 
BRANCH  14  17
ATOM     15  C   UNL     1      -4.730   0.671   8.510  0.00  0.00    +0.020 A 
ATOM     16  C   UNL     1      -4.251   0.565   7.217  0.00  0.00    +0.007 A 
ATOM     17  C   UNL     1      -4.242   1.672   6.390  0.00  0.00    -0.019 A 
ATOM     18  C   UNL     1      -4.708   2.888   6.857  0.00  0.00    +0.046 A 
ATOM     19  C   UNL     1      -5.192   2.994   8.149  0.00  0.00    +0.040 A 
ATOM     20  C   UNL     1      -5.201   1.885   8.976  0.00  0.00    +0.042 A 
ATOM     21 CL   UNL     1      -5.803   2.017  10.599  0.00  0.00    -0.083 Cl
ATOM     22 CL   UNL     1      -4.690   4.281   5.821  0.00  0.00    -0.083 Cl
ENDBRANCH  14  17
ENDBRANCH  13  14
ENDBRANCH   1  13
TORSDOF 3
