REMARK  Name = ZINC19236589
REMARK  6 active torsions:
REMARK  status: ('A' for Active; 'I' for Inactive)
REMARK    1  A    between atoms: C_1  and  C_2
REMARK    2  A    between atoms: C_11  and  C_12
REMARK    3  A    between atoms: C_12  and  C_13
REMARK    4  A    between atoms: C_13  and  C_15
REMARK    5  A    between atoms: C_13  and  N_16
REMARK    6  A    between atoms: C_17  and  C_19
REMARK                            x       y       z     vdW  Elec       q    Type
REMARK                         _______ _______ _______ _____ _____    ______ ____
ROOT
ATOM      1  C   UNL     1       2.422   1.183  -0.015  0.00  0.00    +0.074 C 
ATOM      2  C   UNL     1       2.819   0.817   1.417  0.00  0.00    +0.028 C 
ENDROOT
BRANCH   1   3
ATOM      3  N   UNL     1       1.143   1.898   0.001  0.00  0.00    -0.312 N 
ATOM      4  C   UNL     1      -0.014   1.209   0.009  0.00  0.00    +0.217 C 
ATOM      5  O   UNL     1       0.002  -0.004   0.002  0.00  0.00    -0.275 OA
ATOM      6  H   UNL     1       1.129   2.998   0.007  0.00  0.00    +0.149 HD
BRANCH   4   7
ATOM      7  C   UNL     1      -1.330   1.944   0.019  0.00  0.00    +0.082 C 
ATOM      8  C   UNL     1      -2.191   1.842   1.287  0.00  0.00    +0.005 C 
ATOM      9  C   UNL     1      -2.603   1.109   0.020  0.00  0.00    +0.005 C 
ATOM     10  C   UNL     1      -3.816   1.578  -0.769  0.00  0.00    +0.004 C 
ATOM     11  C   UNL     1      -4.129   3.040  -0.452  0.00  0.00    +0.000 C 
ATOM     12  C   UNL     1      -4.293   3.187   1.065  0.00  0.00    +0.000 C 
ATOM     13  C   UNL     1      -2.910   3.120   1.713  0.00  0.00    +0.004 C 
ENDBRANCH   4   7
ENDBRANCH   1   3
BRANCH   1  14
ATOM     14  C   UNL     1       3.499   2.078  -0.630  0.00  0.00    +0.059 C 
BRANCH  14  25
ATOM     15  C   UNL     1       1.511   3.961  -6.271  0.00  0.00    +0.046 C 
ATOM     16  C   UNL     1       1.521   4.101  -4.771  0.00  0.00    -0.027 A 
ATOM     17  C   UNL     1       0.772   5.086  -4.164  0.00  0.00    +0.005 A 
ATOM     18  C   UNL     1       0.773   5.226  -2.783  0.00  0.00    +0.001 A 
ATOM     19  C   UNL     1       1.516   4.387  -2.001  0.00  0.00    +0.010 A 
ATOM     20  C   UNL     1       2.278   3.379  -2.594  0.00  0.00    +0.003 A 
ATOM     21  C   UNL     1       2.285   3.237  -3.994  0.00  0.00    +0.050 A 
ATOM     22  N   UNL     1       3.116   2.180  -4.290  0.00  0.00    -0.360 N 
ATOM     23  H   UNL     1       3.273   1.880  -5.337  0.00  0.00    +0.165 HD
ATOM     24  C   UNL     1       3.634   1.658  -3.137  0.00  0.00    +0.087 A 
ATOM     25  C   UNL     1       3.170   2.339  -2.077  0.00  0.00    -0.021 A 
ENDBRANCH  14  25
ENDBRANCH   1  14
TORSDOF 4
