REMARK  Name = ZINC44737474
REMARK  8 active torsions:
REMARK  status: ('A' for Active; 'I' for Inactive)
REMARK    1  A    between atoms: C_1  and  C_2
REMARK    2  A    between atoms: C_9  and  C_11
REMARK    3  A    between atoms: C_11  and  C_13
REMARK    4  A    between atoms: C_11  and  N_14
REMARK    5  A    between atoms: C_15  and  C_17
REMARK    6  A    between atoms: C_28  and  C_30
REMARK    7  A    between atoms: C_32  and  C_39
REMARK    8  A    between atoms: C_34  and  C_35
REMARK                            x       y       z     vdW  Elec       q    Type
REMARK                         _______ _______ _______ _____ _____    ______ ____
ROOT
ATOM      1  C   UNL     1      -1.583  -8.802   0.943  0.00  0.00    +0.100 C 
ATOM      2  C   UNL     1      -2.881  -8.256   0.305  0.00  0.00    +0.121 C 
ATOM      3  N   UNL     1      -3.790  -9.425   0.248  0.00  0.00    -0.296 N 
ATOM      4  C   UNL     1      -3.548 -10.143   1.523  0.00  0.00    +0.115 C 
ATOM      5  C   UNL     1      -2.026 -10.039   1.742  0.00  0.00    -0.004 C 
ATOM      6  C   UNL     1      -1.330 -11.288   1.210  0.00  0.00    -0.010 C 
ATOM      7  C   UNL     1      -1.742 -12.496   2.056  0.00  0.00    -0.082 C 
ATOM      8  N   UNL     1      -1.371 -12.264   3.457  0.00  0.00    +0.379 N 
ATOM      9  C   UNL     1      -2.114 -11.115   3.989  0.00  0.00    -0.082 C 
ATOM     10  C   UNL     1      -1.718  -9.849   3.224  0.00  0.00    -0.010 C 
ATOM     11  C   UNL     1      -4.644  -9.761  -0.739  0.00  0.00    +0.250 C 
ATOM     12  O   UNL     1      -4.647  -9.132  -1.780  0.00  0.00    -0.270 OA
ATOM     13  H   UNL     1      -1.587 -13.085   4.001  0.00  0.00    -0.086 HD
ATOM     14  H   UNL     1      -0.381 -12.077   3.514  0.00  0.00    -0.086 HD
ENDROOT
BRANCH  11  15
ATOM     15  C   UNL     1      -5.573 -10.890  -0.558  0.00  0.00    +0.087 A 
ATOM     16  C   UNL     1      -5.807 -11.659   0.673  0.00  0.00    +0.058 A 
ATOM     17  C   UNL     1      -6.732 -12.580   0.361  0.00  0.00    +0.103 A 
ATOM     18  O   UNL     1      -7.076 -12.440  -0.928  0.00  0.00    -0.455 OA
ATOM     19  C   UNL     1      -6.401 -11.435  -1.495  0.00  0.00    +0.220 A 
ATOM     20  C   UNL     1      -7.296 -13.607   1.309  0.00  0.00    +0.086 C 
BRANCH  19  21
ATOM     21  C   UNL     1      -6.530 -10.983  -2.927  0.00  0.00    +0.451 C 
ATOM     22  F   UNL     1      -5.617 -11.685  -3.722  0.00  0.00    -0.163 F 
ATOM     23  F   UNL     1      -7.830 -11.233  -3.379  0.00  0.00    -0.163 F 
ATOM     24  F   UNL     1      -6.263  -9.613  -3.010  0.00  0.00    -0.163 F 
ENDBRANCH  19  21
ENDBRANCH  11  15
BRANCH   1  26
ATOM     25  N   UNL     1       0.326  -7.848   2.193  0.00  0.00    -0.305 N 
ATOM     26  C   UNL     1      -0.978  -7.772   1.862  0.00  0.00    +0.219 C 
ATOM     27  O   UNL     1      -1.665  -6.876   2.305  0.00  0.00    -0.275 OA
ATOM     28  H   UNL     1       0.876  -8.565   1.839  0.00  0.00    +0.149 HD
BRANCH  25  29
ATOM     29  C   UNL     1       0.915  -6.847   3.086  0.00  0.00    +0.136 C 
ATOM     30  C   UNL     1       0.674  -7.257   4.540  0.00  0.00    +0.036 C 
BRANCH  29  39
ATOM     31  C   UNL     1       8.118  -5.149   2.308  0.00  0.00    +0.044 C 
ATOM     32  C   UNL     1       6.810  -5.896   2.284  0.00  0.00    -0.048 A 
ATOM     33  C   UNL     1       6.768  -7.198   1.805  0.00  0.00    +0.005 A 
ATOM     34  C   UNL     1       5.592  -7.892   1.775  0.00  0.00    +0.030 A 
ATOM     35  C   UNL     1       4.417  -7.290   2.232  0.00  0.00    +0.089 A 
ATOM     36  C   UNL     1       4.458  -5.972   2.718  0.00  0.00    +0.067 A 
ATOM     37  C   UNL     1       5.664  -5.284   2.745  0.00  0.00    +0.031 A 
ATOM     38  N   UNL     1       3.165  -5.662   3.088  0.00  0.00    -0.340 N 
ATOM     39  C   UNL     1       2.397  -6.754   2.830  0.00  0.00    +0.128 A 
ATOM     40  N   UNL     1       3.128  -7.707   2.329  0.00  0.00    -0.231 NA
ATOM     41  H   UNL     1       2.861  -4.821   3.464  0.00  0.00    +0.167 HD
ENDBRANCH  29  39
ENDBRANCH  25  29
ENDBRANCH   1  26
TORSDOF 5
