REMARK  Name = ZINC09666398
REMARK  8 active torsions:
REMARK  status: ('A' for Active; 'I' for Inactive)
REMARK    1  A    between atoms: C_1  and  C_2
REMARK    2  A    between atoms: C_2  and  O_3
REMARK    3  A    between atoms: O_3  and  C_4
REMARK    4  A    between atoms: C_7  and  C_10
REMARK    5  A    between atoms: C_10  and  C_32
REMARK    6  A    between atoms: N_13  and  C_17
REMARK    7  A    between atoms: C_17  and  N_58
REMARK    8  A    between atoms: C_21  and  C_23
REMARK                            x       y       z     vdW  Elec       q    Type
REMARK                         _______ _______ _______ _____ _____    ______ ____
ROOT
ATOM      1  C   UNL     1       1.437   1.773  -0.002  0.00  0.00    +0.135 C 
ATOM      2  C   UNL     1      -0.016   1.343   0.009  0.00  0.00    +0.249 C 
ATOM      3  O   UNL     1      -0.992   2.062   0.018  0.00  0.00    -0.272 OA
ATOM      4  N   UNL     1       0.002  -0.004   0.002  0.00  0.00    -0.241 N 
ATOM      5  C   UNL     1       1.252  -0.481  -0.013  0.00  0.00    +0.308 C 
ATOM      6  O   UNL     1       1.524  -1.665  -0.021  0.00  0.00    -0.252 OA
ATOM      7  N   UNL     1       2.175   0.498  -0.016  0.00  0.00    -0.281 N 
ATOM      8  C   UNL     1       1.748   2.588  -1.259  0.00  0.00    +0.047 C 
ATOM      9  H   UNL     1       3.139   0.386  -0.025  0.00  0.00    +0.152 HD
ENDROOT
BRANCH   1  13
ATOM     10  C   UNL     1       2.372   4.013   3.515  0.00  0.00    +0.121 A 
ATOM     11  C   UNL     1       3.352   3.251   2.896  0.00  0.00    +0.046 A 
ATOM     12  C   UNL     1       3.047   2.528   1.759  0.00  0.00    +0.010 A 
ATOM     13  C   UNL     1       1.767   2.563   1.238  0.00  0.00    -0.015 A 
ATOM     14  C   UNL     1       0.789   3.325   1.851  0.00  0.00    +0.010 A 
ATOM     15  C   UNL     1       1.087   4.046   2.991  0.00  0.00    +0.046 A 
BRANCH  10  16
ATOM     16  O   UNL     1       2.669   4.726   4.634  0.00  0.00    -0.492 OA
BRANCH  16  18
ATOM     17  C   UNL     1       2.131   6.216   6.458  0.00  0.00    +0.048 C 
ATOM     18  C   UNL     1       1.610   5.487   5.218  0.00  0.00    +0.225 C 
ENDBRANCH  16  18
ENDBRANCH  10  16
ENDBRANCH   1  13
BRANCH   4  19
ATOM     19  C   UNL     1      -1.199  -0.844   0.008  0.00  0.00    +0.043 C 
BRANCH  19  24
ATOM     20  C   UNL     1      -2.440  -0.014  -1.908  0.00  0.00    -0.076 C 
ATOM     21  C   UNL     1      -3.453  -0.702  -2.856  0.00  0.00    -0.020 C 
ATOM     22  C   UNL     1      -3.750  -2.020  -2.094  0.00  0.00    -0.010 C 
ATOM     23  C   UNL     1      -2.388  -2.368  -1.457  0.00  0.00    -0.009 C 
ATOM     24  N   UNL     1      -1.609  -1.118  -1.393  0.00  0.00    +0.396 N 
ATOM     25  H   UNL     1      -0.769  -1.211  -1.977  0.00  0.00    -0.079 HD
BRANCH  23  26
ATOM     26  C   UNL     1      -2.597  -2.933  -0.075  0.00  0.00    +0.066 A 
ATOM     27  N   UNL     1      -2.464  -4.167   0.322  0.00  0.00    -0.246 NA
ATOM     28  C   UNL     1      -2.682  -4.545   1.599  0.00  0.00    +0.078 A 
ATOM     29  C   UNL     1      -2.580  -5.830   2.177  0.00  0.00    +0.029 A 
ATOM     30  C   UNL     1      -2.843  -6.020   3.498  0.00  0.00    +0.002 A 
ATOM     31  C   UNL     1      -3.218  -4.969   4.324  0.00  0.00    +0.001 A 
ATOM     32  C   UNL     1      -3.329  -3.697   3.796  0.00  0.00    +0.017 A 
ATOM     33  C   UNL     1      -3.067  -3.495   2.463  0.00  0.00    +0.039 A 
ATOM     34  S   UNL     1      -3.067  -2.095   1.371  0.00  0.00    -0.074 S 
ENDBRANCH  23  26
ENDBRANCH  19  24
ENDBRANCH   4  19
TORSDOF 6
