REMARK  Name = ZINC02625133
REMARK  12 active torsions:
REMARK  status: ('A' for Active; 'I' for Inactive)
REMARK    1  A    between atoms: C_1  and  C_2
REMARK    2  A    between atoms: C_2  and  C_3
REMARK    3  A    between atoms: C_2  and  C_4
REMARK    4  A    between atoms: C_4  and  C_5
REMARK    5  A    between atoms: C_4  and  C_6
REMARK    6  A    between atoms: C_4  and  N_8
REMARK    7  A    between atoms: C_9  and  C_11
REMARK    8  A    between atoms: C_11  and  S_12
REMARK    9  A    between atoms: S_12  and  C_13
REMARK   10  A    between atoms: C_16  and  C_25
REMARK   11  A    between atoms: N_17  and  C_18
REMARK   12  A    between atoms: C_25  and  N_26
REMARK                            x       y       z     vdW  Elec       q    Type
REMARK                         _______ _______ _______ _____ _____    ______ ____
ROOT
ATOM      1  C   UNL     1      -3.136   0.611   1.110  0.00  0.00    +0.197 A 
ATOM      2  N   UNL     1      -4.198  -0.016   0.659  0.00  0.00    -0.122 NA
ATOM      3  N   UNL     1      -4.199  -0.006  -0.626  0.00  0.00    -0.131 NA
ATOM      4  C   UNL     1      -3.150   0.626  -1.071  0.00  0.00    +0.159 A 
ATOM      5  N   UNL     1      -2.430   1.038   0.019  0.00  0.00    -0.271 N 
ENDROOT
BRANCH   5   6
ATOM      6  C   UNL     1      -1.224   1.754   0.017  0.00  0.00    +0.069 A 
ATOM      7  C   UNL     1      -0.013   1.076   0.008  0.00  0.00    +0.028 A 
ATOM      8  C   UNL     1       1.174   1.783   0.000  0.00  0.00    +0.002 A 
ATOM      9  C   UNL     1       1.157   3.166   0.008  0.00  0.00    +0.002 A 
ATOM     10  C   UNL     1      -0.048   3.845   0.023  0.00  0.00    +0.022 A 
ATOM     11  C   UNL     1      -1.238   3.143   0.031  0.00  0.00    +0.065 A 
ATOM     12 CL   UNL     1      -2.750   3.996   0.050  0.00  0.00    -0.081 Cl
ENDBRANCH   5   6
BRANCH   1  13
ATOM     13  S   UNL     1      -2.703   0.855   2.800  0.00  0.00    -0.076 S 
BRANCH  13  14
ATOM     14  C   UNL     1      -4.094   0.023   3.605  0.00  0.00    +0.173 C 
BRANCH  14  16
ATOM     15  N   UNL     1      -4.857  -0.447   5.911  0.00  0.00    -0.297 N 
ATOM     16  C   UNL     1      -3.933   0.107   5.101  0.00  0.00    +0.224 C 
ATOM     17  O   UNL     1      -2.972   0.674   5.576  0.00  0.00    -0.275 OA
ATOM     18  H   UNL     1      -5.625  -0.901   5.530  0.00  0.00    +0.150 HD
BRANCH  15  19
ATOM     19  C   UNL     1      -4.700  -0.365   7.365  0.00  0.00    +0.121 C 
ATOM     20  C   UNL     1      -3.393  -1.045   7.776  0.00  0.00    +0.048 C 
BRANCH  19  22
ATOM     21  C   UNL     1      -5.836  -2.562   7.717  0.00  0.00    +0.010 C 
ATOM     22  C   UNL     1      -5.877  -1.069   8.045  0.00  0.00    +0.020 C 
ATOM     23  C   UNL     1      -5.779  -0.876   9.560  0.00  0.00    +0.010 C 
ENDBRANCH  19  22
BRANCH  19  24
ATOM     24  C   UNL     1      -4.669   1.048   7.776  0.00  0.00    +0.088 C 
ATOM     25  N   UNL     1      -4.646   2.139   8.093  0.00  0.00    -0.194 NA
ENDBRANCH  19  24
ENDBRANCH  15  19
ENDBRANCH  14  16
ENDBRANCH  13  14
ENDBRANCH   1  13
BRANCH   4  26
ATOM     26  C   UNL     1      -2.793   0.859  -2.517  0.00  0.00    +0.199 C 
BRANCH  26  27
ATOM     27  N   UNL     1      -1.972  -0.254  -3.002  0.00  0.00    -0.323 N 
ATOM     28  C   UNL     1      -0.614  -0.294  -3.046  0.00  0.00    +0.200 A 
ATOM     29  N   UNL     1      -0.215  -1.432  -3.534  0.00  0.00    -0.236 NA
ATOM     30  C   UNL     1      -1.293  -2.201  -3.836  0.00  0.00    +0.089 A 
ATOM     31  C   UNL     1      -2.435  -1.458  -3.493  0.00  0.00    +0.069 A 
ATOM     32  C   UNL     1      -3.697  -1.997  -3.701  0.00  0.00    +0.028 A 
ATOM     33  C   UNL     1      -3.821  -3.263  -4.232  0.00  0.00    +0.002 A 
ATOM     34  C   UNL     1      -2.692  -3.999  -4.565  0.00  0.00    +0.002 A 
ATOM     35  C   UNL     1      -1.442  -3.483  -4.373  0.00  0.00    +0.030 A 
ENDBRANCH  26  27
ENDBRANCH   4  26
TORSDOF 9
