REMARK  Name = ZINC65053550
REMARK  10 active torsions:
REMARK  status: ('A' for Active; 'I' for Inactive)
REMARK    1  A    between atoms: C_1  and  C_2
REMARK    2  A    between atoms: C_2  and  C_3
REMARK    3  A    between atoms: C_3  and  N_4
REMARK    4  A    between atoms: N_4  and  C_5
REMARK    5  A    between atoms: C_5  and  C_6
REMARK    6  A    between atoms: C_9  and  C_12
REMARK    7  A    between atoms: C_14  and  C_16
REMARK    8  A    between atoms: C_16  and  C_17
REMARK    9  A    between atoms: C_17  and  C_18
REMARK   10  A    between atoms: C_17  and  C_21
REMARK                            x       y       z     vdW  Elec       q    Type
REMARK                         _______ _______ _______ _____ _____    ______ ____
ROOT
ATOM      1  N   UNL     1       0.762  -1.976   1.234  0.00  0.00    -0.297 N 
ATOM      2  C   UNL     1      -0.234  -2.667   1.823  0.00  0.00    +0.216 C 
ATOM      3  O   UNL     1      -0.218  -3.879   1.816  0.00  0.00    -0.276 OA
ENDROOT
BRANCH   1   4
ATOM      4  C   UNL     1       0.742  -0.511   1.242  0.00  0.00    +0.108 C 
BRANCH   4   6
ATOM      5  C   UNL     1      -0.019   1.526   0.010  0.00  0.00    +0.005 C 
ATOM      6  C   UNL     1       0.002  -0.004   0.002  0.00  0.00    +0.016 C 
ENDBRANCH   4   6
ENDBRANCH   1   4
BRANCH   1   7
ATOM      7  C   UNL     1       1.864  -2.690   0.585  0.00  0.00    +0.142 C 
BRANCH   7   8
ATOM      8  C   UNL     1       2.965  -2.932   1.586  0.00  0.00    -0.030 A 
ATOM      9  C   UNL     1       3.967  -1.992   1.748  0.00  0.00    +0.006 A 
ATOM     10  C   UNL     1       4.977  -2.206   2.663  0.00  0.00    +0.019 A 
ATOM     11  C   UNL     1       4.986  -3.376   3.426  0.00  0.00    +0.052 A 
ATOM     12  C   UNL     1       3.971  -4.320   3.257  0.00  0.00    +0.019 A 
ATOM     13  C   UNL     1       2.965  -4.090   2.343  0.00  0.00    +0.006 A 
BRANCH  11  14
ATOM     14  C   UNL     1       6.032  -3.606   4.377  0.00  0.00    +0.099 C 
ATOM     15  N   UNL     1       6.861  -3.788   5.132  0.00  0.00    -0.191 NA
ENDBRANCH  11  14
ENDBRANCH   7   8
ENDBRANCH   1   7
BRANCH   2  16
ATOM     16  C   UNL     1      -1.368  -1.932   2.490  0.00  0.00    +0.100 C 
BRANCH  16  17
ATOM     17  C   UNL     1      -2.356  -2.943   3.076  0.00  0.00    +0.004 C 
BRANCH  17  18
ATOM     18  C   UNL     1      -1.674  -3.735   4.193  0.00  0.00    -0.007 C 
ATOM     19  C   UNL     1      -1.394  -5.217   3.939  0.00  0.00    +0.004 C 
ATOM     20  C   UNL     1      -2.502  -4.803   4.909  0.00  0.00    +0.004 C 
ENDBRANCH  17  18
BRANCH  17  21
ATOM     21  C   UNL     1      -3.568  -2.201   3.643  0.00  0.00    -0.007 C 
ATOM     22  C   UNL     1      -4.955  -2.670   3.197  0.00  0.00    +0.004 C 
ATOM     23  C   UNL     1      -4.390  -1.347   2.676  0.00  0.00    +0.004 C 
ENDBRANCH  17  21
ENDBRANCH  16  17
ENDBRANCH   2  16
TORSDOF 9
