REMARK  Name = ZINC22402240
REMARK  14 active torsions:
REMARK  status: ('A' for Active; 'I' for Inactive)
REMARK    1  A    between atoms: C_1  and  C_2
REMARK    2  A    between atoms: C_2  and  C_3
REMARK    3  A    between atoms: C_2  and  C_4
REMARK    4  A    between atoms: C_4  and  N_5
REMARK    5  A    between atoms: C_6  and  N_32
REMARK    6  A    between atoms: C_7  and  N_14
REMARK    7  A    between atoms: N_14  and  C_15
REMARK    8  A    between atoms: C_15  and  C_16
REMARK    9  A    between atoms: C_16  and  C_17
REMARK   10  A    between atoms: C_16  and  C_18
REMARK   11  A    between atoms: C_19  and  C_21
REMARK   12  A    between atoms: C_22  and  C_23
REMARK   13  A    between atoms: C_28  and  O_29
REMARK   14  A    between atoms: O_29  and  C_30
REMARK                            x       y       z     vdW  Elec       q    Type
REMARK                         _______ _______ _______ _____ _____    ______ ____
ROOT
ATOM      1  N   UNL     1       2.388   3.812   0.233  0.00  0.00    -0.260 N 
ATOM      2  C   UNL     1       2.476   5.157   0.206  0.00  0.00    +0.244 C 
ATOM      3  O   UNL     1       1.485   5.827  -0.022  0.00  0.00    -0.270 OA
ENDROOT
BRANCH   1   6
ATOM      4  N   UNL     1      -0.604   1.809   0.961  0.00  0.00    -0.280 N 
ATOM      5  C   UNL     1       0.623   2.408   1.121  0.00  0.00    +0.127 A 
ATOM      6  C   UNL     1       1.132   3.185   0.100  0.00  0.00    +0.140 A 
ATOM      7  C   UNL     1       0.377   3.339  -1.078  0.00  0.00    +0.277 A 
ATOM      8  O   UNL     1       0.803   4.019  -1.996  0.00  0.00    -0.266 OA
ATOM      9  N   UNL     1      -0.821   2.729  -1.184  0.00  0.00    -0.273 N 
ATOM     10  H   UNL     1      -1.415   2.841  -2.103  0.00  0.00    +0.173 HD
ATOM     11  C   UNL     1      -1.303   1.981  -0.176  0.00  0.00    +0.331 A 
ATOM     12  O   UNL     1      -2.389   1.447  -0.296  0.00  0.00    -0.246 OA
BRANCH   5  13
ATOM     13  N   UNL     1       1.335   2.236   2.284  0.00  0.00    -0.343 N 
ATOM     14  H   UNL     1       2.316   2.719   2.405  0.00  0.00    +0.144 HD
ATOM     15  H   UNL     1       0.923   1.616   3.094  0.00  0.00    +0.144 HD
ENDBRANCH   5  13
BRANCH   4  16
ATOM     16  C   UNL     1      -1.157   0.982   2.037  0.00  0.00    +0.131 C 
BRANCH  16  18
ATOM     17  C   UNL     1      -3.204   2.402   2.219  0.00  0.00    +0.009 C 
ATOM     18  C   UNL     1      -1.991   1.857   2.975  0.00  0.00    +0.003 C 
ATOM     19  C   UNL     1      -2.465   1.021   4.165  0.00  0.00    +0.009 C 
ENDBRANCH  16  18
ENDBRANCH   4  16
ENDBRANCH   1   6
BRANCH   2  20
ATOM     20  C   UNL     1       3.760   5.811   0.452  0.00  0.00    +0.068 C 
ATOM     21  C   UNL     1       3.848   7.158   0.425  0.00  0.00    +0.016 C 
BRANCH  21  22
ATOM     22  C   UNL     1       5.139   7.815   0.672  0.00  0.00    +0.018 A 
ATOM     23  C   UNL     1       6.279   7.049   0.940  0.00  0.00    +0.026 A 
ATOM     24  C   UNL     1       7.488   7.673   1.165  0.00  0.00    +0.019 A 
ATOM     25  C   UNL     1       7.577   9.056   1.137  0.00  0.00    +0.019 A 
ATOM     26  C   UNL     1       6.458   9.824   0.879  0.00  0.00    +0.047 A 
ATOM     27  C   UNL     1       5.236   9.215   0.645  0.00  0.00    +0.127 A 
ATOM     28 BR   UNL     1       9.030   6.637   1.520  0.00  0.00    -0.050 Br
BRANCH  27  29
ATOM     29  O   UNL     1       4.136   9.969   0.392  0.00  0.00    -0.495 OA
ATOM     30  C   UNL     1       4.311  11.387   0.381  0.00  0.00    +0.277 C 
ENDBRANCH  27  29
ENDBRANCH  21  22
ENDBRANCH   2  20
BRANCH   1  31
ATOM     31  C   UNL     1       3.597   3.002   0.401  0.00  0.00    +0.117 C 
BRANCH  31  32
ATOM     32  C   UNL     1       4.269   2.800  -0.959  0.00  0.00    +0.001 C 
ATOM     33  C   UNL     1       5.608   2.086  -0.766  0.00  0.00    +0.009 C 
ATOM     34  C   UNL     1       3.362   1.952  -1.854  0.00  0.00    +0.009 C 
ENDBRANCH  31  32
ENDBRANCH   1  31
TORSDOF 9
