REMARK  Name = ZINC66344380
REMARK  6 active torsions:
REMARK  status: ('A' for Active; 'I' for Inactive)
REMARK    1  A    between atoms: C_3  and  C_26
REMARK    2  A    between atoms: C_5  and  N_7
REMARK    3  A    between atoms: N_7  and  N_8
REMARK    4  A    between atoms: N_11  and  C_12
REMARK    5  A    between atoms: C_12  and  C_13
REMARK    6  A    between atoms: N_17  and  C_19
REMARK                            x       y       z     vdW  Elec       q    Type
REMARK                         _______ _______ _______ _____ _____    ______ ____
ROOT
ATOM      1  N   UNL     1       0.019  -2.797  -0.014  0.00  0.00    -0.220 N 
ATOM      2  C   UNL     1       0.032  -4.144  -0.021  0.00  0.00    +0.316 C 
ATOM      3  O   UNL     1      -1.015  -4.762  -0.015  0.00  0.00    -0.251 OA
ATOM      4  N   UNL     1       1.206  -4.807  -0.037  0.00  0.00    -0.298 N 
ATOM      5  H   UNL     1      -0.825  -2.320  -0.003  0.00  0.00    +0.174 HD
ATOM      6  H   UNL     1       2.041  -4.314  -0.042  0.00  0.00    +0.150 HD
ENDROOT
BRANCH   1   7
ATOM      7  N   UNL     1       1.226  -2.085  -0.021  0.00  0.00    -0.263 N 
ATOM      8  H   UNL     1       2.071  -2.562  -0.032  0.00  0.00    +0.170 HD
BRANCH   7  13
ATOM      9  C   UNL     1      -0.017   1.378   0.010  0.00  0.00    +0.003 A 
ATOM     10  C   UNL     1       1.166   2.089   0.002  0.00  0.00    +0.019 A 
ATOM     11  C   UNL     1       2.388   1.412  -0.013  0.00  0.00    +0.054 A 
ATOM     12  C   UNL     1       2.406   0.017  -0.021  0.00  0.00    +0.043 A 
ATOM     13  C   UNL     1       1.213  -0.688  -0.013  0.00  0.00    +0.046 A 
ATOM     14  C   UNL     1       0.002  -0.004   0.002  0.00  0.00    +0.024 A 
BRANCH  11  15
ATOM     15  C   UNL     1       3.616   2.147  -0.021  0.00  0.00    +0.099 C 
ATOM     16  N   UNL     1       4.591   2.731  -0.028  0.00  0.00    -0.191 NA
ENDBRANCH  11  15
ENDBRANCH   7  13
ENDBRANCH   1   7
BRANCH   4  17
ATOM     17  C   UNL     1       1.220  -6.272  -0.045  0.00  0.00    +0.111 C 
BRANCH  17  18
ATOM     18  C   UNL     1       2.667  -6.768  -0.062  0.00  0.00    +0.025 C 
ATOM     19  C   UNL     1       3.344  -6.463  -1.425  0.00  0.00    +0.025 C 
ATOM     20  C   UNL     1       4.428  -7.556  -1.525  0.00  0.00    +0.105 C 
ATOM     21  N   UNL     1       4.017  -8.660  -0.645  0.00  0.00    -0.330 N 
ATOM     22  C   UNL     1       2.724  -8.316  -0.026  0.00  0.00    +0.110 C 
BRANCH  21  23
ATOM     23  C   UNL     1       4.734  -9.841  -0.431  0.00  0.00    +0.030 A 
ATOM     24  C   UNL     1       4.232 -10.814   0.424  0.00  0.00    +0.026 A 
ATOM     25  C   UNL     1       4.941 -11.980   0.634  0.00  0.00    +0.040 A 
ATOM     26  C   UNL     1       6.152 -12.181  -0.007  0.00  0.00    +0.124 A 
ATOM     27  C   UNL     1       6.654 -11.212  -0.861  0.00  0.00    +0.040 A 
ATOM     28  C   UNL     1       5.946 -10.047  -1.077  0.00  0.00    +0.026 A 
ATOM     29  F   UNL     1       6.844 -13.322   0.199  0.00  0.00    -0.205 F 
ENDBRANCH  21  23
ENDBRANCH  17  18
ENDBRANCH   4  17
TORSDOF 6
