REMARK  Name = ZINC38039616
REMARK  5 active torsions:
REMARK  status: ('A' for Active; 'I' for Inactive)
REMARK    1  A    between atoms: C_1  and  C_2
REMARK    2  A    between atoms: C_8  and  N_10
REMARK    3  A    between atoms: N_10  and  S_11
REMARK    4  A    between atoms: S_11  and  C_14
REMARK    5  A    between atoms: C_19  and  N_20
REMARK                            x       y       z     vdW  Elec       q    Type
REMARK                         _______ _______ _______ _____ _____    ______ ____
ROOT
ATOM      1  S   UNL     1       2.894   0.560   2.696  0.00  0.00    +0.061 S 
ATOM      2  O   UNL     1       4.181   1.127   2.490  0.00  0.00    -0.153 OA
ATOM      3  O   UNL     1       1.834   1.281   3.309  0.00  0.00    -0.153 OA
ENDROOT
BRANCH   1   4
ATOM      4  C   UNL     1       3.134  -0.897   3.657  0.00  0.00    +0.136 A 
ATOM      5  C   UNL     1       2.389  -1.100   4.803  0.00  0.00    +0.046 A 
ATOM      6  C   UNL     1       2.577  -2.244   5.557  0.00  0.00    +0.020 A 
ATOM      7  C   UNL     1       3.511  -3.185   5.163  0.00  0.00    +0.017 A 
ATOM      8  C   UNL     1       4.255  -2.982   4.017  0.00  0.00    +0.036 A 
ATOM      9  C   UNL     1       4.063  -1.841   3.261  0.00  0.00    +0.152 A 
ATOM     10 BR   UNL     1       1.558  -2.521   7.126  0.00  0.00    -0.050 Br
BRANCH   9  11
ATOM     11  N   UNL     1       4.856  -1.627   2.030  0.00  0.00    +0.058 N 
ATOM     12  O   UNL     1       5.758  -2.383   1.752  0.00  0.00    -0.126 OA
ATOM     13  O   UNL     1       4.603  -0.696   1.301  0.00  0.00    -0.126 OA
ENDBRANCH   9  11
ENDBRANCH   1   4
BRANCH   1  14
ATOM     14  N   UNL     1       2.344   0.082   1.209  0.00  0.00    -0.187 NA
ATOM     15  H   UNL     1       2.879   0.249   0.417  0.00  0.00    +0.148 HD
BRANCH  14  22
ATOM     16  C   UNL     1       0.129   1.385  -0.127  0.00  0.00    +0.009 C 
ATOM     17  C   UNL     1       0.348  -0.128  -0.187  0.00  0.00    +0.005 C 
ATOM     18  C   UNL     1      -1.004  -0.834  -0.312  0.00  0.00    +0.005 C 
ATOM     19  C   UNL     1      -0.786  -2.347  -0.372  0.00  0.00    +0.000 C 
ATOM     20  C   UNL     1      -0.084  -2.812   0.905  0.00  0.00    +0.002 C 
ATOM     21  C   UNL     1       1.268  -2.107   1.030  0.00  0.00    +0.020 C 
ATOM     22  C   UNL     1       1.050  -0.593   1.090  0.00  0.00    +0.079 C 
ENDBRANCH  14  22
ENDBRANCH   1  14
TORSDOF 4
