REMARK  Name = ZINC38700531
REMARK  13 active torsions:
REMARK  status: ('A' for Active; 'I' for Inactive)
REMARK    1  A    between atoms: C_1  and  C_2
REMARK    2  A    between atoms: C_2  and  O_3
REMARK    3  A    between atoms: O_3  and  C_4
REMARK    4  A    between atoms: C_7  and  C_13
REMARK    5  A    between atoms: C_9  and  O_10
REMARK    6  A    between atoms: O_10  and  C_11
REMARK    7  A    between atoms: C_11  and  C_12
REMARK    8  A    between atoms: C_18  and  O_27
REMARK    9  A    between atoms: C_22  and  N_26
REMARK   10  A    between atoms: C_23  and  C_24
REMARK   11  A    between atoms: O_27  and  C_28
REMARK   12  A    between atoms: C_28  and  C_30
REMARK   13  A    between atoms: C_31  and  C_39
REMARK                            x       y       z     vdW  Elec       q    Type
REMARK                         _______ _______ _______ _____ _____    ______ ____
ROOT
ATOM      1  C   UNL     1       1.122  -6.086  -1.797  0.00  0.00    +0.098 C 
ATOM      2  C   UNL     1      -0.260  -6.679  -1.875  0.00  0.00    +0.008 A 
ATOM      3  C   UNL     1      -1.029  -6.466  -3.006  0.00  0.00    +0.012 A 
ATOM      4  C   UNL     1      -2.298  -7.002  -3.095  0.00  0.00    +0.047 A 
ATOM      5  C   UNL     1      -2.808  -7.757  -2.047  0.00  0.00    +0.136 A 
ATOM      6  C   UNL     1      -2.040  -7.972  -0.914  0.00  0.00    +0.093 A 
ATOM      7  C   UNL     1      -0.764  -7.432  -0.826  0.00  0.00    +0.138 A 
ATOM      8  O   UNL     1      -0.025  -7.651   0.290  0.00  0.00    -0.441 OA
ATOM      9  C   UNL     1       1.308  -7.488   0.254  0.00  0.00    +0.199 C 
ATOM     10  C   UNL     1       1.911  -6.758  -0.708  0.00  0.00    +0.098 C 
ENDROOT
BRANCH   1  14
ATOM     11  C   UNL     1       0.822  -1.905  -0.952  0.00  0.00    +0.162 A 
ATOM     12  C   UNL     1       0.309  -2.833  -0.061  0.00  0.00    +0.050 A 
ATOM     13  C   UNL     1       0.407  -4.184  -0.337  0.00  0.00    +0.008 A 
ATOM     14  C   UNL     1       1.017  -4.612  -1.501  0.00  0.00    -0.031 A 
ATOM     15  C   UNL     1       1.532  -3.691  -2.394  0.00  0.00    +0.054 A 
ATOM     16  C   UNL     1       1.432  -2.335  -2.127  0.00  0.00    +0.162 A 
BRANCH  11  17
ATOM     17  O   UNL     1       0.726  -0.575  -0.682  0.00  0.00    -0.489 OA
BRANCH  17  19
ATOM     18  C   UNL     1       0.074   1.318   0.671  0.00  0.00    +0.048 C 
ATOM     19  C   UNL     1       0.088  -0.206   0.542  0.00  0.00    +0.226 C 
ENDBRANCH  17  19
ENDBRANCH  11  17
BRANCH  16  20
ATOM     20  O   UNL     1       1.932  -1.428  -3.007  0.00  0.00    -0.489 OA
BRANCH  20  21
ATOM     21  C   UNL     1       2.544  -1.942  -4.192  0.00  0.00    +0.226 C 
ATOM     22  C   UNL     1       3.044  -0.781  -5.053  0.00  0.00    +0.048 C 
ENDBRANCH  20  21
ENDBRANCH  16  20
ENDBRANCH   1  14
BRANCH   9  23
ATOM     23  N   UNL     1       2.077  -8.080   1.225  0.00  0.00    -0.328 N 
ATOM     24  H   UNL     1       1.657  -8.606   1.923  0.00  0.00    +0.145 HD
ATOM     25  H   UNL     1       3.041  -7.971   1.213  0.00  0.00    +0.145 HD
ENDBRANCH   9  23
BRANCH  10  26
ATOM     26  C   UNL     1       3.337  -6.621  -0.689  0.00  0.00    +0.101 C 
ATOM     27  N   UNL     1       4.467  -6.513  -0.674  0.00  0.00    -0.191 NA
ENDBRANCH  10  26
BRANCH   5  28
ATOM     28  O   UNL     1      -4.057  -8.286  -2.134  0.00  0.00    -0.420 OA
BRANCH  28  29
ATOM     29  C   UNL     1      -5.015  -7.779  -1.331  0.00  0.00    +0.380 C 
ATOM     30  O   UNL     1      -4.777  -6.809  -0.637  0.00  0.00    -0.241 OA
BRANCH  29  31
ATOM     31  C   UNL     1      -6.346  -8.398  -1.296  0.00  0.00    +0.216 A 
ATOM     32  C   UNL     1      -7.387  -7.972  -0.534  0.00  0.00    +0.010 A 
ATOM     33  C   UNL     1      -8.497  -8.880  -0.820  0.00  0.00    +0.024 A 
ATOM     34  C   UNL     1      -9.815  -8.979  -0.369  0.00  0.00    +0.012 A 
ATOM     35  C   UNL     1     -10.622  -9.972  -0.847  0.00  0.00    +0.001 A 
ATOM     36  C   UNL     1     -10.140 -10.884  -1.777  0.00  0.00    +0.004 A 
ATOM     37  C   UNL     1      -8.842 -10.804  -2.234  0.00  0.00    +0.047 A 
ATOM     38  C   UNL     1      -8.003  -9.801  -1.763  0.00  0.00    +0.136 A 
ATOM     39  O   UNL     1      -6.722  -9.473  -2.021  0.00  0.00    -0.448 OA
ATOM     40  C   UNL     1      -7.395  -6.802   0.416  0.00  0.00    +0.048 C 
ENDBRANCH  29  31
ENDBRANCH  28  29
ENDBRANCH   5  28
TORSDOF 10
