REMARK  Name = ZINC39583645
REMARK  6 active torsions:
REMARK  status: ('A' for Active; 'I' for Inactive)
REMARK    1  A    between atoms: C_2  and  C_3
REMARK    2  A    between atoms: C_3  and  N_4
REMARK    3  A    between atoms: C_5  and  C_23
REMARK    4  A    between atoms: C_9  and  S_11
REMARK    5  A    between atoms: S_11  and  C_12
REMARK    6  A    between atoms: C_12  and  C_13
REMARK                            x       y       z     vdW  Elec       q    Type
REMARK                         _______ _______ _______ _____ _____    ______ ____
ROOT
ATOM      1  N   UNL     1       1.438  -1.746   1.063  0.00  0.00    -0.254 NA
ATOM      2  C   UNL     1       2.697  -2.523   1.136  0.00  0.00    +0.172 C 
ATOM      3  N   UNL     1       2.276  -3.851   1.654  0.00  0.00    -0.233 NA
ATOM      4  N   UNL     1       0.981  -4.071   0.991  0.00  0.00    -0.229 NA
ATOM      5  C   UNL     1       0.344  -2.734   0.971  0.00  0.00    +0.200 C 
ATOM      6  H   UNL     1       2.940  -4.566   1.397  0.00  0.00    +0.143 HD
ATOM      7  H   UNL     1       1.110  -4.424   0.055  0.00  0.00    +0.143 HD
ENDROOT
BRANCH   2   8
ATOM      8  C   UNL     1       3.667  -1.867   2.085  0.00  0.00    -0.015 A 
ATOM      9  C   UNL     1       3.642  -0.496   2.261  0.00  0.00    +0.008 A 
ATOM     10  C   UNL     1       4.531   0.106   3.131  0.00  0.00    +0.020 A 
ATOM     11  C   UNL     1       5.447  -0.664   3.826  0.00  0.00    +0.041 A 
ATOM     12  C   UNL     1       5.472  -2.036   3.650  0.00  0.00    +0.020 A 
ATOM     13  C   UNL     1       4.578  -2.637   2.784  0.00  0.00    +0.008 A 
ATOM     14 CL   UNL     1       6.564   0.092   4.919  0.00  0.00    -0.084 Cl
ENDBRANCH   2   8
BRANCH   1  15
ATOM     15  C   UNL     1       1.439  -0.852  -0.103  0.00  0.00    +0.115 C 
BRANCH  15  17
ATOM     16  C   UNL     1       0.594   1.438  -0.030  0.00  0.00    +0.005 C 
ATOM     17  C   UNL     1       0.328   0.157   0.036  0.00  0.00    -0.019 C 
ENDBRANCH  15  17
ENDBRANCH   1  15
BRANCH   5  18
ATOM     18  S   UNL     1      -0.573  -2.506  -0.577  0.00  0.00    -0.117 S 
BRANCH  18  19
ATOM     19  C   UNL     1      -2.108  -3.438  -0.320  0.00  0.00    +0.146 C 
BRANCH  19  20
ATOM     20  C   UNL     1      -2.918  -3.432  -1.591  0.00  0.00    +0.118 A 
ATOM     21  N   UNL     1      -3.845  -2.492  -1.919  0.00  0.00    -0.341 N 
ATOM     22  H   UNL     1      -4.096  -1.721  -1.387  0.00  0.00    +0.167 HD
ATOM     23  C   UNL     1      -4.361  -2.839  -3.152  0.00  0.00    +0.066 A 
ATOM     24  C   UNL     1      -5.318  -2.282  -3.990  0.00  0.00    +0.028 A 
ATOM     25  C   UNL     1      -5.612  -2.893  -5.190  0.00  0.00    +0.002 A 
ATOM     26  C   UNL     1      -4.959  -4.059  -5.565  0.00  0.00    +0.002 A 
ATOM     27  C   UNL     1      -4.015  -4.621  -4.753  0.00  0.00    +0.030 A 
ATOM     28  C   UNL     1      -3.700  -4.019  -3.532  0.00  0.00    +0.089 A 
ATOM     29  N   UNL     1      -2.829  -4.322  -2.535  0.00  0.00    -0.232 NA
ENDBRANCH  19  20
ENDBRANCH  18  19
ENDBRANCH   5  18
TORSDOF 6
