REMARK  Name = ZINC51331232
REMARK  6 active torsions:
REMARK  status: ('A' for Active; 'I' for Inactive)
REMARK    1  A    between atoms: C_1  and  C_2
REMARK    2  A    between atoms: C_6  and  S_8
REMARK    3  A    between atoms: S_8  and  C_9
REMARK    4  A    between atoms: C_9  and  C_10
REMARK    5  A    between atoms: N_12  and  C_13
REMARK    6  A    between atoms: C_18  and  N_19
REMARK                            x       y       z     vdW  Elec       q    Type
REMARK                         _______ _______ _______ _____ _____    ______ ____
ROOT
ATOM      1  C   UNL     1       0.098  -5.472   3.441  0.00  0.00    +0.228 C 
ATOM      2  O   UNL     1       0.090  -4.953   4.537  0.00  0.00    -0.275 OA
ATOM      3  N   UNL     1       0.113  -6.815   3.331  0.00  0.00    -0.283 N 
ATOM      4  H   UNL     1       0.039  -7.231   2.458  0.00  0.00    +0.155 HD
ENDROOT
BRANCH   3   5
ATOM      5  C   UNL     1       0.235  -7.611   4.479  0.00  0.00    +0.054 A 
ATOM      6  C   UNL     1       0.839  -7.099   5.618  0.00  0.00    +0.025 A 
ATOM      7  C   UNL     1       0.959  -7.886   6.748  0.00  0.00    +0.002 A 
ATOM      8  C   UNL     1       0.479  -9.183   6.748  0.00  0.00    +0.002 A 
ATOM      9  C   UNL     1      -0.124  -9.700   5.617  0.00  0.00    +0.024 A 
ATOM     10  C   UNL     1      -0.254  -8.916   4.480  0.00  0.00    +0.046 A 
BRANCH  10  11
ATOM     11  N   UNL     1      -0.869  -9.436   3.336  0.00  0.00    -0.357 N 
ATOM     12  H   UNL     1      -0.956  -8.888   2.541  0.00  0.00    +0.142 HD
ATOM     13  H   UNL     1      -1.210 -10.345   3.339  0.00  0.00    +0.142 HD
ENDBRANCH  10  11
ENDBRANCH   3   5
BRANCH   1  14
ATOM     14  C   UNL     1       0.092  -4.615   2.201  0.00  0.00    +0.173 C 
BRANCH  14  15
ATOM     15  S   UNL     1       0.072  -2.864   2.676  0.00  0.00    -0.077 S 
BRANCH  15  21
ATOM     16  C   UNL     1       0.033   1.503   0.008  0.00  0.00    +0.066 C 
ATOM     17  C   UNL     1       0.049  -0.004   0.000  0.00  0.00    +0.043 A 
ATOM     18  C   UNL     1       0.059  -0.700  -1.199  0.00  0.00    +0.043 A 
ATOM     19  C   UNL     1       0.074  -2.085  -1.162  0.00  0.00    +0.115 A 
ATOM     20  N   UNL     1       0.077  -2.699   0.009  0.00  0.00    -0.230 NA
ATOM     21  C   UNL     1       0.067  -2.005   1.138  0.00  0.00    +0.189 A 
ATOM     22  N   UNL     1       0.058  -0.679   1.137  0.00  0.00    -0.227 NA
ENDBRANCH  15  21
ENDBRANCH  14  15
ENDBRANCH   1  14
TORSDOF 5
