REMARK  Name = ZINC15444241
REMARK  9 active torsions:
REMARK  status: ('A' for Active; 'I' for Inactive)
REMARK    1  A    between atoms: C_1  and  C_2
REMARK    2  A    between atoms: C_2  and  O_3
REMARK    3  A    between atoms: O_3  and  C_4
REMARK    4  A    between atoms: C_4  and  C_6
REMARK    5  A    between atoms: C_6  and  C_18
REMARK    6  A    between atoms: C_7  and  S_8
REMARK    7  A    between atoms: C_7  and  S_10
REMARK    8  A    between atoms: S_8  and  C_9
REMARK    9  A    between atoms: S_10  and  C_11
REMARK                            x       y       z     vdW  Elec       q    Type
REMARK                         _______ _______ _______ _____ _____    ______ ____
ROOT
ATOM      1  C   UNL     1       3.359  -4.204  -0.132  0.00  0.00    +0.155 C 
ATOM      2  C   UNL     1       2.962  -2.865  -0.033  0.00  0.00    +0.070 C 
ENDROOT
BRANCH   1   3
ATOM      3  C   UNL     1       4.734  -4.528  -0.232  0.00  0.00    +0.351 C 
ATOM      4  O   UNL     1       5.570  -3.643  -0.232  0.00  0.00    -0.244 OA
BRANCH   3   5
ATOM      5  O   UNL     1       5.117  -5.819  -0.327  0.00  0.00    -0.461 OA
BRANCH   5   7
ATOM      6  C   UNL     1       6.760  -7.581  -0.524  0.00  0.00    +0.048 C 
ATOM      7  C   UNL     1       6.520  -6.073  -0.425  0.00  0.00    +0.229 C 
ENDBRANCH   5   7
ENDBRANCH   3   5
ENDBRANCH   1   3
BRANCH   2   8
ATOM      8  S   UNL     1       4.171  -1.584  -0.033  0.00  0.00    -0.120 S 
ATOM      9  C   UNL     1       3.110  -0.150   0.271  0.00  0.00    +0.090 C 
ENDBRANCH   2   8
BRANCH   1  10
ATOM     10  C   UNL     1       2.376  -5.245  -0.133  0.00  0.00    +0.108 C 
ATOM     11  N   UNL     1       1.596  -6.071  -0.133  0.00  0.00    -0.191 NA
ENDBRANCH   1  10
BRANCH   2  12
ATOM     12  S   UNL     1       1.251  -2.461   0.090  0.00  0.00    -0.081 S 
BRANCH  12  13
ATOM     13  C   UNL     1       0.994  -1.728  -1.491  0.00  0.00    +0.013 A 
ATOM     14  C   UNL     1      -0.219  -1.121  -1.788  0.00  0.00    +0.016 A 
ATOM     15  C   UNL     1      -0.418  -0.547  -3.028  0.00  0.00    +0.021 A 
ATOM     16  C   UNL     1       0.591  -0.578  -3.975  0.00  0.00    +0.041 A 
ATOM     17  C   UNL     1       1.801  -1.182  -3.682  0.00  0.00    +0.021 A 
ATOM     18  C   UNL     1       2.005  -1.757  -2.444  0.00  0.00    +0.016 A 
ATOM     19 CL   UNL     1       0.337   0.144  -5.534  0.00  0.00    -0.084 Cl
ENDBRANCH  12  13
ENDBRANCH   2  12
TORSDOF 7
