REMARK  Name = ZINC08594762
REMARK  11 active torsions:
REMARK  status: ('A' for Active; 'I' for Inactive)
REMARK    1  A    between atoms: C_1  and  C_2
REMARK    2  A    between atoms: C_5  and  C_8
REMARK    3  A    between atoms: C_9  and  S_24
REMARK    4  A    between atoms: C_11  and  C_14
REMARK    5  A    between atoms: C_17  and  O_22
REMARK    6  A    between atoms: C_18  and  O_20
REMARK    7  A    between atoms: O_20  and  C_21
REMARK    8  A    between atoms: O_22  and  C_23
REMARK    9  A    between atoms: S_24  and  C_25
REMARK   10  A    between atoms: C_25  and  C_26
REMARK   11  A    between atoms: N_28  and  C_29
REMARK                            x       y       z     vdW  Elec       q    Type
REMARK                         _______ _______ _______ _____ _____    ______ ____
ROOT
ATOM      1  C   UNL     1       0.050  -4.249  -0.031  0.00  0.00    +0.080 A 
ATOM      2  C   UNL     1      -0.720  -5.091   0.746  0.00  0.00    +0.124 A 
ATOM      3  N   UNL     1      -0.404  -6.351   0.426  0.00  0.00    -0.221 NA
ATOM      4  C   UNL     1       0.523  -6.352  -0.509  0.00  0.00    +0.140 A 
ATOM      5  N   UNL     1       0.833  -5.064  -0.829  0.00  0.00    -0.337 N 
ATOM      6  H   UNL     1       1.480  -4.773  -1.490  0.00  0.00    +0.167 HD
ENDROOT
BRANCH   1  11
ATOM      7  C   UNL     1      -0.003   1.502   0.025  0.00  0.00    +0.044 C 
ATOM      8  C   UNL     1       0.011  -0.005   0.010  0.00  0.00    -0.050 A 
ATOM      9  C   UNL     1       0.006  -0.682  -1.197  0.00  0.00    +0.004 A 
ATOM     10  C   UNL     1       0.019  -2.061  -1.218  0.00  0.00    +0.010 A 
ATOM     11  C   UNL     1       0.037  -2.774  -0.017  0.00  0.00    +0.001 A 
ATOM     12  C   UNL     1       0.042  -2.084   1.198  0.00  0.00    +0.010 A 
ATOM     13  C   UNL     1       0.035  -0.705   1.204  0.00  0.00    +0.004 A 
ENDBRANCH   1  11
BRANCH   4  14
ATOM     14  C   UNL     1       1.125  -7.556  -1.117  0.00  0.00    +0.021 A 
ATOM     15  C   UNL     1       2.108  -7.426  -2.100  0.00  0.00    +0.015 A 
ATOM     16  C   UNL     1       2.670  -8.551  -2.666  0.00  0.00    +0.050 A 
ATOM     17  C   UNL     1       2.261  -9.813  -2.261  0.00  0.00    +0.162 A 
ATOM     18  C   UNL     1       1.280  -9.950  -1.281  0.00  0.00    +0.162 A 
ATOM     19  C   UNL     1       0.717  -8.827  -0.705  0.00  0.00    +0.061 A 
BRANCH  18  20
ATOM     20  O   UNL     1       0.881 -11.189  -0.887  0.00  0.00    -0.491 OA
ATOM     21  C   UNL     1      -0.128 -11.255   0.122  0.00  0.00    +0.277 C 
ENDBRANCH  18  20
BRANCH  17  22
ATOM     22  O   UNL     1       2.818 -10.919  -2.823  0.00  0.00    -0.491 OA
ATOM     23  C   UNL     1       3.817 -10.706  -3.822  0.00  0.00    +0.277 C 
ENDBRANCH  17  22
ENDBRANCH   4  14
BRANCH   2  24
ATOM     24  S   UNL     1      -1.910  -4.593   1.947  0.00  0.00    -0.094 S 
BRANCH  24  25
ATOM     25  C   UNL     1      -2.556  -6.158   2.599  0.00  0.00    +0.172 C 
BRANCH  25  26
ATOM     26  C   UNL     1      -3.598  -5.872   3.650  0.00  0.00    +0.227 C 
ATOM     27  O   UNL     1      -3.876  -4.726   3.932  0.00  0.00    -0.275 OA
ATOM     28  N   UNL     1      -4.219  -6.890   4.277  0.00  0.00    -0.285 N 
ATOM     29  H   UNL     1      -4.046  -7.805   4.005  0.00  0.00    +0.155 HD
BRANCH  28  30
ATOM     30  C   UNL     1      -5.116  -6.627   5.320  0.00  0.00    +0.037 A 
ATOM     31  C   UNL     1      -5.198  -7.495   6.401  0.00  0.00    +0.027 A 
ATOM     32  C   UNL     1      -6.082  -7.237   7.430  0.00  0.00    +0.051 A 
ATOM     33  C   UNL     1      -6.890  -6.110   7.388  0.00  0.00    +0.162 A 
ATOM     34  C   UNL     1      -6.809  -5.238   6.309  0.00  0.00    +0.164 A 
ATOM     35  C   UNL     1      -5.918  -5.496   5.278  0.00  0.00    +0.072 A 
ATOM     36  O   UNL     1      -7.588  -4.123   6.254  0.00  0.00    -0.485 OA
ATOM     37  C   UNL     1      -8.726  -4.090   7.121  0.00  0.00    +0.270 C 
ATOM     38  C   UNL     1      -8.280  -4.545   8.517  0.00  0.00    +0.270 C 
ATOM     39  O   UNL     1      -7.759  -5.874   8.410  0.00  0.00    -0.485 OA
ENDBRANCH  28  30
ENDBRANCH  25  26
ENDBRANCH  24  25
ENDBRANCH   2  24
TORSDOF 8
