REMARK  Name = ZINC14470686
REMARK  7 active torsions:
REMARK  status: ('A' for Active; 'I' for Inactive)
REMARK    1  A    between atoms: C_1  and  C_2
REMARK    2  A    between atoms: C_2  and  C_3
REMARK    3  A    between atoms: C_3  and  O_4
REMARK    4  A    between atoms: O_4  and  C_5
REMARK    5  A    between atoms: C_5  and  C_7
REMARK    6  A    between atoms: C_20  and  C_23
REMARK    7  A    between atoms: C_27  and  N_29
REMARK                            x       y       z     vdW  Elec       q    Type
REMARK                         _______ _______ _______ _____ _____    ______ ____
ROOT
ATOM      1  C   UNL     1       0.002  -0.004   0.002  0.00  0.00    +0.059 A 
ATOM      2  C   UNL     1      -1.197  -0.724   0.010  0.00  0.00    +0.017 A 
ATOM      3  C   UNL     1      -1.178  -2.088  -0.003  0.00  0.00    +0.024 A 
ATOM      4  C   UNL     1       0.030  -2.781  -0.024  0.00  0.00    +0.031 A 
ATOM      5  C   UNL     1       1.236  -2.064  -0.021  0.00  0.00    -0.019 A 
ATOM      6  C   UNL     1       1.220  -0.691  -0.019  0.00  0.00    +0.021 A 
ATOM      7  C   UNL     1       2.493  -2.842  -0.019  0.00  0.00    +0.049 C 
ATOM      8  C   UNL     1       3.759  -2.292  -0.569  0.00  0.00    -0.023 C 
ATOM      9  C   UNL     1       4.478  -3.294  -1.062  0.00  0.00    -0.030 C 
ATOM     10  C   UNL     1       3.715  -4.611  -0.906  0.00  0.00    +0.033 C 
ATOM     11  C   UNL     1       2.261  -4.124  -0.875  0.00  0.00    +0.029 C 
ATOM     12  C   UNL     1       1.249  -4.949  -0.100  0.00  0.00    +0.105 C 
ATOM     13  N   UNL     1       0.012  -4.174  -0.071  0.00  0.00    -0.336 N 
ATOM     14  H   UNL     1      -0.839  -4.638  -0.092  0.00  0.00    +0.147 HD
ENDROOT
BRANCH  12  15
ATOM     15  C   UNL     1       1.022  -6.271  -0.785  0.00  0.00    -0.025 A 
ATOM     16  C   UNL     1       0.180  -6.347  -1.880  0.00  0.00    +0.007 A 
ATOM     17  C   UNL     1      -0.028  -7.560  -2.509  0.00  0.00    +0.022 A 
ATOM     18  C   UNL     1       0.605  -8.699  -2.043  0.00  0.00    +0.071 A 
ATOM     19  C   UNL     1       1.447  -8.622  -0.948  0.00  0.00    +0.145 A 
ATOM     20  C   UNL     1       1.659  -7.407  -0.323  0.00  0.00    +0.039 A 
ATOM     21 CL   UNL     1       0.344 -10.223  -2.832  0.00  0.00    -0.081 Cl
BRANCH  19  22
ATOM     22  N   UNL     1       2.125  -9.839  -0.449  0.00  0.00    +0.058 N 
ATOM     23  O   UNL     1       2.866  -9.772   0.516  0.00  0.00    -0.126 OA
ATOM     24  O   UNL     1       1.942 -10.909  -1.002  0.00  0.00    -0.126 OA
ENDBRANCH  19  22
ENDBRANCH  12  15
BRANCH   1  25
ATOM     25  C   UNL     1      -0.018   1.470   0.010  0.00  0.00    +0.339 C 
ATOM     26  O   UNL     1       1.026   2.091   0.004  0.00  0.00    -0.245 OA
BRANCH  25  27
ATOM     27  O   UNL     1      -1.194   2.127   0.019  0.00  0.00    -0.461 OA
BRANCH  27  28
ATOM     28  C   UNL     1      -1.138   3.578   0.027  0.00  0.00    +0.232 C 
BRANCH  28  30
ATOM     29  C   UNL     1      -2.500   5.673   0.045  0.00  0.00    +0.007 C 
ATOM     30  C   UNL     1      -2.559   4.144   0.037  0.00  0.00    +0.038 C 
ENDBRANCH  28  30
ENDBRANCH  27  28
ENDBRANCH  25  27
ENDBRANCH   1  25
TORSDOF 6
