REMARK  Name = ZINC00885500
REMARK  4 active torsions:
REMARK  status: ('A' for Active; 'I' for Inactive)
REMARK    1  A    between atoms: C_1  and  C_2
REMARK    2  A    between atoms: C_2  and  C_27
REMARK    3  A    between atoms: C_6  and  C_16
REMARK    4  A    between atoms: C_11  and  O_15
REMARK                            x       y       z     vdW  Elec       q    Type
REMARK                         _______ _______ _______ _____ _____    ______ ____
ROOT
ATOM      1  C   UNL     1       1.723   1.928   1.438  0.00  0.00    +0.031 C 
ATOM      2  C   UNL     1       1.256   1.699  -0.001  0.00  0.00    +0.036 C 
ATOM      3  C   UNL     1       1.392   3.002  -0.797  0.00  0.00    +0.094 C 
ATOM      4  C   UNL     1       0.435   4.038  -0.201  0.00  0.00    +0.182 C 
ATOM      5  C   UNL     1       0.473   5.314  -1.050  0.00  0.00    +0.082 C 
ATOM      6  C   UNL     1      -0.566   6.292  -0.496  0.00  0.00    +0.059 C 
ATOM      7  C   UNL     1      -0.423   6.393   1.002  0.00  0.00    +0.002 A 
ATOM      8  C   UNL     1      -0.991   7.477   1.653  0.00  0.00    +0.011 A 
ATOM      9  C   UNL     1      -0.886   7.601   3.023  0.00  0.00    +0.046 A 
ATOM     10  C   UNL     1      -0.208   6.637   3.756  0.00  0.00    +0.120 A 
ATOM     11  C   UNL     1       0.363   5.554   3.109  0.00  0.00    +0.091 A 
ATOM     12  C   UNL     1       0.259   5.432   1.728  0.00  0.00    +0.131 A 
ATOM     13  O   UNL     1       0.842   4.361   1.128  0.00  0.00    -0.468 OA
ATOM     14  N   UNL     1      -0.922   3.494  -0.189  0.00  0.00    -0.262 N 
ATOM     15  C   UNL     1      -1.143   2.175  -0.089  0.00  0.00    +0.303 C 
ATOM     16  O   UNL     1      -2.291   1.774  -0.075  0.00  0.00    -0.253 OA
ATOM     17  N   UNL     1      -0.147   1.281   0.001  0.00  0.00    -0.294 N 
ATOM     18  C   UNL     1       2.112   0.610  -0.650  0.00  0.00    +0.031 C 
ATOM     19  H   UNL     1      -1.677   4.099  -0.258  0.00  0.00    +0.154 HD
ATOM     20  H   UNL     1      -0.361   0.337   0.066  0.00  0.00    +0.151 HD
ENDROOT
BRANCH   6  21
ATOM     21  C   UNL     1      -0.353   7.651  -1.113  0.00  0.00    -0.021 A 
ATOM     22  C   UNL     1       0.849   8.310  -0.935  0.00  0.00    +0.005 A 
ATOM     23  C   UNL     1       1.046   9.554  -1.504  0.00  0.00    +0.000 A 
ATOM     24  C   UNL     1       0.037  10.145  -2.243  0.00  0.00    +0.001 A 
ATOM     25  C   UNL     1      -1.167   9.489  -2.417  0.00  0.00    +0.020 A 
ATOM     26  C   UNL     1      -1.363   8.241  -1.852  0.00  0.00    +0.045 A 
ATOM     27 CL   UNL     1      -2.875   7.417  -2.069  0.00  0.00    -0.083 Cl
ENDBRANCH   6  21
BRANCH  10  28
ATOM     28  O   UNL     1      -0.106   6.754   5.106  0.00  0.00    -0.507 OA
ATOM     29  H   UNL     1      -0.828   6.334   5.593  0.00  0.00    +0.292 HD
ENDBRANCH  10  28
TORSDOF 2
