REMARK  Name = ZINC40198444
REMARK  9 active torsions:
REMARK  status: ('A' for Active; 'I' for Inactive)
REMARK    1  A    between atoms: C_1  and  C_2
REMARK    2  A    between atoms: C_2  and  C_3
REMARK    3  A    between atoms: C_2  and  C_4
REMARK    4  A    between atoms: C_2  and  C_5
REMARK    5  A    between atoms: N_7  and  C_8
REMARK    6  A    between atoms: C_8  and  C_9
REMARK    7  A    between atoms: C_9  and  C_10
REMARK    8  A    between atoms: N_18  and  C_19
REMARK    9  A    between atoms: C_19  and  C_20
REMARK                            x       y       z     vdW  Elec       q    Type
REMARK                         _______ _______ _______ _____ _____    ______ ____
ROOT
ATOM      1  C   UNL     1       2.238  -4.313  -3.895  0.00  0.00    +0.113 A 
ATOM      2  N   UNL     1       1.665  -4.549  -5.039  0.00  0.00    -0.232 NA
ATOM      3  C   UNL     1       2.598  -4.940  -5.945  0.00  0.00    +0.089 A 
ATOM      4  C   UNL     1       2.539  -5.309  -7.292  0.00  0.00    +0.030 A 
ATOM      5  C   UNL     1       3.682  -5.662  -7.952  0.00  0.00    +0.002 A 
ATOM      6  C   UNL     1       4.906  -5.660  -7.298  0.00  0.00    +0.002 A 
ATOM      7  C   UNL     1       4.989  -5.300  -5.970  0.00  0.00    +0.028 A 
ATOM      8  C   UNL     1       3.838  -4.937  -5.283  0.00  0.00    +0.069 A 
ATOM      9  N   UNL     1       3.578  -4.531  -3.990  0.00  0.00    -0.319 N 
ENDROOT
BRANCH   1  10
ATOM     10  C   UNL     1       1.523  -3.859  -2.649  0.00  0.00    +0.093 C 
BRANCH  10  11
ATOM     11  C   UNL     1       1.477  -2.330  -2.616  0.00  0.00    +0.112 C 
BRANCH  11  14
ATOM     12  C   UNL     1       0.620  -0.573  -1.161  0.00  0.00    +0.218 C 
ATOM     13  O   UNL     1       1.051   0.246  -1.946  0.00  0.00    -0.275 OA
ATOM     14  N   UNL     1       0.782  -1.889  -1.404  0.00  0.00    -0.314 N 
ATOM     15  H   UNL     1       0.438  -2.544  -0.777  0.00  0.00    +0.149 HD
BRANCH  12  17
ATOM     16  C   UNL     1      -0.141   1.410   0.118  0.00  0.00    +0.020 C 
ATOM     17  C   UNL     1      -0.095  -0.119   0.085  0.00  0.00    +0.039 C 
ATOM     18  C   UNL     1       0.652  -0.633   1.317  0.00  0.00    +0.020 C 
ATOM     19  C   UNL     1      -1.521  -0.672   0.085  0.00  0.00    +0.020 C 
ENDBRANCH  12  17
ENDBRANCH  11  14
ENDBRANCH  10  11
ENDBRANCH   1  10
BRANCH   9  20
ATOM     20  C   UNL     1       4.562  -4.367  -2.917  0.00  0.00    +0.219 C 
BRANCH  20  21
ATOM     21  C   UNL     1       4.707  -5.665  -2.165  0.00  0.00    +0.240 C 
ATOM     22  O   UNL     1       3.989  -6.605  -2.434  0.00  0.00    -0.273 OA
ATOM     23  N   UNL     1       5.634  -5.782  -1.194  0.00  0.00    -0.270 N 
ATOM     24  C   UNL     1       6.452  -4.627  -0.799  0.00  0.00    +0.114 C 
ATOM     25  C   UNL     1       7.904  -5.104  -0.670  0.00  0.00    +0.024 C 
ATOM     26  C   UNL     1       7.986  -6.141   0.450  0.00  0.00    +0.038 C 
ATOM     27  C   UNL     1       6.952  -7.216   0.249  0.00  0.00    -0.026 A 
ATOM     28  C   UNL     1       5.830  -7.006  -0.540  0.00  0.00    +0.039 A 
ATOM     29  C   UNL     1       4.888  -8.017  -0.697  0.00  0.00    +0.024 A 
ATOM     30  C   UNL     1       5.065  -9.231  -0.063  0.00  0.00    +0.002 A 
ATOM     31  C   UNL     1       6.181  -9.440   0.726  0.00  0.00    +0.000 A 
ATOM     32  C   UNL     1       7.126  -8.439   0.876  0.00  0.00    +0.005 A 
ENDBRANCH  20  21
ENDBRANCH   9  20
TORSDOF 6
