REMARK  Name = ZINC15823512
REMARK  10 active torsions:
REMARK  status: ('A' for Active; 'I' for Inactive)
REMARK    1  A    between atoms: C_1  and  C_2
REMARK    2  A    between atoms: C_5  and  C_8
REMARK    3  A    between atoms: C_13  and  C_30
REMARK    4  A    between atoms: C_14  and  C_16
REMARK    5  A    between atoms: C_16  and  C_17
REMARK    6  A    between atoms: C_17  and  N_18
REMARK    7  A    between atoms: N_18  and  S_19
REMARK    8  A    between atoms: S_19  and  C_22
REMARK    9  A    between atoms: C_25  and  O_28
REMARK   10  A    between atoms: O_28  and  C_29
REMARK                            x       y       z     vdW  Elec       q    Type
REMARK                         _______ _______ _______ _____ _____    ______ ____
ROOT
ATOM      1  C   UNL     1       7.295  -2.754  -6.898  0.00  0.00    +0.183 A 
ATOM      2  N   UNL     1       6.259  -1.957  -7.186  0.00  0.00    -0.200 NA
ATOM      3  C   UNL     1       5.259  -2.252  -6.403  0.00  0.00    +0.196 A 
ATOM      4  N   UNL     1       5.611  -3.266  -5.566  0.00  0.00    -0.210 N 
ATOM      5  N   UNL     1       6.951  -3.565  -5.923  0.00  0.00    -0.144 NA
ATOM      6  C   UNL     1       4.665  -3.696  -4.667  0.00  0.00    +0.052 A 
ATOM      7  C   UNL     1       3.452  -3.141  -4.635  0.00  0.00    +0.016 A 
ATOM      8  S   UNL     1       3.582  -1.910  -5.923  0.00  0.00    -0.052 S 
ATOM      9  C   UNL     1       4.999  -4.810  -3.709  0.00  0.00    +0.066 C 
ENDROOT
BRANCH   1  14
ATOM     10  C   UNL     1      12.426  -2.646  -9.510  0.00  0.00    +0.044 C 
ATOM     11  C   UNL     1      11.083  -2.674  -8.827  0.00  0.00    -0.050 A 
ATOM     12  C   UNL     1      10.091  -1.794  -9.220  0.00  0.00    +0.004 A 
ATOM     13  C   UNL     1       8.860  -1.815  -8.597  0.00  0.00    +0.012 A 
ATOM     14  C   UNL     1       8.617  -2.727  -7.571  0.00  0.00    +0.021 A 
ATOM     15  C   UNL     1       9.621  -3.608  -7.176  0.00  0.00    +0.012 A 
ATOM     16  C   UNL     1      10.847  -3.581  -7.809  0.00  0.00    +0.004 A 
ENDBRANCH   1  14
BRANCH   7  17
ATOM     17  C   UNL     1       2.281  -3.463  -3.743  0.00  0.00    +0.061 C 
BRANCH  17  18
ATOM     18  C   UNL     1       2.357  -2.610  -2.474  0.00  0.00    +0.111 C 
BRANCH  18  19
ATOM     19  N   UNL     1       1.219  -2.924  -1.607  0.00  0.00    -0.190 NA
ATOM     20  H   UNL     1       0.460  -3.413  -1.960  0.00  0.00    +0.148 HD
BRANCH  19  21
ATOM     21  S   UNL     1       1.228  -2.442  -0.022  0.00  0.00    +0.058 S 
ATOM     22  O   UNL     1       2.484  -2.836   0.514  0.00  0.00    -0.153 OA
ATOM     23  O   UNL     1      -0.007  -2.865   0.539  0.00  0.00    -0.153 OA
BRANCH  21  24
ATOM     24  C   UNL     1       1.208  -0.680  -0.013  0.00  0.00    +0.105 A 
ATOM     25  C   UNL     1       0.002  -0.004   0.002  0.00  0.00    +0.032 A 
ATOM     26  C   UNL     1      -0.017   1.377   0.010  0.00  0.00    +0.047 A 
ATOM     27  C   UNL     1       1.176   2.086   0.002  0.00  0.00    +0.120 A 
ATOM     28  C   UNL     1       2.385   1.405  -0.013  0.00  0.00    +0.047 A 
ATOM     29  C   UNL     1       2.398   0.024  -0.021  0.00  0.00    +0.032 A 
BRANCH  27  30
ATOM     30  O   UNL     1       1.160   3.445   0.009  0.00  0.00    -0.495 OA
ATOM     31  C   UNL     1       2.426   4.108   0.001  0.00  0.00    +0.277 C 
ENDBRANCH  27  30
ENDBRANCH  21  24
ENDBRANCH  19  21
ENDBRANCH  18  19
ENDBRANCH  17  18
ENDBRANCH   7  17
TORSDOF 7
