REMARK  Name = ZINC58847464
REMARK  4 active torsions:
REMARK  status: ('A' for Active; 'I' for Inactive)
REMARK    1  A    between atoms: C_3  and  N_8
REMARK    2  A    between atoms: N_8  and  S_9
REMARK    3  A    between atoms: S_9  and  C_12
REMARK    4  A    between atoms: C_25  and  C_28
REMARK                            x       y       z     vdW  Elec       q    Type
REMARK                         _______ _______ _______ _____ _____    ______ ____
ROOT
ATOM      1  C   UNL     1       5.280  -0.015   0.314  0.00  0.00    +0.109 A 
ATOM      2  C   UNL     1       4.585  -1.155   0.675  0.00  0.00    +0.030 A 
ATOM      3  C   UNL     1       4.974  -2.382   0.177  0.00  0.00    +0.025 A 
ATOM      4  C   UNL     1       6.061  -2.472  -0.686  0.00  0.00    +0.031 A 
ATOM      5  C   UNL     1       6.751  -1.329  -1.060  0.00  0.00    -0.018 A 
ATOM      6  C   UNL     1       6.352  -0.101  -0.551  0.00  0.00    +0.034 A 
ATOM      7  C   UNL     1       7.895  -1.381  -2.014  0.00  0.00    +0.049 C 
ATOM      8  C   UNL     1       9.224  -1.241  -1.316  0.00  0.00    -0.023 C 
ATOM      9  C   UNL     1      10.124  -1.991  -1.901  0.00  0.00    -0.030 C 
ATOM     10  C   UNL     1       9.524  -2.743  -3.069  0.00  0.00    +0.033 C 
ATOM     11  C   UNL     1       8.002  -2.683  -2.806  0.00  0.00    +0.029 C 
ATOM     12  C   UNL     1       7.610  -3.913  -2.013  0.00  0.00    +0.105 C 
ATOM     13  N   UNL     1       6.453  -3.716  -1.165  0.00  0.00    -0.336 N 
ATOM     14  H   UNL     1       5.939  -4.495  -0.898  0.00  0.00    +0.147 HD
ENDROOT
BRANCH  12  15
ATOM     15  C   UNL     1       8.788  -4.336  -1.174  0.00  0.00    -0.023 A 
ATOM     16  C   UNL     1       9.055  -3.687   0.017  0.00  0.00    +0.009 A 
ATOM     17  C   UNL     1      10.134  -4.072   0.791  0.00  0.00    +0.050 A 
ATOM     18  C   UNL     1      10.951  -5.111   0.374  0.00  0.00    +0.166 A 
ATOM     19  C   UNL     1      10.682  -5.765  -0.826  0.00  0.00    +0.167 A 
ATOM     20  C   UNL     1       9.595  -5.377  -1.593  0.00  0.00    +0.055 A 
ATOM     21  O   UNL     1      11.620  -6.739  -1.012  0.00  0.00    -0.453 OA
ATOM     22  C   UNL     1      12.701  -6.406  -0.121  0.00  0.00    +0.466 C 
ATOM     23  O   UNL     1      12.058  -5.675   0.939  0.00  0.00    -0.453 OA
ENDBRANCH  12  15
BRANCH   1  24
ATOM     24  S   UNL     1       4.791   1.552   0.955  0.00  0.00    +0.072 S 
ATOM     25  O   UNL     1       5.898   2.425   0.779  0.00  0.00    -0.150 OA
ATOM     26  O   UNL     1       4.209   1.306   2.227  0.00  0.00    -0.150 OA
BRANCH  24  27
ATOM     27  N   UNL     1       3.579   2.122  -0.019  0.00  0.00    -0.216 N 
ATOM     28  H   UNL     1       2.697   2.285   0.350  0.00  0.00    +0.174 HD
BRANCH  27  31
ATOM     29  C   UNL     1       3.179   2.167  -3.672  0.00  0.00    +0.003 A 
ATOM     30  C   UNL     1       2.931   1.922  -2.335  0.00  0.00    +0.024 A 
ATOM     31  C   UNL     1       3.827   2.368  -1.371  0.00  0.00    +0.049 A 
ATOM     32  C   UNL     1       4.969   3.059  -1.755  0.00  0.00    +0.044 A 
ATOM     33  C   UNL     1       5.211   3.301  -3.094  0.00  0.00    +0.043 A 
ATOM     34  C   UNL     1       4.316   2.855  -4.052  0.00  0.00    +0.020 A 
ATOM     35 CL   UNL     1       6.637   4.165  -3.576  0.00  0.00    -0.083 Cl
ENDBRANCH  27  31
ENDBRANCH  24  27
ENDBRANCH   1  24
TORSDOF 4
