REMARK  Name = ZINC38666177
REMARK  10 active torsions:
REMARK  status: ('A' for Active; 'I' for Inactive)
REMARK    1  A    between atoms: C_1  and  N_2
REMARK    2  A    between atoms: N_2  and  C_3
REMARK    3  A    between atoms: N_2  and  C_4
REMARK    4  A    between atoms: C_7  and  C_10
REMARK    5  A    between atoms: C_10  and  C_12
REMARK    6  A    between atoms: C_10  and  N_29
REMARK    7  A    between atoms: C_12  and  N_13
REMARK    8  A    between atoms: C_14  and  C_16
REMARK    9  A    between atoms: N_21  and  C_23
REMARK   10  A    between atoms: N_32  and  C_35
REMARK                            x       y       z     vdW  Elec       q    Type
REMARK                         _______ _______ _______ _____ _____    ______ ____
ROOT
ATOM      1  C   UNL     1       0.066  -2.801  -4.883  0.00  0.00    +0.104 C 
ENDROOT
BRANCH   1   5
ATOM      2  C   UNL     1       0.111  -1.231  -0.908  0.00  0.00    +0.029 A 
ATOM      3  C   UNL     1       0.145  -2.605  -1.115  0.00  0.00    +0.023 A 
ATOM      4  C   UNL     1       0.130  -3.109  -2.401  0.00  0.00    +0.007 A 
ATOM      5  C   UNL     1       0.081  -2.248  -3.482  0.00  0.00    -0.029 A 
ATOM      6  C   UNL     1       0.047  -0.880  -3.280  0.00  0.00    +0.007 A 
ATOM      7  C   UNL     1       0.056  -0.370  -1.997  0.00  0.00    +0.023 A 
BRANCH   2   9
ATOM      8  C   UNL     1       0.083   0.730   0.607  0.00  0.00    +0.129 C 
ATOM      9  N   UNL     1       0.125  -0.718   0.391  0.00  0.00    -0.336 N 
ATOM     10  C   UNL     1       0.182  -1.628   1.537  0.00  0.00    +0.129 C 
ENDBRANCH   2   9
ENDBRANCH   1   5
BRANCH   1  11
ATOM     11  N   UNL     1       0.914  -1.970  -5.747  0.00  0.00    -0.291 NA
ATOM     12  C   UNL     1       0.795  -2.378  -7.153  0.00  0.00    +0.104 C 
ATOM     13  C   UNL     1       1.547  -1.379  -8.038  0.00  0.00    +0.120 C 
ATOM     14  N   UNL     1       2.926  -1.260  -7.540  0.00  0.00    -0.327 N 
ATOM     15  C   UNL     1       3.128  -0.987  -6.109  0.00  0.00    +0.120 C 
ATOM     16  C   UNL     1       2.313  -2.002  -5.300  0.00  0.00    +0.104 C 
BRANCH  14  17
ATOM     17  C   UNL     1       4.016  -1.403  -8.405  0.00  0.00    +0.030 A 
ATOM     18  C   UNL     1       3.807  -1.545  -9.770  0.00  0.00    +0.026 A 
ATOM     19  C   UNL     1       4.885  -1.686 -10.622  0.00  0.00    +0.040 A 
ATOM     20  C   UNL     1       6.174  -1.686 -10.115  0.00  0.00    +0.124 A 
ATOM     21  C   UNL     1       6.385  -1.545  -8.754  0.00  0.00    +0.040 A 
ATOM     22  C   UNL     1       5.309  -1.398  -7.899  0.00  0.00    +0.026 A 
ATOM     23  F   UNL     1       7.227  -1.824 -10.950  0.00  0.00    -0.205 F 
ENDBRANCH  14  17
ENDBRANCH   1  11
BRANCH   1  24
ATOM     24  C   UNL     1      -1.367  -2.796  -5.418  0.00  0.00    +0.127 C 
BRANCH  24  25
ATOM     25  N   UNL     1      -2.201  -3.671  -4.590  0.00  0.00    -0.313 N 
ATOM     26  C   UNL     1      -3.484  -3.900  -4.931  0.00  0.00    +0.218 C 
ATOM     27  O   UNL     1      -3.950  -3.381  -5.923  0.00  0.00    -0.275 OA
ATOM     28  H   UNL     1      -1.829  -4.086  -3.796  0.00  0.00    +0.149 HD
BRANCH  26  29
ATOM     29  C   UNL     1      -4.342  -4.799  -4.079  0.00  0.00    +0.101 C 
ATOM     30  C   UNL     1      -3.805  -6.249  -4.091  0.00  0.00    +0.110 C 
ATOM     31  C   UNL     1      -5.052  -7.106  -4.084  0.00  0.00    +0.221 C 
ATOM     32  O   UNL     1      -5.081  -8.288  -3.811  0.00  0.00    -0.275 OA
ATOM     33  N   UNL     1      -6.123  -6.367  -4.423  0.00  0.00    -0.271 N 
ATOM     34  C   UNL     1      -5.745  -4.976  -4.699  0.00  0.00    +0.127 C 
BRANCH  33  35
ATOM     35  C   UNL     1      -7.430  -6.861  -4.500  0.00  0.00    +0.036 A 
ATOM     36  C   UNL     1      -7.673  -8.217  -4.324  0.00  0.00    +0.023 A 
ATOM     37  C   UNL     1      -8.965  -8.701  -4.402  0.00  0.00    +0.002 A 
ATOM     38  C   UNL     1     -10.014  -7.837  -4.655  0.00  0.00    +0.000 A 
ATOM     39  C   UNL     1      -9.775  -6.487  -4.832  0.00  0.00    +0.002 A 
ATOM     40  C   UNL     1      -8.487  -5.995  -4.749  0.00  0.00    +0.023 A 
ENDBRANCH  33  35
ENDBRANCH  26  29
ENDBRANCH  24  25
ENDBRANCH   1  24
TORSDOF 8
