REMARK  Name = ZINC39362921
REMARK  6 active torsions:
REMARK  status: ('A' for Active; 'I' for Inactive)
REMARK    1  A    between atoms: C_5  and  C_7
REMARK    2  A    between atoms: C_7  and  S_8
REMARK    3  A    between atoms: S_8  and  C_9
REMARK    4  A    between atoms: C_12  and  C_22
REMARK    5  A    between atoms: N_14  and  C_15
REMARK    6  A    between atoms: C_22  and  C_23
REMARK                            x       y       z     vdW  Elec       q    Type
REMARK                         _______ _______ _______ _____ _____    ______ ____
ROOT
ATOM      1  C   UNL     1       1.501  -4.572   1.510  0.00  0.00    +0.180 C 
ATOM      2  N   UNL     1       1.436  -5.179   0.373  0.00  0.00    -0.162 NA
ATOM      3  N   UNL     1       1.174  -6.545   0.534  0.00  0.00    -0.246 N 
ATOM      4  C   UNL     1       1.068  -6.774   1.986  0.00  0.00    +0.187 C 
ATOM      5  N   UNL     1       1.298  -5.442   2.571  0.00  0.00    -0.258 N 
ATOM      6  H   UNL     1       1.079  -7.207  -0.168  0.00  0.00    +0.170 HD
ENDROOT
BRANCH   5   7
ATOM      7  C   UNL     1       1.308  -5.118   3.932  0.00  0.00    +0.038 A 
ATOM      8  C   UNL     1       2.312  -5.610   4.757  0.00  0.00    +0.026 A 
ATOM      9  C   UNL     1       2.319  -5.287   6.100  0.00  0.00    +0.040 A 
ATOM     10  C   UNL     1       1.328  -4.475   6.624  0.00  0.00    +0.124 A 
ATOM     11  C   UNL     1       0.327  -3.984   5.803  0.00  0.00    +0.040 A 
ATOM     12  C   UNL     1       0.318  -4.299   4.459  0.00  0.00    +0.026 A 
ATOM     13  F   UNL     1       1.337  -4.162   7.938  0.00  0.00    -0.205 F 
ENDBRANCH   5   7
BRANCH   1  14
ATOM     14  S   UNL     1       1.816  -2.849   1.692  0.00  0.00    -0.084 S 
BRANCH  14  15
ATOM     15  C   UNL     1       1.992  -2.252  -0.012  0.00  0.00    +0.113 C 
BRANCH  15  20
ATOM     16  C   UNL     1       1.472   1.488  -0.027  0.00  0.00    +0.000 A 
ATOM     17  C   UNL     1       2.775   1.948   0.023  0.00  0.00    +0.001 A 
ATOM     18  C   UNL     1       3.824   1.050   0.062  0.00  0.00    +0.020 A 
ATOM     19  C   UNL     1       3.571  -0.310   0.051  0.00  0.00    +0.045 A 
ATOM     20  C   UNL     1       2.268  -0.770   0.001  0.00  0.00    -0.019 A 
ATOM     21  C   UNL     1       1.219   0.129  -0.038  0.00  0.00    +0.006 A 
ATOM     22 CL   UNL     1       4.890  -1.438   0.100  0.00  0.00    -0.083 Cl
ENDBRANCH  15  20
ENDBRANCH  14  15
ENDBRANCH   1  14
BRANCH   4  23
ATOM     23  C   UNL     1      -0.324  -7.295   2.347  0.00  0.00    +0.097 C 
BRANCH  23  24
ATOM     24  C   UNL     1      -0.516  -8.668   1.756  0.00  0.00    +0.029 A 
ATOM     25  N   UNL     1      -0.939  -8.806   0.462  0.00  0.00    -0.311 N 
ATOM     26  C   UNL     1      -1.113 -10.028  -0.075  0.00  0.00    +0.327 A 
ATOM     27  O   UNL     1      -1.489 -10.128  -1.227  0.00  0.00    -0.247 OA
ATOM     28  N   UNL     1      -0.875 -11.140   0.644  0.00  0.00    -0.275 N 
ATOM     29  C   UNL     1      -0.456 -11.046   1.923  0.00  0.00    +0.254 A 
ATOM     30  O   UNL     1      -0.241 -12.052   2.574  0.00  0.00    -0.268 OA
ATOM     31  C   UNL     1      -0.265  -9.767   2.499  0.00  0.00    +0.091 A 
ATOM     32  H   UNL     1      -1.005 -12.013   0.242  0.00  0.00    +0.173 HD
ATOM     33  H   UNL     1      -1.116  -8.017  -0.072  0.00  0.00    +0.170 HD
ENDBRANCH  23  24
ENDBRANCH   4  23
TORSDOF 6
