REMARK  Name = ZINC36207688
REMARK  12 active torsions:
REMARK  status: ('A' for Active; 'I' for Inactive)
REMARK    1  A    between atoms: C_1  and  C_2
REMARK    2  A    between atoms: C_7  and  C_8
REMARK    3  A    between atoms: C_17  and  C_19
REMARK    4  A    between atoms: C_19  and  N_20
REMARK    5  A    between atoms: N_20  and  C_21
REMARK    6  A    between atoms: N_20  and  C_24
REMARK    7  A    between atoms: C_21  and  C_22
REMARK    8  A    between atoms: C_24  and  C_25
REMARK    9  A    between atoms: C_25  and  C_27
REMARK   10  A    between atoms: C_25  and  O_36
REMARK   11  A    between atoms: C_27  and  O_28
REMARK   12  A    between atoms: O_28  and  C_29
REMARK                            x       y       z     vdW  Elec       q    Type
REMARK                         _______ _______ _______ _____ _____    ______ ____
ROOT
ATOM      1  C   UNL     1      -4.013   3.079   4.712  0.00  0.00    -0.003 C 
ENDROOT
BRANCH   1  11
ATOM      2  C   UNL     1       0.456   0.056   2.875  0.00  0.00    +0.004 A 
ATOM      3  C   UNL     1       1.543   0.201   3.670  0.00  0.00    +0.056 A 
ATOM      4  S   UNL     1       0.977   1.314   4.943  0.00  0.00    -0.076 S 
ATOM      5  C   UNL     1      -0.689   1.555   4.383  0.00  0.00    +0.116 A 
ATOM      6  C   UNL     1      -0.766   0.772   3.220  0.00  0.00    +0.080 A 
ATOM      7  C   UNL     1      -2.029   0.786   2.545  0.00  0.00    +0.260 A 
ATOM      8  O   UNL     1      -2.195   0.134   1.529  0.00  0.00    -0.267 OA
ATOM      9  N   UNL     1      -3.030   1.530   3.051  0.00  0.00    -0.312 N 
ATOM     10  H   UNL     1      -3.888   1.543   2.598  0.00  0.00    +0.170 HD
ATOM     11  C   UNL     1      -2.864   2.261   4.183  0.00  0.00    +0.094 A 
ATOM     12  N   UNL     1      -1.726   2.262   4.825  0.00  0.00    -0.229 NA
BRANCH   2  19
ATOM     13  C   UNL     1       0.185   1.233   0.246  0.00  0.00    +0.044 C 
ATOM     14  C   UNL     1       0.380  -0.253   0.402  0.00  0.00    -0.043 A 
ATOM     15  C   UNL     1       0.437  -1.064  -0.713  0.00  0.00    +0.004 A 
ATOM     16  C   UNL     1       0.617  -2.428  -0.572  0.00  0.00    +0.000 A 
ATOM     17  C   UNL     1       0.740  -2.988   0.688  0.00  0.00    +0.001 A 
ATOM     18  C   UNL     1       0.684  -2.187   1.810  0.00  0.00    +0.009 A 
ATOM     19  C   UNL     1       0.510  -0.810   1.673  0.00  0.00    -0.014 A 
ENDBRANCH   2  19
ENDBRANCH   1  11
BRANCH   1  20
ATOM     20  N   UNL     1      -3.595   3.777   5.935  0.00  0.00    +0.388 N 
ATOM     21  H   UNL     1      -3.239   3.107   6.600  0.00  0.00    -0.081 HD
BRANCH  20  22
ATOM     22  C   UNL     1      -2.545   4.750   5.608  0.00  0.00    -0.051 C 
BRANCH  22  23
ATOM     23  C   UNL     1      -2.012   5.361   6.879  0.00  0.00    -0.053 C 
ATOM     24  C   UNL     1      -0.731   5.303   7.147  0.00  0.00    +0.002 C 
ENDBRANCH  22  23
ENDBRANCH  20  22
BRANCH  20  25
ATOM     25  C   UNL     1      -4.748   4.478   6.517  0.00  0.00    -0.043 C 
BRANCH  25  26
ATOM     26  C   UNL     1      -5.780   3.454   6.992  0.00  0.00    +0.135 C 
BRANCH  26  27
ATOM     27  O   UNL     1      -5.192   2.610   7.984  0.00  0.00    -0.390 OA
ATOM     28  H   UNL     1      -4.946   3.071   8.797  0.00  0.00    +0.210 HD
ENDBRANCH  26  27
BRANCH  26  29
ATOM     29  C   UNL     1      -6.983   4.184   7.593  0.00  0.00    +0.258 C 
BRANCH  29  30
ATOM     30  O   UNL     1      -7.997   3.235   7.931  0.00  0.00    -0.489 OA
BRANCH  30  31
ATOM     31  C   UNL     1      -9.141   3.723   8.480  0.00  0.00    +0.121 A 
ATOM     32  C   UNL     1      -9.287   5.087   8.684  0.00  0.00    +0.047 A 
ATOM     33  C   UNL     1     -10.450   5.581   9.242  0.00  0.00    +0.023 A 
ATOM     34  C   UNL     1     -11.469   4.715   9.598  0.00  0.00    +0.041 A 
ATOM     35  C   UNL     1     -11.325   3.354   9.396  0.00  0.00    +0.023 A 
ATOM     36  C   UNL     1     -10.166   2.857   8.832  0.00  0.00    +0.047 A 
ATOM     37 CL   UNL     1     -12.930   5.338  10.300  0.00  0.00    -0.084 Cl
ENDBRANCH  30  31
ENDBRANCH  29  30
ENDBRANCH  26  29
ENDBRANCH  25  26
ENDBRANCH  20  25
ENDBRANCH   1  20
TORSDOF 11
