REMARK  Name = ZINC24002596
REMARK  13 active torsions:
REMARK  status: ('A' for Active; 'I' for Inactive)
REMARK    1  A    between atoms: C_1  and  C_2
REMARK    2  A    between atoms: C_2  and  O_3
REMARK    3  A    between atoms: O_3  and  C_4
REMARK    4  A    between atoms: C_4  and  C_6
REMARK    5  A    between atoms: C_7  and  C_19
REMARK    6  A    between atoms: C_12  and  C_14
REMARK    7  A    between atoms: C_19  and  O_20
REMARK    8  A    between atoms: O_20  and  C_21
REMARK    9  A    between atoms: C_21  and  C_23
REMARK   10  A    between atoms: C_23  and  C_33
REMARK   11  A    between atoms: C_24  and  C_25
REMARK   12  A    between atoms: C_28  and  O_31
REMARK   13  A    between atoms: O_31  and  C_32
REMARK                            x       y       z     vdW  Elec       q    Type
REMARK                         _______ _______ _______ _____ _____    ______ ____
ROOT
ATOM      1  C   UNL     1       5.270  -7.937  -1.427  0.00  0.00    +0.084 C 
ATOM      2  C   UNL     1       5.032  -6.621  -1.236  0.00  0.00    +0.061 C 
ATOM      3  N   UNL     1       6.043  -5.706  -1.300  0.00  0.00    -0.269 N 
ATOM      4  C   UNL     1       7.321  -6.026  -1.539  0.00  0.00    +0.305 C 
ATOM      5  O   UNL     1       8.153  -5.140  -1.571  0.00  0.00    -0.252 OA
ATOM      6  N   UNL     1       7.714  -7.298  -1.750  0.00  0.00    -0.285 N 
ATOM      7  C   UNL     1       6.697  -8.362  -1.708  0.00  0.00    +0.179 C 
ATOM      8  H   UNL     1       5.828  -4.637  -1.151  0.00  0.00    +0.156 HD
ATOM      9  H   UNL     1       8.766  -7.550  -1.949  0.00  0.00    +0.151 HD
ENDROOT
BRANCH   7  10
ATOM     10  C   UNL     1       7.104  -9.352  -0.647  0.00  0.00    +0.130 A 
ATOM     11  C   UNL     1       7.127 -10.690  -0.787  0.00  0.00    +0.047 A 
ATOM     12  C   UNL     1       7.568 -11.223   0.446  0.00  0.00    +0.041 A 
ATOM     13  C   UNL     1       7.788 -10.179   1.266  0.00  0.00    +0.195 A 
ATOM     14  O   UNL     1       7.511  -9.048   0.596  0.00  0.00    -0.466 OA
ENDBRANCH   7  10
BRANCH   1  15
ATOM     15  C   UNL     1       4.223  -8.886  -1.367  0.00  0.00    +0.339 C 
ATOM     16  O   UNL     1       3.072  -8.514  -1.235  0.00  0.00    -0.245 OA
BRANCH  15  17
ATOM     17  O   UNL     1       4.500 -10.203  -1.455  0.00  0.00    -0.462 OA
BRANCH  17  19
ATOM     18  C   UNL     1       3.901 -12.544  -1.503  0.00  0.00    +0.048 C 
ATOM     19  C   UNL     1       3.394 -11.105  -1.387  0.00  0.00    +0.229 C 
ENDBRANCH  17  19
ENDBRANCH  15  17
ENDBRANCH   1  15
BRANCH   2  20
ATOM     20  C   UNL     1       3.627  -6.155  -0.955  0.00  0.00    +0.283 C 
BRANCH  20  21
ATOM     21  O   UNL     1       3.634  -4.727  -0.693  0.00  0.00    -0.455 OA
BRANCH  21  22
ATOM     22  C   UNL     1       2.446  -4.149  -0.421  0.00  0.00    +0.341 C 
ATOM     23  O   UNL     1       1.433  -4.821  -0.404  0.00  0.00    -0.245 OA
BRANCH  22  24
ATOM     24  C   UNL     1       2.377  -2.706  -0.146  0.00  0.00    +0.073 C 
ATOM     25  C   UNL     1       1.175  -2.121   0.129  0.00  0.00    +0.024 C 
BRANCH  25  26
ATOM     26  C   UNL     1       1.123  -0.720   0.558  0.00  0.00    -0.024 A 
ATOM     27  C   UNL     1       0.076   0.108   0.133  0.00  0.00    +0.011 A 
ATOM     28  C   UNL     1       0.032   1.422   0.539  0.00  0.00    +0.046 A 
ATOM     29  C   UNL     1       1.024   1.929   1.371  0.00  0.00    +0.120 A 
ATOM     30  C   UNL     1       2.066   1.112   1.797  0.00  0.00    +0.046 A 
ATOM     31  C   UNL     1       2.120  -0.204   1.397  0.00  0.00    +0.011 A 
BRANCH  29  32
ATOM     32  O   UNL     1       0.976   3.226   1.769  0.00  0.00    -0.495 OA
ATOM     33  C   UNL     1       2.027   3.682   2.623  0.00  0.00    +0.277 C 
ENDBRANCH  29  32
ENDBRANCH  25  26
BRANCH  24  34
ATOM     34  C   UNL     1       3.606  -1.892  -0.167  0.00  0.00    +0.026 A 
ATOM     35  C   UNL     1       4.673  -1.915   0.694  0.00  0.00    +0.016 A 
ATOM     36  C   UNL     1       5.724  -1.053   0.469  0.00  0.00    +0.008 A 
ATOM     37  C   UNL     1       5.667  -0.202  -0.587  0.00  0.00    +0.046 A 
ATOM     38  S   UNL     1       4.089  -0.613  -1.315  0.00  0.00    -0.096 S 
ENDBRANCH  24  34
ENDBRANCH  22  24
ENDBRANCH  21  22
ENDBRANCH  20  21
ENDBRANCH   2  20
TORSDOF 11
