REMARK  Name = ZINC67082657
REMARK  7 active torsions:
REMARK  status: ('A' for Active; 'I' for Inactive)
REMARK    1  A    between atoms: C_1  and  C_2
REMARK    2  A    between atoms: C_3  and  C_12
REMARK    3  A    between atoms: C_12  and  C_13
REMARK    4  A    between atoms: C_13  and  N_14
REMARK    5  A    between atoms: N_17  and  N_18
REMARK    6  A    between atoms: C_19  and  C_21
REMARK    7  A    between atoms: C_21  and  C_22
REMARK                            x       y       z     vdW  Elec       q    Type
REMARK                         _______ _______ _______ _____ _____    ______ ____
ROOT
ATOM      1  N   UNL     1       1.418   0.372  -4.405  0.00  0.00    -0.298 N 
ATOM      2  C   UNL     1       2.579   0.605  -5.049  0.00  0.00    +0.316 C 
ATOM      3  O   UNL     1       3.637   0.423  -4.479  0.00  0.00    -0.251 OA
ATOM      4  N   UNL     1       2.566   1.038  -6.325  0.00  0.00    -0.218 N 
ATOM      5  H   UNL     1       0.573   0.516  -4.860  0.00  0.00    +0.150 HD
ATOM      6  H   UNL     1       3.401   1.206  -6.789  0.00  0.00    +0.174 HD
ENDROOT
BRANCH   4   7
ATOM      7  N   UNL     1       1.346   1.247  -6.982  0.00  0.00    -0.233 N 
ATOM      8  C   UNL     1       1.334   1.681  -8.258  0.00  0.00    +0.229 C 
ATOM      9  O   UNL     1       2.378   1.890  -8.838  0.00  0.00    -0.274 OA
ATOM     10  H   UNL     1       0.511   1.079  -6.519  0.00  0.00    +0.173 HD
BRANCH   8  11
ATOM     11  C   UNL     1       0.022   1.905  -8.965  0.00  0.00    +0.101 C 
BRANCH  11  12
ATOM     12  C   UNL     1       0.288   2.393 -10.391  0.00  0.00    -0.002 C 
ATOM     13  C   UNL     1       0.962   3.766 -10.342  0.00  0.00    +0.004 C 
ATOM     14  C   UNL     1       1.227   4.254 -11.768  0.00  0.00    +0.000 C 
ATOM     15  C   UNL     1      -0.098   4.363 -12.525  0.00  0.00    +0.000 C 
ATOM     16  C   UNL     1      -0.772   2.990 -12.573  0.00  0.00    +0.000 C 
ATOM     17  C   UNL     1      -1.037   2.502 -11.148  0.00  0.00    +0.004 C 
ENDBRANCH  11  12
ENDBRANCH   8  11
ENDBRANCH   4   7
BRANCH   1  18
ATOM     18  C   UNL     1       1.431  -0.100  -3.018  0.00  0.00    +0.110 C 
BRANCH  18  19
ATOM     19  C   UNL     1      -0.006  -0.284  -2.528  0.00  0.00    +0.056 C 
BRANCH  19  22
ATOM     20  C   UNL     1      -0.018   1.503   0.010  0.00  0.00    +0.063 C 
ATOM     21  C   UNL     1       0.002  -0.004   0.002  0.00  0.00    +0.017 A 
ATOM     22  C   UNL     1       0.007  -0.769  -1.101  0.00  0.00    -0.018 A 
ATOM     23  C   UNL     1       0.029  -2.164  -0.655  0.00  0.00    +0.003 A 
ATOM     24  C   UNL     1       0.043  -3.394  -1.316  0.00  0.00    +0.010 A 
ATOM     25  C   UNL     1       0.063  -4.552  -0.593  0.00  0.00    +0.001 A 
ATOM     26  C   UNL     1       0.070  -4.517   0.795  0.00  0.00    +0.002 A 
ATOM     27  C   UNL     1       0.056  -3.315   1.468  0.00  0.00    +0.026 A 
ATOM     28  C   UNL     1       0.036  -2.122   0.751  0.00  0.00    +0.047 A 
ATOM     29  N   UNL     1       0.024  -0.795   1.118  0.00  0.00    -0.358 N 
ATOM     30  H   UNL     1       0.029  -0.470   2.032  0.00  0.00    +0.166 HD
ENDBRANCH  19  22
ENDBRANCH  18  19
ENDBRANCH   1  18
TORSDOF 6
