REMARK  Name = ZINC36737159
REMARK  3 active torsions:
REMARK  status: ('A' for Active; 'I' for Inactive)
REMARK    1  A    between atoms: C_5  and  C_6
REMARK    2  A    between atoms: N_8  and  C_9
REMARK    3  A    between atoms: C_14  and  N_15
REMARK                            x       y       z     vdW  Elec       q    Type
REMARK                         _______ _______ _______ _____ _____    ______ ____
ROOT
ATOM      1  C   UNL     1      -2.395  -2.844   0.103  0.00  0.00    +0.058 A 
ATOM      2  C   UNL     1      -3.601  -2.158   0.105  0.00  0.00    +0.074 A 
ATOM      3  C   UNL     1      -4.794  -2.854   0.205  0.00  0.00    +0.168 A 
ATOM      4  C   UNL     1      -4.784  -4.243   0.303  0.00  0.00    +0.168 A 
ATOM      5  C   UNL     1      -3.580  -4.929   0.301  0.00  0.00    +0.074 A 
ATOM      6  C   UNL     1      -2.385  -4.234   0.196  0.00  0.00    +0.050 A 
ATOM      7  O   UNL     1      -6.075  -4.684   0.389  0.00  0.00    -0.453 OA
ATOM      8  C   UNL     1      -6.852  -3.528   0.754  0.00  0.00    +0.466 C 
ATOM      9  O   UNL     1      -6.091  -2.424   0.229  0.00  0.00    -0.453 OA
ENDROOT
BRANCH   1  12
ATOM     10  C   UNL     1      -1.163  -0.921  -0.577  0.00  0.00    +0.249 C 
ATOM     11  O   UNL     1      -2.167  -0.478  -1.102  0.00  0.00    -0.270 OA
ATOM     12  N   UNL     1      -1.186  -2.138   0.002  0.00  0.00    -0.280 N 
ATOM     13  H   UNL     1      -0.368  -2.526   0.350  0.00  0.00    +0.155 HD
BRANCH  10  18
ATOM     14  C   UNL     1       0.141   1.177  -1.185  0.00  0.00    +0.020 A 
ATOM     15  C   UNL     1       1.335   1.799  -1.115  0.00  0.00    +0.046 A 
ATOM     16  S   UNL     1       2.348   0.628  -0.236  0.00  0.00    -0.104 S 
ATOM     17  C   UNL     1       1.232  -0.600   0.010  0.00  0.00    +0.058 A 
ATOM     18  C   UNL     1       0.078  -0.129  -0.575  0.00  0.00    +0.044 A 
ENDBRANCH  10  18
ENDBRANCH   1  12
BRANCH   6  19
ATOM     19  N   UNL     1      -1.168  -4.929   0.187  0.00  0.00    -0.356 N 
ATOM     20  H   UNL     1      -0.332  -4.442   0.117  0.00  0.00    +0.142 HD
ATOM     21  H   UNL     1      -1.162  -5.897   0.252  0.00  0.00    +0.142 HD
ENDBRANCH   6  19
TORSDOF 3
