REMARK  Name = ZINC36205861
REMARK  15 active torsions:
REMARK  status: ('A' for Active; 'I' for Inactive)
REMARK    1  A    between atoms: C_1  and  C_2
REMARK    2  A    between atoms: C_7  and  C_8
REMARK    3  A    between atoms: C_17  and  C_19
REMARK    4  A    between atoms: C_19  and  N_20
REMARK    5  A    between atoms: N_20  and  C_21
REMARK    6  A    between atoms: N_20  and  C_24
REMARK    7  A    between atoms: C_21  and  C_22
REMARK    8  A    between atoms: C_24  and  C_25
REMARK    9  A    between atoms: C_25  and  C_27
REMARK   10  A    between atoms: C_25  and  O_33
REMARK   11  A    between atoms: C_27  and  O_28
REMARK   12  A    between atoms: O_28  and  C_29
REMARK   13  A    between atoms: C_29  and  C_30
REMARK   14  A    between atoms: C_29  and  C_31
REMARK   15  A    between atoms: C_29  and  C_32
REMARK                            x       y       z     vdW  Elec       q    Type
REMARK                         _______ _______ _______ _____ _____    ______ ____
ROOT
ATOM      1  C   UNL     1      -4.416   8.915   1.715  0.00  0.00    +0.004 A 
ATOM      2  C   UNL     1      -4.560   9.965   2.559  0.00  0.00    +0.056 A 
ATOM      3  S   UNL     1      -4.330   9.234   4.169  0.00  0.00    -0.076 S 
ATOM      4  C   UNL     1      -4.050   7.553   3.675  0.00  0.00    +0.116 A 
ATOM      5  C   UNL     1      -4.146   7.596   2.275  0.00  0.00    +0.080 A 
ATOM      6  C   UNL     1      -3.961   6.346   1.602  0.00  0.00    +0.260 A 
ATOM      7  O   UNL     1      -4.022   6.284   0.386  0.00  0.00    -0.267 OA
ATOM      8  N   UNL     1      -3.719   5.242   2.332  0.00  0.00    -0.312 N 
ATOM      9  H   UNL     1      -3.593   4.393   1.882  0.00  0.00    +0.170 HD
ATOM     10  C   UNL     1      -3.647   5.294   3.687  0.00  0.00    +0.094 A 
ATOM     11  N   UNL     1      -3.803   6.421   4.329  0.00  0.00    -0.229 NA
ENDROOT
BRANCH   1  18
ATOM     12  C   UNL     1      -6.594   7.657   0.285  0.00  0.00    +0.044 C 
ATOM     13  C   UNL     1      -5.583   8.501  -0.449  0.00  0.00    -0.043 A 
ATOM     14  C   UNL     1      -5.694   8.683  -1.812  0.00  0.00    +0.004 A 
ATOM     15  C   UNL     1      -4.767   9.457  -2.487  0.00  0.00    +0.000 A 
ATOM     16  C   UNL     1      -3.724  10.052  -1.800  0.00  0.00    +0.001 A 
ATOM     17  C   UNL     1      -3.602   9.876  -0.437  0.00  0.00    +0.009 A 
ATOM     18  C   UNL     1      -4.537   9.102   0.249  0.00  0.00    -0.014 A 
ENDBRANCH   1  18
BRANCH  10  19
ATOM     19  C   UNL     1      -3.374   4.031   4.463  0.00  0.00    -0.003 C 
BRANCH  19  20
ATOM     20  N   UNL     1      -3.272   4.348   5.894  0.00  0.00    +0.388 N 
ATOM     21  H   UNL     1      -2.606   5.095   6.026  0.00  0.00    -0.081 HD
BRANCH  20  22
ATOM     22  C   UNL     1      -2.824   3.158   6.628  0.00  0.00    -0.051 C 
BRANCH  22  23
ATOM     23  C   UNL     1      -1.455   2.755   6.146  0.00  0.00    -0.053 C 
ATOM     24  C   UNL     1      -0.470   2.626   7.001  0.00  0.00    +0.002 C 
ENDBRANCH  22  23
ENDBRANCH  20  22
BRANCH  20  25
ATOM     25  C   UNL     1      -4.586   4.769   6.397  0.00  0.00    -0.044 C 
BRANCH  25  26
ATOM     26  C   UNL     1      -4.443   5.280   7.832  0.00  0.00    +0.124 C 
BRANCH  26  27
ATOM     27  O   UNL     1      -4.123   4.188   8.697  0.00  0.00    -0.391 OA
ATOM     28  H   UNL     1      -4.790   3.487   8.709  0.00  0.00    +0.210 HD
ENDBRANCH  26  27
BRANCH  26  29
ATOM     29  C   UNL     1      -5.760   5.917   8.281  0.00  0.00    +0.189 C 
BRANCH  29  30
ATOM     30  O   UNL     1      -5.591   6.497   9.576  0.00  0.00    -0.372 OA
BRANCH  30  31
ATOM     31  C   UNL     1      -6.769   7.122  10.090  0.00  0.00    +0.061 C 
ATOM     32  C   UNL     1      -7.889   6.086  10.201  0.00  0.00    +0.041 C 
ATOM     33  C   UNL     1      -6.474   7.705  11.474  0.00  0.00    +0.041 C 
ATOM     34  C   UNL     1      -7.204   8.244   9.146  0.00  0.00    +0.041 C 
ENDBRANCH  30  31
ENDBRANCH  29  30
ENDBRANCH  26  29
ENDBRANCH  25  26
ENDBRANCH  20  25
ENDBRANCH  19  20
ENDBRANCH  10  19
TORSDOF 11
