REMARK  Name = ZINC12007499
REMARK  9 active torsions:
REMARK  status: ('A' for Active; 'I' for Inactive)
REMARK    1  A    between atoms: C_1  and  C_2
REMARK    2  A    between atoms: C_2  and  C_3
REMARK    3  A    between atoms: C_3  and  C_4
REMARK    4  A    between atoms: C_13  and  N_22
REMARK    5  A    between atoms: C_15  and  C_17
REMARK    6  A    between atoms: C_23  and  C_25
REMARK    7  A    between atoms: N_30  and  C_32
REMARK    8  A    between atoms: C_35  and  O_38
REMARK    9  A    between atoms: O_38  and  C_39
REMARK                            x       y       z     vdW  Elec       q    Type
REMARK                         _______ _______ _______ _____ _____    ______ ____
ROOT
ATOM      1  C   UNL     1      -1.671  -4.564   2.280  0.00  0.00    +0.050 A 
ATOM      2  C   UNL     1      -2.276  -5.486   3.083  0.00  0.00    +0.093 A 
ATOM      3  C   UNL     1      -1.983  -5.482   4.460  0.00  0.00    +0.253 A 
ATOM      4  O   UNL     1      -2.504  -6.292   5.209  0.00  0.00    -0.268 OA
ATOM      5  N   UNL     1      -1.114  -4.565   4.935  0.00  0.00    -0.291 N 
ATOM      6  H   UNL     1      -0.897  -4.543   5.881  0.00  0.00    +0.172 HD
ATOM      7  C   UNL     1      -0.543  -3.671   4.085  0.00  0.00    +0.234 A 
ATOM      8  N   UNL     1      -0.825  -3.677   2.800  0.00  0.00    -0.217 NA
ATOM      9  N   UNL     1       0.346  -2.736   4.579  0.00  0.00    -0.184 N 
ATOM     10  C   UNL     1       0.994  -1.780   3.850  0.00  0.00    +0.132 A 
ATOM     11  C   UNL     1       1.776  -1.071   4.703  0.00  0.00    +0.077 A 
ATOM     12  C   UNL     1       1.594  -1.602   5.997  0.00  0.00    +0.130 A 
ATOM     13  N   UNL     1       0.739  -2.601   5.917  0.00  0.00    -0.159 NA
ENDROOT
BRANCH  12  14
ATOM     14  C   UNL     1       2.254  -1.123   7.230  0.00  0.00    +0.155 A 
ATOM     15  C   UNL     1       2.080  -1.635   8.478  0.00  0.00    +0.051 A 
ATOM     16  C   UNL     1       2.900  -0.882   9.343  0.00  0.00    +0.042 A 
ATOM     17  C   UNL     1       3.521   0.046   8.590  0.00  0.00    +0.196 A 
ATOM     18  O   UNL     1       3.128  -0.102   7.314  0.00  0.00    -0.461 OA
ENDBRANCH  12  14
BRANCH  10  19
ATOM     19  N   UNL     1       0.879  -1.575   2.477  0.00  0.00    -0.270 N 
ATOM     20  C   UNL     1       1.580  -0.589   1.881  0.00  0.00    +0.223 C 
ATOM     21  O   UNL     1       2.312   0.118   2.541  0.00  0.00    -0.275 OA
ATOM     22  H   UNL     1       0.294  -2.140   1.949  0.00  0.00    +0.156 HD
BRANCH  20  23
ATOM     23  C   UNL     1       1.455  -0.367   0.396  0.00  0.00    +0.102 C 
ATOM     24  C   UNL     1       0.002  -0.004   0.011  0.00  0.00    +0.110 C 
ATOM     25  C   UNL     1      -0.018   1.508   0.024  0.00  0.00    +0.221 C 
ATOM     26  O   UNL     1      -1.022   2.189   0.047  0.00  0.00    -0.275 OA
ATOM     27  N   UNL     1       1.237   1.988   0.001  0.00  0.00    -0.271 N 
ATOM     28  C   UNL     1       2.223   0.901  -0.039  0.00  0.00    +0.127 C 
BRANCH  27  29
ATOM     29  C   UNL     1       1.563   3.351   0.013  0.00  0.00    +0.036 A 
ATOM     30  C   UNL     1       0.560   4.306  -0.074  0.00  0.00    +0.027 A 
ATOM     31  C   UNL     1       0.881   5.649  -0.056  0.00  0.00    +0.047 A 
ATOM     32  C   UNL     1       2.208   6.043   0.037  0.00  0.00    +0.120 A 
ATOM     33  C   UNL     1       3.212   5.089   0.119  0.00  0.00    +0.047 A 
ATOM     34  C   UNL     1       2.891   3.746   0.107  0.00  0.00    +0.027 A 
BRANCH  32  35
ATOM     35  O   UNL     1       2.525   7.365   0.049  0.00  0.00    -0.495 OA
ATOM     36  C   UNL     1       1.441   8.293  -0.039  0.00  0.00    +0.277 C 
ENDBRANCH  32  35
ENDBRANCH  27  29
ENDBRANCH  20  23
ENDBRANCH  10  19
BRANCH   1  37
ATOM     37  C   UNL     1      -1.967  -4.546   0.802  0.00  0.00    +0.055 C 
BRANCH  37  39
ATOM     38  C   UNL     1      -3.375  -3.511  -0.984  0.00  0.00    +0.004 C 
ATOM     39  C   UNL     1      -3.075  -3.530   0.516  0.00  0.00    +0.003 C 
ENDBRANCH  37  39
ENDBRANCH   1  37
TORSDOF 7
