REMARK  Name = ZINC02697479
REMARK  9 active torsions:
REMARK  status: ('A' for Active; 'I' for Inactive)
REMARK    1  A    between atoms: C_1  and  C_2
REMARK    2  A    between atoms: C_7  and  N_8
REMARK    3  A    between atoms: C_9  and  C_11
REMARK    4  A    between atoms: C_12  and  C_37
REMARK    5  A    between atoms: C_19  and  C_20
REMARK    6  A    between atoms: C_24  and  O_27
REMARK    7  A    between atoms: C_25  and  O_26
REMARK    8  A    between atoms: O_27  and  C_28
REMARK    9  A    between atoms: C_30  and  C_32
REMARK                            x       y       z     vdW  Elec       q    Type
REMARK                         _______ _______ _______ _____ _____    ______ ____
ROOT
ATOM      1  C   UNL     1       0.316   0.175   4.635  0.00  0.00    +0.063 C 
ATOM      2  C   UNL     1       0.769  -0.346   5.813  0.00  0.00    +0.052 C 
ATOM      3  N   UNL     1       0.913   0.427   6.883  0.00  0.00    -0.228 NA
ATOM      4  C   UNL     1       0.649   1.709   6.919  0.00  0.00    +0.178 A 
ATOM      5  N   UNL     1       0.184   2.430   5.843  0.00  0.00    -0.274 N 
ATOM      6  C   UNL     1      -0.051   3.739   6.000  0.00  0.00    +0.268 A 
ATOM      7  O   UNL     1      -0.464   4.417   5.077  0.00  0.00    -0.266 OA
ATOM      8  C   UNL     1       0.203   4.332   7.320  0.00  0.00    +0.081 A 
ATOM      9  C   UNL     1       0.046   5.616   7.734  0.00  0.00    +0.032 C 
ATOM     10  S   UNL     1       0.773   2.906   8.233  0.00  0.00    -0.046 S 
ATOM     11  C   UNL     1      -0.006   1.651   4.587  0.00  0.00    +0.166 C 
ATOM     12  C   UNL     1       1.107  -1.812   5.901  0.00  0.00    +0.066 C 
ENDROOT
BRANCH   9  13
ATOM     13  C   UNL     1       0.240   5.960   9.148  0.00  0.00    +0.021 A 
ATOM     14  C   UNL     1      -0.054   5.023  10.148  0.00  0.00    +0.012 A 
ATOM     15  C   UNL     1       0.130   5.351  11.473  0.00  0.00    +0.004 A 
ATOM     16  C   UNL     1       0.605   6.604  11.825  0.00  0.00    +0.049 A 
ATOM     17  C   UNL     1       0.900   7.542  10.849  0.00  0.00    +0.162 A 
ATOM     18  C   UNL     1       0.727   7.226   9.506  0.00  0.00    +0.166 A 
BRANCH  18  19
ATOM     19  O   UNL     1       1.021   8.141   8.546  0.00  0.00    -0.503 OA
ATOM     20  H   UNL     1       0.278   8.713   8.307  0.00  0.00    +0.292 HD
ENDBRANCH  18  19
BRANCH  17  21
ATOM     21  O   UNL     1       1.366   8.769  11.204  0.00  0.00    -0.491 OA
ATOM     22  C   UNL     1       1.525   9.023  12.601  0.00  0.00    +0.277 C 
ENDBRANCH  17  21
ENDBRANCH   9  13
BRANCH  11  23
ATOM     23  C   UNL     1       0.846   2.277   3.514  0.00  0.00    +0.017 A 
ATOM     24  C   UNL     1       0.487   2.703   2.278  0.00  0.00    +0.013 A 
ATOM     25  C   UNL     1       1.449   3.253   1.453  0.00  0.00    +0.008 A 
ATOM     26  C   UNL     1       2.724   3.351   1.903  0.00  0.00    +0.045 A 
ATOM     27  S   UNL     1       2.590   2.658   3.543  0.00  0.00    -0.099 S 
ENDBRANCH  11  23
BRANCH   1  29
ATOM     28  N   UNL     1       1.236  -0.971   2.755  0.00  0.00    -0.281 N 
ATOM     29  C   UNL     1       0.161  -0.637   3.497  0.00  0.00    +0.248 C 
ATOM     30  O   UNL     1      -0.946  -1.039   3.181  0.00  0.00    -0.270 OA
ATOM     31  H   UNL     1       2.127  -0.740   3.062  0.00  0.00    +0.155 HD
BRANCH  28  38
ATOM     32  C   UNL     1       3.227  -0.651   0.747  0.00  0.00    +0.045 C 
ATOM     33  C   UNL     1       2.014  -1.521   0.537  0.00  0.00    -0.029 A 
ATOM     34  C   UNL     1       1.847  -2.197  -0.656  0.00  0.00    +0.005 A 
ATOM     35  C   UNL     1       0.735  -2.996  -0.850  0.00  0.00    +0.000 A 
ATOM     36  C   UNL     1      -0.213  -3.121   0.149  0.00  0.00    +0.002 A 
ATOM     37  C   UNL     1      -0.052  -2.448   1.344  0.00  0.00    +0.023 A 
ATOM     38  C   UNL     1       1.067  -1.649   1.544  0.00  0.00    +0.037 A 
ENDBRANCH  28  38
ENDBRANCH   1  29
TORSDOF 6
