REMARK  Name = ZINC40037989
REMARK  6 active torsions:
REMARK  status: ('A' for Active; 'I' for Inactive)
REMARK    1  A    between atoms: C_1  and  C_2
REMARK    2  A    between atoms: C_2  and  C_3
REMARK    3  A    between atoms: C_9  and  C_26
REMARK    4  A    between atoms: C_10  and  C_12
REMARK    5  A    between atoms: N_14  and  C_15
REMARK    6  A    between atoms: C_16  and  C_24
REMARK                            x       y       z     vdW  Elec       q    Type
REMARK                         _______ _______ _______ _____ _____    ______ ____
ROOT
ATOM      1  C   UNL     1      -6.689  -2.463  -2.197  0.00  0.00    +0.284 C 
ATOM      2  O   UNL     1      -6.765  -2.486  -3.411  0.00  0.00    -0.266 OA
ATOM      3  N   UNL     1      -7.740  -2.854  -1.449  0.00  0.00    -0.272 N 
ATOM      4  H   UNL     1      -7.679  -2.837  -0.481  0.00  0.00    +0.156 HD
ENDROOT
BRANCH   1  12
ATOM      5  C   UNL     1      -1.412  -0.526   0.013  0.00  0.00    -0.047 A 
ATOM      6  C   UNL     1      -2.049  -0.765   1.223  0.00  0.00    +0.007 A 
ATOM      7  C   UNL     1      -3.341  -1.242   1.256  0.00  0.00    +0.047 A 
ATOM      8  C   UNL     1      -4.019  -1.487   0.067  0.00  0.00    +0.136 A 
ATOM      9  C   UNL     1      -3.369  -1.242  -1.157  0.00  0.00    +0.024 A 
ATOM     10  C   UNL     1      -2.060  -0.754  -1.168  0.00  0.00    +0.015 A 
ATOM     11  C   UNL     1      -4.334  -1.595  -2.197  0.00  0.00    +0.008 A 
ATOM     12  C   UNL     1      -5.453  -2.010  -1.547  0.00  0.00    +0.194 A 
ATOM     13  O   UNL     1      -5.256  -1.943  -0.213  0.00  0.00    -0.450 OA
ATOM     14  C   UNL     1      -4.130  -1.513  -3.688  0.00  0.00    +0.048 C 
BRANCH   5  16
ATOM     15  C   UNL     1      -0.019   1.526   0.010  0.00  0.00    +0.009 C 
ATOM     16  C   UNL     1       0.002  -0.004   0.002  0.00  0.00    +0.032 C 
ENDBRANCH   5  16
ENDBRANCH   1  12
BRANCH   3  17
ATOM     17  C   UNL     1      -8.907  -3.282  -2.063  0.00  0.00    +0.090 A 
ATOM     18  C   UNL     1     -10.079  -3.711  -1.460  0.00  0.00    +0.084 A 
ATOM     19  C   UNL     1     -11.168  -4.110  -2.333  0.00  0.00    -0.018 A 
ATOM     20  C   UNL     1     -10.886  -4.007  -3.651  0.00  0.00    -0.004 A 
ATOM     21  S   UNL     1      -9.228  -3.392  -3.708  0.00  0.00    -0.077 S 
ATOM     22  C   UNL     1     -11.793  -4.342  -4.794  0.00  0.00    +0.043 C 
ATOM     23  C   UNL     1     -12.963  -5.177  -4.252  0.00  0.00    +0.005 C 
ATOM     24  C   UNL     1     -13.525  -4.491  -3.003  0.00  0.00    +0.005 C 
ATOM     25  C   UNL     1     -12.524  -4.605  -1.852  0.00  0.00    +0.037 C 
BRANCH  18  26
ATOM     26  C   UNL     1     -10.210  -3.759  -0.035  0.00  0.00    +0.102 C 
ATOM     27  N   UNL     1     -10.314  -3.798   1.096  0.00  0.00    -0.191 NA
ENDBRANCH  18  26
ENDBRANCH   3  17
TORSDOF 4
