REMARK  Name = ZINC38696947
REMARK  11 active torsions:
REMARK  status: ('A' for Active; 'I' for Inactive)
REMARK    1  A    between atoms: C_1  and  C_2
REMARK    2  A    between atoms: C_2  and  N_3
REMARK    3  A    between atoms: N_3  and  C_4
REMARK    4  A    between atoms: N_3  and  S_6
REMARK    5  A    between atoms: C_4  and  C_5
REMARK    6  A    between atoms: S_6  and  C_9
REMARK    7  A    between atoms: C_12  and  S_15
REMARK    8  A    between atoms: S_15  and  C_16
REMARK    9  A    between atoms: C_16  and  C_18
REMARK   10  A    between atoms: C_16  and  C_19
REMARK   11  A    between atoms: C_19  and  C_21
REMARK                            x       y       z     vdW  Elec       q    Type
REMARK                         _______ _______ _______ _____ _____    ______ ____
ROOT
ATOM      1  S   UNL     1      -0.586   4.263  -6.080  0.00  0.00    -0.095 S 
ENDROOT
BRANCH   1   5
ATOM      2  C   UNL     1      -0.337   0.586  -3.526  0.00  0.00    +0.124 A 
ATOM      3  C   UNL     1      -1.408   1.450  -3.334  0.00  0.00    +0.032 A 
ATOM      4  C   UNL     1      -1.488   2.585  -4.120  0.00  0.00    +0.037 A 
ATOM      5  C   UNL     1      -0.499   2.822  -5.070  0.00  0.00    +0.098 A 
ATOM      6  N   UNL     1       0.506   1.973  -5.223  0.00  0.00    -0.247 NA
ATOM      7  C   UNL     1       0.611   0.885  -4.483  0.00  0.00    +0.140 A 
BRANCH   2   8
ATOM      8  S   UNL     1      -0.188  -0.875  -2.551  0.00  0.00    +0.062 S 
ATOM      9  O   UNL     1       0.610  -1.782  -3.300  0.00  0.00    -0.153 OA
ATOM     10  O   UNL     1      -1.496  -1.201  -2.104  0.00  0.00    -0.153 OA
BRANCH   8  11
ATOM     11  N   UNL     1       0.688  -0.476  -1.203  0.00  0.00    -0.177 NA
BRANCH  11  13
ATOM     12  C   UNL     1      -0.019   1.526   0.010  0.00  0.00    +0.022 C 
ATOM     13  C   UNL     1       0.002  -0.004   0.002  0.00  0.00    +0.106 C 
ENDBRANCH  11  13
BRANCH  11  14
ATOM     14  C   UNL     1       2.148  -0.597  -1.216  0.00  0.00    +0.106 C 
ATOM     15  C   UNL     1       2.553  -1.951  -0.632  0.00  0.00    +0.022 C 
ENDBRANCH  11  14
ENDBRANCH   8  11
ENDBRANCH   2   8
ENDBRANCH   1   5
BRANCH   1  16
ATOM     16  C   UNL     1       0.882   4.146  -7.140  0.00  0.00    +0.120 C 
ATOM     17  C   UNL     1       2.142   4.252  -6.279  0.00  0.00    +0.028 C 
BRANCH  16  18
ATOM     18  C   UNL     1       0.865   5.266  -8.147  0.00  0.00    +0.174 C 
ATOM     19  O   UNL     1       0.262   6.292  -7.904  0.00  0.00    -0.291 OA
BRANCH  18  20
ATOM     20  C   UNL     1       1.550   5.124  -9.372  0.00  0.00    +0.024 C 
ATOM     21  C   UNL     1       1.638   6.052 -10.394  0.00  0.00    +0.006 A 
ATOM     22  C   UNL     1       1.117   7.357 -10.556  0.00  0.00    +0.010 A 
ATOM     23  C   UNL     1       1.366   8.055 -11.687  0.00  0.00    +0.001 A 
ATOM     24  C   UNL     1       2.138   7.535 -12.739  0.00  0.00    +0.002 A 
ATOM     25  C   UNL     1       2.681   6.300 -12.684  0.00  0.00    +0.026 A 
ATOM     26  C   UNL     1       2.458   5.473 -11.487  0.00  0.00    +0.043 A 
ATOM     27  N   UNL     1       2.854   4.272 -11.173  0.00  0.00    -0.380 N 
ATOM     28  C   UNL     1       2.348   3.927  -9.841  0.00  0.00    +0.152 C 
ATOM     29  H   UNL     1       3.402   3.698 -11.731  0.00  0.00    +0.160 HD
ENDBRANCH  18  20
ENDBRANCH  16  18
ENDBRANCH   1  16
TORSDOF 8
