REMARK  Name = ZINC39606663
REMARK  8 active torsions:
REMARK  status: ('A' for Active; 'I' for Inactive)
REMARK    1  A    between atoms: C_1  and  C_2
REMARK    2  A    between atoms: C_2  and  C_3
REMARK    3  A    between atoms: C_3  and  C_5
REMARK    4  A    between atoms: C_3  and  C_6
REMARK    5  A    between atoms: C_6  and  N_7
REMARK    6  A    between atoms: C_8  and  C_10
REMARK    7  A    between atoms: C_21  and  C_23
REMARK    8  A    between atoms: C_26  and  C_28
REMARK                            x       y       z     vdW  Elec       q    Type
REMARK                         _______ _______ _______ _____ _____    ______ ____
ROOT
ATOM      1  C   UNL     1       1.919  -4.326   4.096  0.00  0.00    +0.100 C 
ATOM      2  C   UNL     1       1.209  -3.693   5.314  0.00  0.00    +0.121 C 
ATOM      3  N   UNL     1       0.193  -4.694   5.716  0.00  0.00    -0.294 N 
ATOM      4  C   UNL     1       0.873  -6.000   5.544  0.00  0.00    +0.115 C 
ATOM      5  C   UNL     1       1.698  -5.840   4.252  0.00  0.00    -0.004 C 
ATOM      6  C   UNL     1       0.921  -6.387   3.059  0.00  0.00    -0.010 C 
ATOM      7  C   UNL     1       0.764  -7.902   3.210  0.00  0.00    -0.082 C 
ATOM      8  N   UNL     1       2.090  -8.528   3.284  0.00  0.00    +0.379 N 
ATOM      9  C   UNL     1       2.795  -8.066   4.486  0.00  0.00    -0.082 C 
ATOM     10  C   UNL     1       3.038  -6.557   4.389  0.00  0.00    -0.010 C 
ATOM     11  C   UNL     1      -1.066  -4.468   6.142  0.00  0.00    +0.282 C 
ATOM     12  O   UNL     1      -1.786  -5.403   6.438  0.00  0.00    -0.267 OA
ATOM     13  H   UNL     1       1.985  -9.531   3.322  0.00  0.00    -0.086 HD
ATOM     14  H   UNL     1       2.624  -8.279   2.465  0.00  0.00    -0.086 HD
ENDROOT
BRANCH  11  15
ATOM     15  C   UNL     1      -1.568  -3.095   6.248  0.00  0.00    +0.190 A 
ATOM     16  C   UNL     1      -2.825  -2.724   6.672  0.00  0.00    +0.055 A 
ATOM     17  C   UNL     1      -2.874  -1.327   6.617  0.00  0.00    +0.050 A 
ATOM     18  C   UNL     1      -1.657  -0.901   6.167  0.00  0.00    +0.136 A 
ATOM     19  O   UNL     1      -0.877  -1.974   5.953  0.00  0.00    -0.450 OA
BRANCH  18  20
ATOM     20  C   UNL     1      -1.263   0.507   5.955  0.00  0.00    +0.017 A 
ATOM     21  C   UNL     1      -2.166   1.537   6.225  0.00  0.00    +0.011 A 
ATOM     22  C   UNL     1      -1.791   2.849   6.026  0.00  0.00    +0.001 A 
ATOM     23  C   UNL     1      -0.523   3.146   5.558  0.00  0.00    +0.000 A 
ATOM     24  C   UNL     1       0.377   2.130   5.287  0.00  0.00    +0.001 A 
ATOM     25  C   UNL     1       0.017   0.814   5.488  0.00  0.00    +0.011 A 
ENDBRANCH  18  20
ENDBRANCH  11  15
BRANCH   1  27
ATOM     26  N   UNL     1       2.037  -3.766   1.689  0.00  0.00    -0.315 N 
ATOM     27  C   UNL     1       1.297  -3.835   2.813  0.00  0.00    +0.218 C 
ATOM     28  O   UNL     1       0.131  -3.501   2.793  0.00  0.00    -0.275 OA
ATOM     29  H   UNL     1       2.969  -4.033   1.705  0.00  0.00    +0.149 HD
BRANCH  26  30
ATOM     30  C   UNL     1       1.433  -3.289   0.443  0.00  0.00    +0.107 C 
BRANCH  30  31
ATOM     31  C   UNL     1       2.480  -3.310  -0.672  0.00  0.00    +0.003 C 
ATOM     32  C   UNL     1       2.899  -4.755  -0.953  0.00  0.00    +0.009 C 
BRANCH  31  34
ATOM     33  C   UNL     1       2.970  -2.602  -3.018  0.00  0.00    +0.004 C 
ATOM     34  C   UNL     1       1.886  -2.696  -1.942  0.00  0.00    +0.001 C 
ENDBRANCH  31  34
ENDBRANCH  30  31
ENDBRANCH  26  30
ENDBRANCH   1  27
TORSDOF 6
