REMARK  Name = ZINC05065092
REMARK  12 active torsions:
REMARK  status: ('A' for Active; 'I' for Inactive)
REMARK    1  A    between atoms: C_1  and  C_2
REMARK    2  A    between atoms: C_2  and  C_3
REMARK    3  A    between atoms: C_2  and  C_4
REMARK    4  A    between atoms: C_4  and  C_5
REMARK    5  A    between atoms: C_5  and  C_6
REMARK    6  A    between atoms: C_6  and  C_7
REMARK    7  A    between atoms: C_7  and  C_9
REMARK    8  A    between atoms: C_7  and  C_10
REMARK    9  A    between atoms: C_16  and  C_37
REMARK   10  A    between atoms: C_26  and  C_36
REMARK   11  A    between atoms: C_29  and  C_32
REMARK   12  A    between atoms: N_34  and  N_35
REMARK                            x       y       z     vdW  Elec       q    Type
REMARK                         _______ _______ _______ _____ _____    ______ ____
ROOT
ATOM      1  C   UNL     1      -1.096   1.461   6.066  0.00  0.00    -0.002 C 
ATOM      2  C   UNL     1      -2.489   0.788   6.125  0.00  0.00    +0.004 C 
ATOM      3  C   UNL     1      -2.769   0.482   7.622  0.00  0.00    +0.004 C 
ATOM      4  C   UNL     1      -1.723   1.337   8.351  0.00  0.00    -0.001 C 
ATOM      5  C   UNL     1      -0.481   1.165   7.453  0.00  0.00    -0.026 C 
ATOM      6  C   UNL     1       0.622   2.113   7.854  0.00  0.00    +0.007 C 
ATOM      7  C   UNL     1       0.616   2.353   9.371  0.00  0.00    +0.005 C 
ATOM      8  C   UNL     1       0.038   1.152  10.104  0.00  0.00    +0.003 C 
ATOM      9  C   UNL     1      -1.461   1.031   9.790  0.00  0.00    +0.000 C 
ATOM     10  C   UNL     1      -1.903  -0.359  10.247  0.00  0.00    +0.031 C 
ATOM     11  C   UNL     1      -1.640  -0.426  11.733  0.00  0.00    -0.027 C 
ATOM     12  C   UNL     1      -0.722   0.277  12.321  0.00  0.00    -0.067 C 
ATOM     13  C   UNL     1       0.228   1.213  11.610  0.00  0.00    -0.008 C 
ATOM     14  C   UNL     1       0.042   2.612  12.181  0.00  0.00    +0.012 C 
ATOM     15  C   UNL     1      -1.006   2.600  13.291  0.00  0.00    +0.014 C 
ATOM     16  C   UNL     1      -0.700   1.598  14.396  0.00  0.00    +0.080 C 
ATOM     17  C   UNL     1      -0.557   0.180  13.828  0.00  0.00    +0.043 C 
ATOM     18  C   UNL     1       1.661   0.754  11.911  0.00  0.00    +0.016 C 
ATOM     19  C   UNL     1       0.022  -0.279   7.412  0.00  0.00    +0.012 C 
ENDROOT
BRANCH  16  20
ATOM     20  C   UNL     1       0.556   1.990  15.129  0.00  0.00    +0.230 C 
ATOM     21  O   UNL     1       1.192   2.957  14.768  0.00  0.00    -0.274 OA
ATOM     22  N   UNL     1       0.974   1.265  16.186  0.00  0.00    -0.253 N 
ATOM     23  H   UNL     1       0.465   0.491  16.474  0.00  0.00    +0.169 HD
BRANCH  22  24
ATOM     24  N   UNL     1       2.113   1.620  16.850  0.00  0.00    -0.254 NA
ATOM     25  H   UNL     1       2.298   0.988  17.615  0.00  0.00    +0.140 HD
ATOM     26  H   UNL     1       2.900   1.665  16.220  0.00  0.00    +0.140 HD
ENDBRANCH  22  24
ENDBRANCH  16  20
BRANCH   1  27
ATOM     27  C   UNL     1      -0.238   0.822   4.976  0.00  0.00    -0.010 C 
ATOM     28  C   UNL     1       1.147   1.472   4.971  0.00  0.00    +0.008 C 
BRANCH  27  29
ATOM     29  C   UNL     1      -0.904   1.030   3.615  0.00  0.00    +0.003 C 
BRANCH  29  30
ATOM     30  C   UNL     1      -0.111   0.285   2.539  0.00  0.00    +0.001 C 
BRANCH  30  31
ATOM     31  C   UNL     1      -0.777   0.493   1.178  0.00  0.00    +0.003 C 
BRANCH  31  33
ATOM     32  C   UNL     1       1.407   0.370  -0.028  0.00  0.00    +0.007 C 
ATOM     33  C   UNL     1       0.016  -0.252   0.102  0.00  0.00    -0.017 C 
ATOM     34  C   UNL     1      -0.718  -0.148  -1.236  0.00  0.00    +0.007 C 
ENDBRANCH  31  33
ENDBRANCH  30  31
ENDBRANCH  29  30
ENDBRANCH  27  29
ENDBRANCH   1  27
TORSDOF 7
