REMARK  Name = ZINC13607877
REMARK  10 active torsions:
REMARK  status: ('A' for Active; 'I' for Inactive)
REMARK    1  A    between atoms: C_1  and  N_2
REMARK    2  A    between atoms: C_3  and  C_11
REMARK    3  A    between atoms: N_7  and  C_10
REMARK    4  A    between atoms: C_11  and  N_12
REMARK    5  A    between atoms: C_13  and  C_15
REMARK    6  A    between atoms: C_15  and  C_17
REMARK    7  A    between atoms: C_15  and  N_24
REMARK    8  A    between atoms: C_17  and  C_18
REMARK    9  A    between atoms: C_25  and  C_27
REMARK   10  A    between atoms: C_30  and  C_33
REMARK                            x       y       z     vdW  Elec       q    Type
REMARK                         _______ _______ _______ _____ _____    ______ ____
ROOT
ATOM      1  C   UNL     1      -3.011   4.124  -1.392  0.00  0.00    +0.163 C 
ENDROOT
BRANCH   1   3
ATOM      2  N   UNL     1      -4.242   6.192  -0.819  0.00  0.00    -0.308 N 
ATOM      3  C   UNL     1      -4.261   4.966  -1.378  0.00  0.00    +0.234 C 
ATOM      4  O   UNL     1      -5.285   4.539  -1.870  0.00  0.00    -0.274 OA
ATOM      5  H   UNL     1      -3.424   6.533  -0.426  0.00  0.00    +0.149 HD
BRANCH   2   6
ATOM      6  C   UNL     1      -5.458   7.010  -0.806  0.00  0.00    +0.158 C 
BRANCH   6   9
ATOM      7  C   UNL     1      -4.772   7.107   1.960  0.00  0.00    +0.154 C 
ATOM      8  N   UNL     1      -4.843   8.357   1.200  0.00  0.00    -0.299 N 
ATOM      9  C   UNL     1      -5.171   8.325  -0.128  0.00  0.00    +0.045 A 
ATOM     10  C   UNL     1      -5.231   9.477  -0.830  0.00  0.00    +0.093 A 
ATOM     11  C   UNL     1      -4.962  10.700  -0.171  0.00  0.00    +0.257 A 
ATOM     12  O   UNL     1      -5.014  11.752  -0.782  0.00  0.00    -0.268 OA
ATOM     13  N   UNL     1      -4.642  10.689   1.139  0.00  0.00    -0.264 N 
ATOM     14  C   UNL     1      -4.584   9.526   1.814  0.00  0.00    +0.332 A 
ATOM     15  O   UNL     1      -4.294   9.531   2.994  0.00  0.00    -0.246 OA
ATOM     16  C   UNL     1      -4.356  11.948   1.831  0.00  0.00    +0.157 C 
ENDBRANCH   6   9
ENDBRANCH   2   6
ENDBRANCH   1   3
BRANCH   1  17
ATOM     17  N   UNL     1      -3.290   2.846  -2.050  0.00  0.00    -0.300 N 
ATOM     18  C   UNL     1      -2.289   2.154  -2.630  0.00  0.00    +0.245 C 
ATOM     19  O   UNL     1      -1.155   2.591  -2.606  0.00  0.00    -0.270 OA
ATOM     20  H   UNL     1      -4.195   2.497  -2.069  0.00  0.00    +0.150 HD
BRANCH  18  21
ATOM     21  C   UNL     1      -2.570   0.865  -3.294  0.00  0.00    +0.037 A 
ATOM     22  C   UNL     1      -3.873   0.359  -3.316  0.00  0.00    +0.013 A 
ATOM     23  C   UNL     1      -4.135  -0.839  -3.941  0.00  0.00    +0.009 A 
ATOM     24  C   UNL     1      -3.098  -1.555  -4.541  0.00  0.00    -0.018 A 
ATOM     25  C   UNL     1      -1.796  -1.055  -4.513  0.00  0.00    +0.009 A 
ATOM     26  C   UNL     1      -1.533   0.147  -3.894  0.00  0.00    +0.013 A 
BRANCH  24  27
ATOM     27  C   UNL     1      -3.381  -2.849  -5.208  0.00  0.00    -0.018 A 
ATOM     28  C   UNL     1      -2.349  -3.564  -5.813  0.00  0.00    +0.008 A 
ATOM     29  C   UNL     1      -2.616  -4.770  -6.428  0.00  0.00    +0.001 A 
ATOM     30  C   UNL     1      -3.908  -5.264  -6.454  0.00  0.00    +0.000 A 
ATOM     31  C   UNL     1      -4.937  -4.556  -5.860  0.00  0.00    +0.001 A 
ATOM     32  C   UNL     1      -4.681  -3.352  -5.237  0.00  0.00    +0.008 A 
ENDBRANCH  24  27
ENDBRANCH  18  21
ENDBRANCH   1  17
BRANCH   1  33
ATOM     33  C   UNL     1      -2.553   3.869   0.045  0.00  0.00    +0.067 C 
BRANCH  33  34
ATOM     34  C   UNL     1      -1.238   3.133   0.030  0.00  0.00    -0.045 A 
ATOM     35  C   UNL     1      -1.219   1.751   0.017  0.00  0.00    +0.004 A 
ATOM     36  C   UNL     1      -0.013   1.076   0.008  0.00  0.00    +0.000 A 
ATOM     37  C   UNL     1       1.175   1.783   0.000  0.00  0.00    +0.000 A 
ATOM     38  C   UNL     1       1.156   3.165   0.008  0.00  0.00    +0.000 A 
ATOM     39  C   UNL     1      -0.050   3.840   0.022  0.00  0.00    +0.004 A 
ENDBRANCH  33  34
ENDBRANCH   1  33
TORSDOF 8
