REMARK  Name = ZINC06134301
REMARK  13 active torsions:
REMARK  status: ('A' for Active; 'I' for Inactive)
REMARK    1  A    between atoms: C_1  and  C_2
REMARK    2  A    between atoms: C_2  and  C_3
REMARK    3  A    between atoms: C_2  and  C_4
REMARK    4  A    between atoms: C_4  and  C_5
REMARK    5  A    between atoms: C_5  and  N_6
REMARK    6  A    between atoms: C_7  and  C_9
REMARK    7  A    between atoms: C_9  and  C_11
REMARK    8  A    between atoms: C_9  and  N_16
REMARK    9  A    between atoms: N_16  and  C_17
REMARK   10  A    between atoms: C_21  and  O_23
REMARK   11  A    between atoms: C_24  and  C_26
REMARK   12  A    between atoms: C_27  and  N_34
REMARK   13  A    between atoms: C_28  and  C_31
REMARK                            x       y       z     vdW  Elec       q    Type
REMARK                         _______ _______ _______ _____ _____    ______ ____
ROOT
ATOM      1  N   UNL     1      -0.193   5.387  -0.079  0.00  0.00    -0.248 N 
ATOM      2  C   UNL     1      -1.227   6.246   0.031  0.00  0.00    +0.262 C 
ATOM      3  O   UNL     1      -1.017   7.433   0.198  0.00  0.00    -0.269 OA
ENDROOT
BRANCH   1   4
ATOM      4  C   UNL     1      -0.431   4.040  -0.367  0.00  0.00    +0.041 A 
ATOM      5  C   UNL     1      -0.691   3.143   0.662  0.00  0.00    +0.024 A 
ATOM      6  C   UNL     1      -0.926   1.813   0.377  0.00  0.00    +0.005 A 
ATOM      7  C   UNL     1      -0.904   1.369  -0.932  0.00  0.00    +0.045 A 
ATOM      8  C   UNL     1      -0.640   2.259  -1.964  0.00  0.00    +0.119 A 
ATOM      9  C   UNL     1      -0.409   3.596  -1.682  0.00  0.00    +0.069 A 
BRANCH   8  10
ATOM     10  O   UNL     1      -0.614   1.820  -3.249  0.00  0.00    -0.507 OA
ATOM     11  H   UNL     1      -1.470   1.862  -3.697  0.00  0.00    +0.292 HD
ENDBRANCH   8  10
ENDBRANCH   1   4
BRANCH   2  12
ATOM     12  C   UNL     1      -2.602   5.750  -0.051  0.00  0.00    +0.116 A 
ATOM     13  C   UNL     1      -3.803   6.434   0.148  0.00  0.00    +0.076 A 
ATOM     14  C   UNL     1      -4.918   5.615  -0.024  0.00  0.00    +0.155 A 
ATOM     15  N   UNL     1      -4.746   4.348  -0.330  0.00  0.00    -0.203 NA
ATOM     16  S   UNL     1      -3.191   4.112  -0.426  0.00  0.00    +0.019 S 
BRANCH  14  17
ATOM     17  C   UNL     1      -6.277   6.163   0.142  0.00  0.00    +0.262 C 
ATOM     18  O   UNL     1      -6.429   7.336   0.425  0.00  0.00    -0.269 OA
ATOM     19  N   UNL     1      -7.351   5.364  -0.020  0.00  0.00    -0.324 N 
ATOM     20  H   UNL     1      -7.229   4.429  -0.246  0.00  0.00    +0.145 HD
ATOM     21  H   UNL     1      -8.244   5.725   0.089  0.00  0.00    +0.145 HD
ENDBRANCH  14  17
BRANCH  13  22
ATOM     22  N   UNL     1      -3.877   7.781   0.478  0.00  0.00    -0.355 N 
ATOM     23  H   UNL     1      -3.065   8.300   0.582  0.00  0.00    +0.142 HD
ATOM     24  H   UNL     1      -4.742   8.202   0.605  0.00  0.00    +0.142 HD
ENDBRANCH  13  22
ENDBRANCH   2  12
BRANCH   1  25
ATOM     25  C   UNL     1       1.179   5.866   0.105  0.00  0.00    +0.233 C 
BRANCH  25  26
ATOM     26  C   UNL     1       2.011   5.475  -1.089  0.00  0.00    +0.135 A 
ATOM     27  C   UNL     1       2.896   6.265  -1.724  0.00  0.00    +0.047 A 
ATOM     28  C   UNL     1       3.445   5.500  -2.779  0.00  0.00    +0.041 A 
ATOM     29  C   UNL     1       2.862   4.288  -2.726  0.00  0.00    +0.195 A 
ATOM     30  O   UNL     1       1.999   4.277  -1.697  0.00  0.00    -0.465 OA
ENDBRANCH  25  26
BRANCH  25  32
ATOM     31  N   UNL     1       3.026   5.546   1.719  0.00  0.00    -0.313 N 
ATOM     32  C   UNL     1       1.764   5.249   1.349  0.00  0.00    +0.242 C 
ATOM     33  O   UNL     1       1.101   4.484   2.016  0.00  0.00    -0.273 OA
ATOM     34  H   UNL     1       3.557   6.158   1.185  0.00  0.00    +0.149 HD
BRANCH  31  35
ATOM     35  C   UNL     1       3.595   4.946   2.928  0.00  0.00    +0.104 C 
BRANCH  35  36
ATOM     36  C   UNL     1       5.028   5.446   3.120  0.00  0.00    +0.022 C 
BRANCH  36  38
ATOM     37  C   UNL     1       5.744   3.306   4.193  0.00  0.00    +0.007 C 
ATOM     38  C   UNL     1       5.622   4.820   4.383  0.00  0.00    -0.016 C 
ATOM     39  C   UNL     1       7.008   5.413   4.643  0.00  0.00    +0.007 C 
ENDBRANCH  36  38
ENDBRANCH  35  36
ENDBRANCH  31  35
ENDBRANCH  25  32
ENDBRANCH   1  25
TORSDOF 11
