REMARK  Name = ZINC40020007
REMARK  19 active torsions:
REMARK  status: ('A' for Active; 'I' for Inactive)
REMARK    1  A    between atoms: C_1  and  C_2
REMARK    2  A    between atoms: C_2  and  C_3
REMARK    3  A    between atoms: C_3  and  C_4
REMARK    4  A    between atoms: C_4  and  N_5
REMARK    5  A    between atoms: N_5  and  C_6
REMARK    6  A    between atoms: N_5  and  C_10
REMARK    7  A    between atoms: C_6  and  C_7
REMARK    8  A    between atoms: C_7  and  C_8
REMARK    9  A    between atoms: C_8  and  C_9
REMARK   10  A    between atoms: C_10  and  C_11
REMARK   11  A    between atoms: C_11  and  C_12
REMARK   12  A    between atoms: C_12  and  N_13
REMARK   13  A    between atoms: C_14  and  C_31
REMARK   14  A    between atoms: C_16  and  C_21
REMARK   15  A    between atoms: C_21  and  C_23
REMARK   16  A    between atoms: C_26  and  C_30
REMARK   17  A    between atoms: C_34  and  N_37
REMARK   18  A    between atoms: N_37  and  C_38
REMARK   19  A    between atoms: N_37  and  C_39
REMARK                            x       y       z     vdW  Elec       q    Type
REMARK                         _______ _______ _______ _____ _____    ______ ____
ROOT
ATOM      1  N   UNL     1       1.896  -6.008  -5.267  0.00  0.00    -0.284 N 
ATOM      2  C   UNL     1       1.579  -5.569  -6.631  0.00  0.00    +0.145 C 
ATOM      3  C   UNL     1       2.517  -6.323  -7.545  0.00  0.00    +0.076 C 
ATOM      4  C   UNL     1       3.284  -7.110  -6.755  0.00  0.00    +0.249 C 
ATOM      5  C   UNL     1       2.896  -6.905  -5.343  0.00  0.00    +0.288 C 
ATOM      6  O   UNL     1       3.405  -7.465  -4.392  0.00  0.00    -0.266 OA
ATOM      7  O   UNL     1       4.254  -7.947  -7.188  0.00  0.00    -0.282 OA
ENDROOT
BRANCH   2   8
ATOM      8  C   UNL     1       1.806  -4.085  -6.763  0.00  0.00    -0.022 A 
ATOM      9  C   UNL     1       2.999  -3.529  -6.338  0.00  0.00    +0.007 A 
ATOM     10  C   UNL     1       3.211  -2.170  -6.458  0.00  0.00    +0.023 A 
ATOM     11  C   UNL     1       2.224  -1.361  -7.006  0.00  0.00    +0.029 A 
ATOM     12  C   UNL     1       1.027  -1.922  -7.431  0.00  0.00    +0.023 A 
ATOM     13  C   UNL     1       0.824  -3.283  -7.314  0.00  0.00    +0.007 A 
BRANCH  11  14
ATOM     14  N   UNL     1       2.435   0.015  -7.128  0.00  0.00    -0.336 N 
ATOM     15  C   UNL     1       3.740   0.589  -6.791  0.00  0.00    +0.129 C 
ATOM     16  C   UNL     1       1.350   0.883  -7.593  0.00  0.00    +0.129 C 
ENDBRANCH  11  14
ENDBRANCH   2   8
BRANCH   3  17
ATOM     17  C   UNL     1       2.582  -6.222  -9.006  0.00  0.00    +0.195 C 
ATOM     18  O   UNL     1       3.572  -5.759  -9.540  0.00  0.00    -0.287 OA
BRANCH  17  19
ATOM     19  C   UNL     1       1.444  -6.682  -9.831  0.00  0.00    +0.025 A 
ATOM     20  C   UNL     1       0.319  -7.242  -9.222  0.00  0.00    +0.012 A 
ATOM     21  C   UNL     1      -0.740  -7.670  -9.996  0.00  0.00    +0.007 A 
ATOM     22  C   UNL     1      -0.690  -7.545 -11.373  0.00  0.00    -0.015 A 
ATOM     23  C   UNL     1       0.424  -6.991 -11.985  0.00  0.00    +0.127 A 
ATOM     24  C   UNL     1       1.488  -6.554 -11.220  0.00  0.00    +0.050 A 
ATOM     25  F   UNL     1       0.466  -6.873 -13.330  0.00  0.00    -0.205 F 
ATOM     26  C   UNL     1      -1.851  -8.015 -12.212  0.00  0.00    +0.047 C 
ENDBRANCH  17  19
ENDBRANCH   3  17
BRANCH   1  27
ATOM     27  C   UNL     1       1.243  -5.548  -4.039  0.00  0.00    +0.107 C 
BRANCH  27  28
ATOM     28  C   UNL     1       1.980  -4.321  -3.499  0.00  0.00    +0.000 C 
BRANCH  28  29
ATOM     29  C   UNL     1       1.298  -3.840  -2.216  0.00  0.00    -0.077 C 
BRANCH  29  30
ATOM     30  N   UNL     1       2.071  -2.733  -1.636  0.00  0.00    +0.380 N 
ATOM     31  H   UNL     1       3.031  -3.021  -1.515  0.00  0.00    -0.082 HD
BRANCH  30  32
ATOM     32  C   UNL     1       2.017  -1.574  -2.536  0.00  0.00    -0.079 C 
BRANCH  32  33
ATOM     33  C   UNL     1       2.922  -0.465  -1.994  0.00  0.00    -0.019 C 
BRANCH  33  35
ATOM     34  C   UNL     1       3.771   1.851  -2.390  0.00  0.00    +0.004 C 
ATOM     35  C   UNL     1       2.866   0.743  -2.932  0.00  0.00    -0.005 C 
ENDBRANCH  33  35
ENDBRANCH  32  33
ENDBRANCH  30  32
BRANCH  30  36
ATOM     36  C   UNL     1       1.501  -2.369  -0.333  0.00  0.00    -0.079 C 
BRANCH  36  37
ATOM     37  C   UNL     1       1.700  -3.522   0.652  0.00  0.00    -0.019 C 
BRANCH  37  38
ATOM     38  C   UNL     1       1.048  -3.169   1.990  0.00  0.00    -0.005 C 
ATOM     39  C   UNL     1       1.247  -4.323   2.975  0.00  0.00    +0.004 C 
ENDBRANCH  37  38
ENDBRANCH  36  37
ENDBRANCH  30  36
ENDBRANCH  29  30
ENDBRANCH  28  29
ENDBRANCH  27  28
ENDBRANCH   1  27
TORSDOF 14
