REMARK  Name = ZINC23054970
REMARK  10 active torsions:
REMARK  status: ('A' for Active; 'I' for Inactive)
REMARK    1  A    between atoms: C_1  and  C_2
REMARK    2  A    between atoms: C_2  and  C_4
REMARK    3  A    between atoms: C_2  and  N_10
REMARK    4  A    between atoms: C_4  and  C_5
REMARK    5  A    between atoms: N_10  and  C_11
REMARK    6  A    between atoms: N_10  and  C_20
REMARK    7  A    between atoms: C_11  and  C_12
REMARK    8  A    between atoms: C_15  and  O_18
REMARK    9  A    between atoms: O_18  and  C_19
REMARK   10  A    between atoms: C_20  and  C_21
REMARK                            x       y       z     vdW  Elec       q    Type
REMARK                         _______ _______ _______ _____ _____    ______ ____
ROOT
ATOM      1  N   UNL     1      -1.436  -0.519   0.079  0.00  0.00    -0.290 NA
ENDROOT
BRANCH   1   3
ATOM      2  C   UNL     1      -0.026  -0.292  -1.911  0.00  0.00    +0.024 C 
ATOM      3  C   UNL     1      -0.147  -0.013  -0.412  0.00  0.00    +0.059 C 
BRANCH   3   4
ATOM      4  C   UNL     1      -0.064   1.495  -0.166  0.00  0.00    +0.061 C 
BRANCH   4   5
ATOM      5  C   UNL     1      -0.033   1.761   1.317  0.00  0.00    -0.009 A 
ATOM      6  C   UNL     1       1.026   1.755   2.164  0.00  0.00    +0.011 A 
ATOM      7  C   UNL     1       0.816   2.032   3.502  0.00  0.00    +0.008 A 
ATOM      8  C   UNL     1      -0.442   2.301   3.928  0.00  0.00    +0.045 A 
ATOM      9  S   UNL     1      -1.380   2.173   2.414  0.00  0.00    -0.102 S 
ENDBRANCH   4   5
ENDBRANCH   3   4
ENDBRANCH   1   3
BRANCH   1  10
ATOM     10  C   UNL     1      -1.353  -1.950   0.397  0.00  0.00    +0.120 C 
BRANCH  10  11
ATOM     11  C   UNL     1      -0.629  -2.133   1.706  0.00  0.00    -0.033 A 
ATOM     12  C   UNL     1       0.736  -2.357   1.714  0.00  0.00    +0.008 A 
ATOM     13  C   UNL     1       1.402  -2.525   2.913  0.00  0.00    +0.046 A 
ATOM     14  C   UNL     1       0.701  -2.468   4.109  0.00  0.00    +0.120 A 
ATOM     15  C   UNL     1      -0.668  -2.242   4.098  0.00  0.00    +0.046 A 
ATOM     16  C   UNL     1      -1.329  -2.070   2.897  0.00  0.00    +0.008 A 
BRANCH  14  17
ATOM     17  O   UNL     1       1.354  -2.633   5.289  0.00  0.00    -0.495 OA
ATOM     18  C   UNL     1       0.568  -2.562   6.481  0.00  0.00    +0.277 C 
ENDBRANCH  14  17
ENDBRANCH  10  11
ENDBRANCH   1  10
BRANCH   1  19
ATOM     19  C   UNL     1      -2.507  -0.257  -0.891  0.00  0.00    +0.138 C 
BRANCH  19  20
ATOM     20  C   UNL     1      -2.885   1.202  -0.841  0.00  0.00    +0.037 A 
ATOM     21  C   UNL     1      -2.652   2.024  -1.923  0.00  0.00    +0.093 A 
ATOM     22  C   UNL     1      -3.008   3.371  -1.858  0.00  0.00    +0.259 A 
ATOM     23  O   UNL     1      -2.804   4.104  -2.813  0.00  0.00    -0.267 OA
ATOM     24  N   UNL     1      -3.586   3.870  -0.725  0.00  0.00    -0.264 N 
ATOM     25  C   UNL     1      -3.990   5.165  -0.509  0.00  0.00    +0.104 A 
ATOM     26  C   UNL     1      -4.544   5.530   0.647  0.00  0.00    +0.067 A 
ATOM     27  S   UNL     1      -4.533   3.995   1.558  0.00  0.00    -0.059 S 
ATOM     28  C   UNL     1      -3.780   2.984   0.301  0.00  0.00    +0.158 A 
ATOM     29  N   UNL     1      -3.453   1.717   0.245  0.00  0.00    -0.338 N 
ATOM     30  H   UNL     1      -3.625   1.146   1.010  0.00  0.00    +0.168 HD
ENDBRANCH  19  20
ENDBRANCH   1  19
TORSDOF 8
