REMARK  Name = ZINC04175994
REMARK  6 active torsions:
REMARK  status: ('A' for Active; 'I' for Inactive)
REMARK    1  A    between atoms: C_1  and  C_2
REMARK    2  A    between atoms: C_5  and  N_9
REMARK    3  A    between atoms: C_6  and  C_8
REMARK    4  A    between atoms: C_10  and  N_17
REMARK    5  A    between atoms: C_18  and  C_20
REMARK    6  A    between atoms: C_24  and  N_26
REMARK                            x       y       z     vdW  Elec       q    Type
REMARK                         _______ _______ _______ _____ _____    ______ ____
ROOT
ATOM      1  N   UNL     1       0.089   8.234  -0.152  0.00  0.00    -0.218 N 
ATOM      2  C   UNL     1       1.164   7.407  -0.166  0.00  0.00    +0.133 A 
ATOM      3  C   UNL     1       2.290   8.192  -0.268  0.00  0.00    +0.026 A 
ATOM      4  C   UNL     1       1.882   9.514  -0.326  0.00  0.00    +0.079 A 
ATOM      5  N   UNL     1       0.559   9.544  -0.253  0.00  0.00    -0.168 NA
ATOM      6  C   UNL     1       2.981  10.568  -0.447  0.00  0.00    +0.127 C 
ATOM      7  S   UNL     1       4.426   9.549  -0.955  0.00  0.00    -0.150 S 
ATOM      8  C   UNL     1       3.794   7.933  -0.344  0.00  0.00    +0.110 C 
ENDROOT
BRANCH   1  13
ATOM      9  C   UNL     1      -5.346   6.649   0.243  0.00  0.00    +0.044 C 
ATOM     10  C   UNL     1      -3.903   7.070   0.138  0.00  0.00    -0.050 A 
ATOM     11  C   UNL     1      -3.075   6.469  -0.793  0.00  0.00    +0.005 A 
ATOM     12  C   UNL     1      -1.753   6.856  -0.895  0.00  0.00    +0.028 A 
ATOM     13  C   UNL     1      -1.253   7.842  -0.054  0.00  0.00    +0.070 A 
ATOM     14  C   UNL     1      -2.087   8.443   0.879  0.00  0.00    -0.025 A 
ATOM     15  C   UNL     1      -3.409   8.055   0.973  0.00  0.00    +0.008 A 
ATOM     16  C   UNL     1      -1.550   9.518   1.788  0.00  0.00    +0.046 C 
ENDBRANCH   1  13
BRANCH   2  17
ATOM     17  N   UNL     1       1.135   6.017  -0.086  0.00  0.00    -0.266 N 
ATOM     18  C   UNL     1       2.187   5.349   0.427  0.00  0.00    +0.249 C 
ATOM     19  O   UNL     1       3.118   5.962   0.912  0.00  0.00    -0.270 OA
ATOM     20  H   UNL     1       0.356   5.529  -0.399  0.00  0.00    +0.157 HD
BRANCH  18  21
ATOM     21  C   UNL     1       2.209   3.871   0.400  0.00  0.00    +0.039 A 
ATOM     22  C   UNL     1       1.098   3.162  -0.060  0.00  0.00    +0.013 A 
ATOM     23  C   UNL     1       1.125   1.783  -0.083  0.00  0.00    +0.003 A 
ATOM     24  C   UNL     1       2.250   1.103   0.349  0.00  0.00    +0.033 A 
ATOM     25  C   UNL     1       3.352   1.799   0.810  0.00  0.00    +0.127 A 
ATOM     26  C   UNL     1       3.341   3.179   0.833  0.00  0.00    +0.045 A 
BRANCH  25  27
ATOM     27  N   UNL     1       4.549   1.063   1.276  0.00  0.00    +0.056 N 
ATOM     28  O   UNL     1       4.562  -0.155   1.252  0.00  0.00    -0.126 OA
ATOM     29  O   UNL     1       5.521   1.675   1.682  0.00  0.00    -0.126 OA
ENDBRANCH  25  27
ENDBRANCH  18  21
ENDBRANCH   2  17
TORSDOF 4
