REMARK  Name = ZINC08813590
REMARK  10 active torsions:
REMARK  status: ('A' for Active; 'I' for Inactive)
REMARK    1  A    between atoms: C_1  and  C_2
REMARK    2  A    between atoms: C_6  and  N_8
REMARK    3  A    between atoms: C_13  and  C_15
REMARK    4  A    between atoms: C_16  and  C_18
REMARK    5  A    between atoms: C_21  and  C_24
REMARK    6  A    between atoms: C_24  and  N_25
REMARK    7  A    between atoms: N_25  and  S_26
REMARK    8  A    between atoms: S_26  and  C_29
REMARK    9  A    between atoms: C_32  and  N_35
REMARK   10  A    between atoms: C_36  and  C_38
REMARK                            x       y       z     vdW  Elec       q    Type
REMARK                         _______ _______ _______ _____ _____    ______ ____
ROOT
ATOM      1  C   UNL     1      -6.309   6.779   5.832  0.00  0.00    +0.075 C 
ATOM      2  C   UNL     1      -5.021   6.094   6.293  0.00  0.00    +0.013 C 
ATOM      3  C   UNL     1      -4.202   5.673   5.072  0.00  0.00    +0.005 C 
ATOM      4  C   UNL     1      -5.020   4.700   4.220  0.00  0.00    +0.005 C 
ATOM      5  C   UNL     1      -6.308   5.385   3.759  0.00  0.00    +0.005 C 
ATOM      6  C   UNL     1      -7.127   5.806   4.980  0.00  0.00    +0.013 C 
ENDROOT
BRANCH   1  14
ATOM      7  N   UNL     1      -8.663  11.048   4.930  0.00  0.00    -0.324 N 
ATOM      8  C   UNL     1      -7.226  11.301   4.758  0.00  0.00    +0.124 C 
ATOM      9  C   UNL     1      -6.593  10.137   3.996  0.00  0.00    +0.126 C 
ATOM     10  N   UNL     1      -6.926   8.883   4.687  0.00  0.00    -0.298 N 
ATOM     11  C   UNL     1      -8.336   8.623   5.017  0.00  0.00    +0.130 C 
ATOM     12  C   UNL     1      -8.899   9.848   5.744  0.00  0.00    +0.088 C 
ATOM     13  C   UNL     1     -10.403   9.667   5.961  0.00  0.00    +0.029 C 
ATOM     14  C   UNL     1      -5.965   7.997   5.014  0.00  0.00    +0.219 C 
ATOM     15  O   UNL     1      -4.822   8.180   4.650  0.00  0.00    -0.275 OA
BRANCH   7  21
ATOM     16  C   UNL     1     -12.077  14.565   4.575  0.00  0.00    +0.044 C 
ATOM     17  C   UNL     1     -10.963  13.886   5.329  0.00  0.00    -0.049 A 
ATOM     18  C   UNL     1     -10.576  14.364   6.567  0.00  0.00    +0.003 A 
ATOM     19  C   UNL     1      -9.554  13.744   7.263  0.00  0.00    +0.002 A 
ATOM     20  C   UNL     1      -8.918  12.643   6.723  0.00  0.00    +0.023 A 
ATOM     21  C   UNL     1      -9.305  12.161   5.479  0.00  0.00    +0.030 A 
ATOM     22  C   UNL     1     -10.328  12.790   4.780  0.00  0.00    +0.026 A 
ENDBRANCH   7  21
ENDBRANCH   1  14
BRANCH   4  23
ATOM     23  C   UNL     1      -4.200   4.279   2.998  0.00  0.00    +0.109 C 
BRANCH  23  24
ATOM     24  N   UNL     1      -4.934   3.258   2.246  0.00  0.00    -0.190 NA
ATOM     25  H   UNL     1      -5.686   2.802   2.655  0.00  0.00    +0.148 HD
BRANCH  24  26
ATOM     26  S   UNL     1      -4.481   2.884   0.698  0.00  0.00    +0.058 S 
ATOM     27  O   UNL     1      -4.343   4.117   0.005  0.00  0.00    -0.153 OA
ATOM     28  O   UNL     1      -5.356   1.855   0.256  0.00  0.00    -0.153 OA
BRANCH  26  29
ATOM     29  C   UNL     1      -2.871   2.173   0.784  0.00  0.00    +0.105 A 
ATOM     30  C   UNL     1      -2.728   0.806   0.939  0.00  0.00    +0.030 A 
ATOM     31  C   UNL     1      -1.468   0.245   1.006  0.00  0.00    +0.025 A 
ATOM     32  C   UNL     1      -0.343   1.056   0.919  0.00  0.00    +0.033 A 
ATOM     33  C   UNL     1      -0.490   2.429   0.770  0.00  0.00    +0.025 A 
ATOM     34  C   UNL     1      -1.753   2.982   0.698  0.00  0.00    +0.030 A 
BRANCH  32  35
ATOM     35  N   UNL     1       0.935   0.491   0.987  0.00  0.00    -0.286 N 
ATOM     36  C   UNL     1       1.958   1.056   0.315  0.00  0.00    +0.214 C 
ATOM     37  O   UNL     1       1.754   1.998  -0.421  0.00  0.00    -0.276 OA
ATOM     38  C   UNL     1       3.356   0.517   0.479  0.00  0.00    +0.109 C 
ATOM     39  H   UNL     1       1.084  -0.310   1.514  0.00  0.00    +0.155 HD
ENDBRANCH  32  35
ENDBRANCH  26  29
ENDBRANCH  24  26
ENDBRANCH  23  24
ENDBRANCH   4  23
TORSDOF 7
