REMARK  Name = ZINC63573590
REMARK  7 active torsions:
REMARK  status: ('A' for Active; 'I' for Inactive)
REMARK    1  A    between atoms: C_1  and  C_2
REMARK    2  A    between atoms: C_5  and  C_8
REMARK    3  A    between atoms: C_15  and  O_20
REMARK    4  A    between atoms: O_20  and  C_21
REMARK    5  A    between atoms: N_27  and  C_28
REMARK    6  A    between atoms: C_28  and  C_29
REMARK    7  A    between atoms: C_28  and  C_30
REMARK                            x       y       z     vdW  Elec       q    Type
REMARK                         _______ _______ _______ _____ _____    ______ ____
ROOT
ATOM      1  C   UNL     1       0.058  -4.272  -0.021  0.00  0.00    +0.134 C 
ATOM      2  C   UNL     1       1.500  -4.777   0.103  0.00  0.00    +0.131 C 
ATOM      3  C   UNL     1       1.942  -4.481   1.531  0.00  0.00    -0.035 C 
ATOM      4  C   UNL     1       3.045  -3.749   1.438  0.00  0.00    +0.003 A 
ATOM      5  C   UNL     1       3.962  -3.219   2.459  0.00  0.00    +0.055 A 
ATOM      6  C   UNL     1       5.014  -2.481   2.011  0.00  0.00    +0.121 A 
ATOM      7  C   UNL     1       5.261  -2.208   0.657  0.00  0.00    +0.047 A 
ATOM      8  C   UNL     1       4.484  -2.650  -0.365  0.00  0.00    +0.029 A 
ATOM      9  C   UNL     1       3.315  -3.464  -0.006  0.00  0.00    +0.043 A 
ATOM     10  N   UNL     1       2.411  -4.041  -0.775  0.00  0.00    -0.375 N 
ATOM     11  C   UNL     1       1.145  -4.923   2.734  0.00  0.00    +0.052 C 
ATOM     12  C   UNL     1      -0.305  -4.463   2.498  0.00  0.00    +0.114 C 
ATOM     13  N   UNL     1      -0.704  -4.793   1.125  0.00  0.00    -0.276 N 
ATOM     14  C   UNL     1      -1.777  -5.580   0.911  0.00  0.00    +0.303 C 
ATOM     15  O   UNL     1      -2.054  -5.936  -0.218  0.00  0.00    -0.253 OA
ATOM     16  N   UNL     1      -2.543  -5.972   1.949  0.00  0.00    -0.297 N 
ATOM     17  H   UNL     1      -2.367  -5.628   2.838  0.00  0.00    +0.150 HD
ATOM     18  H   UNL     1       2.349  -3.990  -1.742  0.00  0.00    +0.160 HD
ENDROOT
BRANCH   1  23
ATOM     19  C   UNL     1      -0.003   1.506   0.049  0.00  0.00    +0.044 C 
ATOM     20  C   UNL     1       0.013  -0.001   0.030  0.00  0.00    -0.050 A 
ATOM     21  C   UNL     1       0.499  -0.700   1.119  0.00  0.00    +0.004 A 
ATOM     22  C   UNL     1       0.513  -2.083   1.103  0.00  0.00    +0.006 A 
ATOM     23  C   UNL     1       0.041  -2.766  -0.003  0.00  0.00    -0.025 A 
ATOM     24  C   UNL     1      -0.447  -2.066  -1.091  0.00  0.00    +0.006 A 
ATOM     25  C   UNL     1      -0.465  -0.684  -1.073  0.00  0.00    +0.004 A 
ENDBRANCH   1  23
BRANCH  16  26
ATOM     26  C   UNL     1      -3.640  -6.918   1.733  0.00  0.00    +0.068 C 
ATOM     27  C   UNL     1      -3.098  -8.348   1.782  0.00  0.00    +0.027 C 
ATOM     28  C   UNL     1      -4.694  -6.735   2.826  0.00  0.00    +0.027 C 
ENDBRANCH  16  26
BRANCH   6  29
ATOM     29  O   UNL     1       5.879  -1.977   2.931  0.00  0.00    -0.495 OA
ATOM     30  C   UNL     1       6.976  -1.206   2.437  0.00  0.00    +0.277 C 
ENDBRANCH   6  29
TORSDOF 3
