REMARK  Name = ZINC38576704
REMARK  9 active torsions:
REMARK  status: ('A' for Active; 'I' for Inactive)
REMARK    1  A    between atoms: C_1  and  C_2
REMARK    2  A    between atoms: C_4  and  C_38
REMARK    3  A    between atoms: C_5  and  O_37
REMARK    4  A    between atoms: C_6  and  C_8
REMARK    5  A    between atoms: C_11  and  C_13
REMARK    6  A    between atoms: N_15  and  C_16
REMARK    7  A    between atoms: C_18  and  C_28
REMARK    8  A    between atoms: N_30  and  C_31
REMARK    9  A    between atoms: C_31  and  C_32
REMARK                            x       y       z     vdW  Elec       q    Type
REMARK                         _______ _______ _______ _____ _____    ______ ____
ROOT
ATOM      1  C   UNL     1       0.285  -3.296   6.652  0.00  0.00    +0.261 C 
ATOM      2  O   UNL     1       0.239  -2.411   7.485  0.00  0.00    -0.269 OA
ATOM      3  N   UNL     1       0.248  -4.587   7.036  0.00  0.00    -0.298 N 
ATOM      4  H   UNL     1       0.285  -5.293   6.372  0.00  0.00    +0.150 HD
ENDROOT
BRANCH   3   5
ATOM      5  C   UNL     1       0.152  -4.925   8.459  0.00  0.00    +0.144 C 
ATOM      6  C   UNL     1      -0.841  -6.086   8.684  0.00  0.00    +0.109 C 
ATOM      7  C   UNL     1      -0.458  -6.901   9.917  0.00  0.00    +0.016 C 
ATOM      8  C   UNL     1      -0.884  -6.119  11.184  0.00  0.00    +0.005 C 
ATOM      9  C   UNL     1       0.078  -6.652  12.273  0.00  0.00    +0.001 C 
ATOM     10  C   UNL     1       1.419  -6.835  11.534  0.00  0.00    +0.014 C 
ATOM     11  C   UNL     1       1.076  -7.067  10.043  0.00  0.00    +0.052 C 
ATOM     12  S   UNL     1       1.729  -5.646   9.070  0.00  0.00    -0.134 S 
BRANCH   6  13
ATOM     13  C   UNL     1      -2.225  -5.523   8.875  0.00  0.00    +0.219 C 
ATOM     14  O   UNL     1      -2.368  -4.389   9.282  0.00  0.00    -0.275 OA
ATOM     15  N   UNL     1      -3.305  -6.279   8.594  0.00  0.00    -0.308 N 
ATOM     16  H   UNL     1      -3.191  -7.186   8.269  0.00  0.00    +0.149 HD
BRANCH  15  17
ATOM     17  C   UNL     1      -4.651  -5.732   8.780  0.00  0.00    +0.178 C 
BRANCH  17  18
ATOM     18  C   UNL     1      -5.673  -6.771   8.398  0.00  0.00    +0.122 A 
ATOM     19  C   UNL     1      -6.219  -7.679   9.226  0.00  0.00    +0.046 A 
ATOM     20  C   UNL     1      -7.121  -8.447   8.454  0.00  0.00    +0.041 A 
ATOM     21  C   UNL     1      -7.072  -7.962   7.200  0.00  0.00    +0.195 A 
ATOM     22  O   UNL     1      -6.198  -6.943   7.173  0.00  0.00    -0.466 OA
ENDBRANCH  17  18
ENDBRANCH  15  17
ENDBRANCH   6  13
ENDBRANCH   3   5
BRANCH   1  26
ATOM     23  C   UNL     1       0.527  -1.904   3.128  0.00  0.00    +0.080 C 
ATOM     24  N   UNL     1       0.518  -3.217   3.077  0.00  0.00    -0.153 NA
ATOM     25  N   UNL     1       0.439  -3.784   4.216  0.00  0.00    -0.148 NA
ATOM     26  C   UNL     1       0.381  -2.958   5.228  0.00  0.00    +0.131 C 
ATOM     27  C   UNL     1       0.441  -1.572   4.609  0.00  0.00    +0.120 C 
BRANCH  23  33
ATOM     28  C   UNL     1       0.695   2.776   1.431  0.00  0.00    +0.044 C 
ATOM     29  C   UNL     1       0.691   1.290   1.179  0.00  0.00    -0.049 A 
ATOM     30  C   UNL     1       0.764   0.810  -0.120  0.00  0.00    +0.010 A 
ATOM     31  C   UNL     1       0.761  -0.548  -0.367  0.00  0.00    -0.008 A 
ATOM     32  C   UNL     1       0.684  -1.447   0.686  0.00  0.00    +0.129 A 
ATOM     33  C   UNL     1       0.609  -0.966   2.006  0.00  0.00    +0.040 A 
ATOM     34  C   UNL     1       0.619   0.416   2.240  0.00  0.00    +0.016 A 
ATOM     35  C   UNL     1       0.841  -1.056  -1.784  0.00  0.00    +0.047 C 
BRANCH  32  36
ATOM     36  O   UNL     1       0.680  -2.781   0.445  0.00  0.00    -0.506 OA
ATOM     37  H   UNL     1       1.560  -3.181   0.428  0.00  0.00    +0.292 HD
ENDBRANCH  32  36
ENDBRANCH  23  33
ENDBRANCH   1  26
TORSDOF 7
