REMARK  Name = ZINC40982008
REMARK  12 active torsions:
REMARK  status: ('A' for Active; 'I' for Inactive)
REMARK    1  A    between atoms: C_1  and  C_2
REMARK    2  A    between atoms: C_2  and  C_3
REMARK    3  A    between atoms: C_3  and  O_4
REMARK    4  A    between atoms: O_4  and  C_5
REMARK    5  A    between atoms: C_9  and  C_11
REMARK    6  A    between atoms: C_13  and  C_26
REMARK    7  A    between atoms: C_14  and  C_25
REMARK    8  A    between atoms: C_19  and  S_21
REMARK    9  A    between atoms: S_21  and  C_22
REMARK   10  A    between atoms: C_22  and  C_23
REMARK   11  A    between atoms: C_23  and  C_24
REMARK   12  A    between atoms: N_28  and  C_29
REMARK                            x       y       z     vdW  Elec       q    Type
REMARK                         _______ _______ _______ _____ _____    ______ ____
ROOT
ATOM      1  C   UNL     1       2.176  -6.077   3.403  0.00  0.00    +0.177 C 
ATOM      2  C   UNL     1       3.614  -6.518   3.464  0.00  0.00    +0.060 C 
ATOM      3  C   UNL     1       4.187  -6.994   4.579  0.00  0.00    +0.018 C 
ATOM      4  N   UNL     1       3.495  -7.126   5.758  0.00  0.00    -0.287 N 
ATOM      5  C   UNL     1       2.114  -7.002   5.706  0.00  0.00    +0.219 A 
ATOM      6  N   UNL     1       1.480  -6.518   4.609  0.00  0.00    -0.220 N 
ATOM      7  N   UNL     1       0.116  -6.540   4.893  0.00  0.00    -0.141 NA
ATOM      8  C   UNL     1      -0.009  -7.017   6.113  0.00  0.00    +0.210 A 
ATOM      9  N   UNL     1       1.209  -7.293   6.601  0.00  0.00    -0.187 NA
ATOM     10  C   UNL     1       5.639  -7.397   4.537  0.00  0.00    +0.061 C 
ATOM     11  H   UNL     1       3.954  -7.299   6.595  0.00  0.00    +0.155 HD
ENDROOT
BRANCH   1  16
ATOM     12  C   UNL     1       1.459  -2.590   2.134  0.00  0.00    +0.121 A 
ATOM     13  C   UNL     1       2.009  -1.813   3.143  0.00  0.00    +0.045 A 
ATOM     14  C   UNL     1       2.608  -2.417   4.231  0.00  0.00    +0.004 A 
ATOM     15  C   UNL     1       2.662  -3.797   4.314  0.00  0.00    +0.006 A 
ATOM     16  C   UNL     1       2.116  -4.574   3.309  0.00  0.00    -0.015 A 
ATOM     17  C   UNL     1       1.510  -3.974   2.222  0.00  0.00    +0.051 A 
BRANCH  12  18
ATOM     18  O   UNL     1       0.868  -1.998   1.063  0.00  0.00    -0.492 OA
BRANCH  18  19
ATOM     19  C   UNL     1       0.853  -0.569   1.039  0.00  0.00    +0.229 C 
BRANCH  19  21
ATOM     20  C   UNL     1       0.135   1.442  -0.259  0.00  0.00    +0.007 C 
ATOM     21  C   UNL     1       0.151  -0.088  -0.233  0.00  0.00    +0.038 C 
ENDBRANCH  19  21
ENDBRANCH  18  19
ENDBRANCH  12  18
ENDBRANCH   1  16
BRANCH   2  22
ATOM     22  C   UNL     1       4.398  -6.427   2.290  0.00  0.00    +0.248 C 
ATOM     23  O   UNL     1       4.306  -7.283   1.428  0.00  0.00    -0.270 OA
ATOM     24  N   UNL     1       5.247  -5.393   2.124  0.00  0.00    -0.282 N 
ATOM     25  H   UNL     1       5.383  -4.758   2.844  0.00  0.00    +0.155 HD
BRANCH  24  26
ATOM     26  C   UNL     1       5.931  -5.237   0.914  0.00  0.00    +0.034 A 
ATOM     27  C   UNL     1       5.393  -5.747  -0.260  0.00  0.00    +0.023 A 
ATOM     28  C   UNL     1       6.071  -5.590  -1.453  0.00  0.00    +0.002 A 
ATOM     29  C   UNL     1       7.284  -4.928  -1.479  0.00  0.00    +0.000 A 
ATOM     30  C   UNL     1       7.822  -4.419  -0.311  0.00  0.00    +0.002 A 
ATOM     31  C   UNL     1       7.146  -4.566   0.884  0.00  0.00    +0.023 A 
ENDBRANCH  24  26
ENDBRANCH   2  22
BRANCH   8  32
ATOM     32  S   UNL     1      -1.532  -7.253   6.968  0.00  0.00    -0.084 S 
BRANCH  32  33
ATOM     33  C   UNL     1      -1.032  -7.928   8.576  0.00  0.00    +0.077 C 
BRANCH  33  34
ATOM     34  C   UNL     1      -2.275  -8.183   9.430  0.00  0.00    +0.008 C 
ATOM     35  C   UNL     1      -1.853  -8.752  10.787  0.00  0.00    +0.004 C 
ENDBRANCH  33  34
ENDBRANCH  32  33
ENDBRANCH   8  32
TORSDOF 9
