REMARK  Name = ZINC42561287
REMARK  6 active torsions:
REMARK  status: ('A' for Active; 'I' for Inactive)
REMARK    1  A    between atoms: C_1  and  C_2
REMARK    2  A    between atoms: C_2  and  C_4
REMARK    3  A    between atoms: C_2  and  N_8
REMARK    4  A    between atoms: N_6  and  C_7
REMARK    5  A    between atoms: N_8  and  C_9
REMARK    6  A    between atoms: C_14  and  N_15
REMARK                            x       y       z     vdW  Elec       q    Type
REMARK                         _______ _______ _______ _____ _____    ______ ____
ROOT
ATOM      1  C   UNL     1       2.110  -0.604   1.173  0.00  0.00    +0.051 A 
ATOM      2  C   UNL     1       2.811  -0.248   0.025  0.00  0.00    +0.026 A 
ATOM      3  C   UNL     1       4.189  -0.360   0.006  0.00  0.00    +0.019 A 
ATOM      4  C   UNL     1       4.849  -0.821   1.120  0.00  0.00    +0.041 A 
ATOM      5  C   UNL     1       4.175  -1.192   2.304  0.00  0.00    +0.100 A 
ATOM      6  C   UNL     1       2.765  -1.064   2.300  0.00  0.00    +0.073 A 
ATOM      7  N   UNL     1       5.001  -1.618   3.282  0.00  0.00    -0.246 NA
ATOM      8  C   UNL     1       6.291  -1.671   3.124  0.00  0.00    +0.157 A 
ATOM      9  S   UNL     1       6.543  -1.123   1.553  0.00  0.00    -0.075 S 
ENDROOT
BRANCH   6  10
ATOM     10  N   UNL     1       2.031  -1.409   3.442  0.00  0.00    -0.355 N 
ATOM     11  H   UNL     1       1.065  -1.326   3.441  0.00  0.00    +0.142 HD
ATOM     12  H   UNL     1       2.489  -1.732   4.234  0.00  0.00    +0.142 HD
ENDBRANCH   6  10
BRANCH   1  13
ATOM     13  N   UNL     1       0.711  -0.489   1.189  0.00  0.00    -0.332 N 
ATOM     14  H   UNL     1       0.213  -0.731   1.986  0.00  0.00    +0.147 HD
BRANCH  13  16
ATOM     15  C   UNL     1      -0.019   1.526   0.010  0.00  0.00    +0.038 C 
ATOM     16  C   UNL     1       0.002  -0.004   0.002  0.00  0.00    +0.154 C 
BRANCH  16  17
ATOM     17  C   UNL     1      -1.412  -0.526   0.013  0.00  0.00    +0.233 C 
ATOM     18  O   UNL     1      -1.790  -1.233   0.922  0.00  0.00    -0.274 OA
ATOM     19  N   UNL     1      -2.256  -0.206  -0.988  0.00  0.00    -0.317 N 
ATOM     20  C   UNL     1      -3.630  -0.713  -0.978  0.00  0.00    +0.128 C 
ATOM     21  H   UNL     1      -1.953   0.360  -1.716  0.00  0.00    +0.148 HD
ENDBRANCH  16  17
ENDBRANCH  13  16
ENDBRANCH   1  13
TORSDOF 4
