REMARK  Name = ZINC39983029
REMARK  7 active torsions:
REMARK  status: ('A' for Active; 'I' for Inactive)
REMARK    1  A    between atoms: C_1  and  C_2
REMARK    2  A    between atoms: C_5  and  S_8
REMARK    3  A    between atoms: S_8  and  N_11
REMARK    4  A    between atoms: N_11  and  C_12
REMARK    5  A    between atoms: C_12  and  C_13
REMARK    6  A    between atoms: N_15  and  C_16
REMARK    7  A    between atoms: C_18  and  C_29
REMARK                            x       y       z     vdW  Elec       q    Type
REMARK                         _______ _______ _______ _____ _____    ______ ____
ROOT
ATOM      1  C   UNL     1       5.870  -6.035   1.972  0.00  0.00    +0.191 C 
ATOM      2  C   UNL     1       6.428  -6.464   3.316  0.00  0.00    -0.002 C 
ATOM      3  C   UNL     1       7.780  -6.203   3.554  0.00  0.00    +0.004 A 
ATOM      4  C   UNL     1       8.380  -6.568   4.777  0.00  0.00    +0.030 A 
ATOM      5  C   UNL     1       9.699  -6.303   4.983  0.00  0.00    +0.042 A 
ATOM      6  C   UNL     1      10.472  -5.675   4.007  0.00  0.00    +0.022 A 
ATOM      7  C   UNL     1       9.949  -5.300   2.808  0.00  0.00    +0.025 A 
ATOM      8  C   UNL     1       8.593  -5.542   2.526  0.00  0.00    +0.041 A 
ATOM      9  N   UNL     1       8.081  -5.173   1.347  0.00  0.00    -0.283 N 
ATOM     10  C   UNL     1       6.822  -5.365   1.008  0.00  0.00    +0.242 C 
ATOM     11  O   UNL     1       6.425  -5.002  -0.084  0.00  0.00    -0.273 OA
ATOM     12 CL   UNL     1      10.433  -6.755   6.490  0.00  0.00    -0.084 Cl
ATOM     13  H   UNL     1       8.668  -4.740   0.707  0.00  0.00    +0.155 HD
ENDROOT
BRANCH   2  14
ATOM     14  C   UNL     1       5.614  -7.099   4.287  0.00  0.00    -0.019 A 
ATOM     15  C   UNL     1       5.353  -6.468   5.514  0.00  0.00    +0.008 A 
ATOM     16  C   UNL     1       4.561  -7.094   6.450  0.00  0.00    +0.001 A 
ATOM     17  C   UNL     1       4.023  -8.343   6.186  0.00  0.00    +0.000 A 
ATOM     18  C   UNL     1       4.274  -8.974   4.979  0.00  0.00    +0.001 A 
ATOM     19  C   UNL     1       5.058  -8.363   4.026  0.00  0.00    +0.008 A 
ENDBRANCH   2  14
BRANCH   1  22
ATOM     20  C   UNL     1       3.744  -5.029   1.335  0.00  0.00    +0.229 C 
ATOM     21  O   UNL     1       3.752  -5.715   0.335  0.00  0.00    -0.274 OA
ATOM     22  N   UNL     1       4.758  -5.115   2.219  0.00  0.00    -0.299 N 
ATOM     23  H   UNL     1       4.751  -4.566   3.019  0.00  0.00    +0.150 HD
BRANCH  20  24
ATOM     24  C   UNL     1       2.600  -4.082   1.590  0.00  0.00    +0.201 C 
BRANCH  24  25
ATOM     25  N   UNL     1       1.635  -4.176   0.491  0.00  0.00    -0.181 NA
ATOM     26  H   UNL     1       1.886  -4.609  -0.339  0.00  0.00    +0.149 HD
BRANCH  25  27
ATOM     27  S   UNL     1       0.115  -3.542   0.668  0.00  0.00    +0.059 S 
ATOM     28  O   UNL     1      -0.383  -4.020   1.910  0.00  0.00    -0.153 OA
ATOM     29  O   UNL     1      -0.563  -3.764  -0.561  0.00  0.00    -0.153 OA
BRANCH  27  34
ATOM     30  C   UNL     1       0.727   2.433   1.244  0.00  0.00    +0.044 C 
ATOM     31  C   UNL     1       0.575   0.941   1.100  0.00  0.00    -0.050 A 
ATOM     32  C   UNL     1       0.419   0.380  -0.153  0.00  0.00    +0.005 A 
ATOM     33  C   UNL     1       0.279  -0.989  -0.285  0.00  0.00    +0.029 A 
ATOM     34  C   UNL     1       0.295  -1.797   0.836  0.00  0.00    +0.105 A 
ATOM     35  C   UNL     1       0.452  -1.236   2.090  0.00  0.00    +0.029 A 
ATOM     36  C   UNL     1       0.596   0.133   2.222  0.00  0.00    +0.005 A 
ENDBRANCH  27  34
ENDBRANCH  25  27
ENDBRANCH  24  25
ENDBRANCH  20  24
ENDBRANCH   1  22
TORSDOF 6
