REMARK  Name = ZINC09252816
REMARK  13 active torsions:
REMARK  status: ('A' for Active; 'I' for Inactive)
REMARK    1  A    between atoms: C_1  and  C_2
REMARK    2  A    between atoms: C_2  and  C_3
REMARK    3  A    between atoms: C_2  and  C_4
REMARK    4  A    between atoms: C_4  and  N_5
REMARK    5  A    between atoms: C_6  and  N_35
REMARK    6  A    between atoms: C_7  and  N_14
REMARK    7  A    between atoms: N_14  and  C_15
REMARK    8  A    between atoms: C_15  and  C_16
REMARK    9  A    between atoms: C_16  and  O_17
REMARK   10  A    between atoms: O_17  and  C_18
REMARK   11  A    between atoms: C_19  and  C_21
REMARK   12  A    between atoms: C_22  and  C_23
REMARK   13  A    between atoms: C_26  and  C_28
REMARK                            x       y       z     vdW  Elec       q    Type
REMARK                         _______ _______ _______ _____ _____    ______ ____
ROOT
ATOM      1  N   UNL     1       0.094  -2.789   2.375  0.00  0.00    -0.259 N 
ATOM      2  C   UNL     1       0.008  -2.133   3.549  0.00  0.00    +0.244 C 
ATOM      3  O   UNL     1      -0.192  -0.931   3.561  0.00  0.00    -0.270 OA
ENDROOT
BRANCH   1   6
ATOM      4  N   UNL     1      -0.985  -1.514  -0.898  0.00  0.00    -0.280 N 
ATOM      5  C   UNL     1      -0.984  -2.229   0.278  0.00  0.00    +0.127 A 
ATOM      6  C   UNL     1       0.064  -2.071   1.161  0.00  0.00    +0.140 A 
ATOM      7  C   UNL     1       1.103  -1.181   0.831  0.00  0.00    +0.277 A 
ATOM      8  O   UNL     1       2.042  -1.022   1.593  0.00  0.00    -0.266 OA
ATOM      9  N   UNL     1       1.054  -0.505  -0.334  0.00  0.00    -0.273 N 
ATOM     10  H   UNL     1       1.790   0.131  -0.568  0.00  0.00    +0.173 HD
ATOM     11  C   UNL     1       0.027  -0.675  -1.185  0.00  0.00    +0.331 A 
ATOM     12  O   UNL     1       0.010  -0.057  -2.232  0.00  0.00    -0.246 OA
BRANCH   5  13
ATOM     13  N   UNL     1      -2.016  -3.089   0.569  0.00  0.00    -0.343 N 
ATOM     14  H   UNL     1      -2.784  -3.142  -0.020  0.00  0.00    +0.144 HD
ATOM     15  H   UNL     1      -1.975  -3.644   1.364  0.00  0.00    +0.144 HD
ENDBRANCH   5  13
BRANCH   4  16
ATOM     16  C   UNL     1      -2.092  -1.671  -1.845  0.00  0.00    +0.131 C 
BRANCH  16  18
ATOM     17  C   UNL     1      -2.654   0.761  -1.754  0.00  0.00    +0.009 C 
ATOM     18  C   UNL     1      -3.188  -0.654  -1.522  0.00  0.00    +0.003 C 
ATOM     19  C   UNL     1      -4.395  -0.899  -2.429  0.00  0.00    +0.009 C 
ENDBRANCH  16  18
ENDBRANCH   4  16
ENDBRANCH   1   6
BRANCH   2  20
ATOM     20  C   UNL     1       0.150  -2.839   4.766  0.00  0.00    +0.071 C 
ATOM     21  C   UNL     1       0.063  -2.177   5.949  0.00  0.00    +0.051 C 
BRANCH  21  22
ATOM     22  C   UNL     1       0.205  -2.883   7.165  0.00  0.00    +0.129 A 
ATOM     23  C   UNL     1       0.139  -2.334   8.432  0.00  0.00    +0.050 A 
ATOM     24  C   UNL     1       0.332  -3.382   9.337  0.00  0.00    +0.050 A 
ATOM     25  C   UNL     1       0.507  -4.527   8.594  0.00  0.00    +0.138 A 
ATOM     26  O   UNL     1       0.423  -4.209   7.290  0.00  0.00    -0.455 OA
BRANCH  25  27
ATOM     27  C   UNL     1       0.743  -5.879   9.137  0.00  0.00    +0.052 A 
ATOM     28  C   UNL     1      -0.024  -6.958   8.692  0.00  0.00    +0.014 A 
ATOM     29  C   UNL     1       0.202  -8.219   9.203  0.00  0.00    +0.001 A 
ATOM     30  C   UNL     1       1.186  -8.418  10.156  0.00  0.00    +0.003 A 
ATOM     31  C   UNL     1       1.951  -7.356  10.603  0.00  0.00    +0.039 A 
ATOM     32  C   UNL     1       1.740  -6.087  10.096  0.00  0.00    +0.134 A 
ATOM     33  F   UNL     1       2.491  -5.051  10.529  0.00  0.00    -0.205 F 
ENDBRANCH  25  27
ENDBRANCH  21  22
ENDBRANCH   2  20
BRANCH   1  34
ATOM     34  C   UNL     1       0.218  -4.249   2.359  0.00  0.00    +0.142 C 
BRANCH  34  35
ATOM     35  C   UNL     1       1.696  -4.634   2.265  0.00  0.00    +0.179 C 
BRANCH  35  36
ATOM     36  O   UNL     1       2.375  -4.209   3.448  0.00  0.00    -0.381 OA
ATOM     37  C   UNL     1       3.769  -4.522   3.461  0.00  0.00    +0.194 C 
ENDBRANCH  35  36
ENDBRANCH  34  35
ENDBRANCH   1  34
TORSDOF 10
