REMARK  Name = ZINC20295052
REMARK  12 active torsions:
REMARK  status: ('A' for Active; 'I' for Inactive)
REMARK    1  A    between atoms: C_1  and  C_2
REMARK    2  A    between atoms: C_3  and  C_32
REMARK    3  A    between atoms: C_4  and  N_10
REMARK    4  A    between atoms: C_6  and  C_7
REMARK    5  A    between atoms: C_11  and  C_13
REMARK    6  A    between atoms: C_13  and  S_14
REMARK    7  A    between atoms: S_14  and  C_15
REMARK    8  A    between atoms: C_18  and  C_27
REMARK    9  A    between atoms: N_19  and  C_20
REMARK   10  A    between atoms: C_20  and  C_21
REMARK   11  A    between atoms: C_32  and  O_34
REMARK   12  A    between atoms: O_34  and  C_35
REMARK                            x       y       z     vdW  Elec       q    Type
REMARK                         _______ _______ _______ _____ _____    ______ ____
ROOT
ATOM      1  N   UNL     1       2.838  -2.287   0.092  0.00  0.00    -0.279 N 
ATOM      2  C   UNL     1       3.775  -3.137   0.559  0.00  0.00    +0.228 C 
ATOM      3  O   UNL     1       3.644  -4.332   0.397  0.00  0.00    -0.275 OA
ATOM      4  H   UNL     1       2.956  -1.204   0.239  0.00  0.00    +0.155 HD
ENDROOT
BRANCH   1   8
ATOM      5  C   UNL     1      -1.542  -2.107  -2.353  0.00  0.00    +0.046 C 
ATOM      6  C   UNL     1      -0.349  -2.793  -1.738  0.00  0.00    -0.015 A 
ATOM      7  C   UNL     1       0.659  -2.067  -1.122  0.00  0.00    +0.091 A 
ATOM      8  C   UNL     1       1.729  -2.778  -0.570  0.00  0.00    +0.087 A 
ATOM      9  S   UNL     1       1.322  -4.425  -0.921  0.00  0.00    -0.068 S 
ATOM     10  C   UNL     1      -0.221  -4.155  -1.772  0.00  0.00    +0.079 A 
BRANCH  10  11
ATOM     11  C   UNL     1      -1.128  -5.145  -2.357  0.00  0.00    +0.248 C 
ATOM     12  O   UNL     1      -2.151  -4.782  -2.908  0.00  0.00    -0.270 OA
ATOM     13  N   UNL     1      -0.830  -6.457  -2.286  0.00  0.00    -0.325 N 
ATOM     14  H   UNL     1      -1.512  -7.201  -2.725  0.00  0.00    +0.145 HD
ATOM     15  H   UNL     1       0.095  -6.785  -1.788  0.00  0.00    +0.145 HD
ENDBRANCH  10  11
BRANCH   7  16
ATOM     16  C   UNL     1       0.601  -0.602  -1.047  0.00  0.00    +0.342 C 
ATOM     17  O   UNL     1       1.093   0.071  -1.932  0.00  0.00    -0.245 OA
BRANCH  16  18
ATOM     18  O   UNL     1       0.002  -0.004   0.002  0.00  0.00    -0.464 OA
ATOM     19  C   UNL     1      -0.018   1.448   0.010  0.00  0.00    +0.280 C 
ENDBRANCH  16  18
ENDBRANCH   7  16
ENDBRANCH   1   8
BRANCH   2  20
ATOM     20  C   UNL     1       4.984  -2.602   1.281  0.00  0.00    +0.173 C 
BRANCH  20  21
ATOM     21  S   UNL     1       6.047  -3.979   1.780  0.00  0.00    -0.077 S 
BRANCH  21  22
ATOM     22  C   UNL     1       7.343  -3.092   2.578  0.00  0.00    +0.192 A 
ATOM     23  N   UNL     1       7.423  -1.788   2.720  0.00  0.00    -0.122 NA
ATOM     24  N   UNL     1       8.498  -1.476   3.350  0.00  0.00    -0.125 NA
ATOM     25  C   UNL     1       9.173  -2.563   3.651  0.00  0.00    +0.200 A 
ATOM     26  N   UNL     1       8.450  -3.633   3.170  0.00  0.00    -0.297 N 
BRANCH  25  27
ATOM     27  C   UNL     1      10.455  -2.626   4.371  0.00  0.00    +0.172 A 
ATOM     28  C   UNL     1      11.021  -1.615   5.088  0.00  0.00    +0.053 A 
ATOM     29  C   UNL     1      12.233  -2.112   5.603  0.00  0.00    +0.042 A 
ATOM     30  C   UNL     1      12.352  -3.385   5.175  0.00  0.00    +0.196 A 
ATOM     31  O   UNL     1      11.277  -3.692   4.431  0.00  0.00    -0.460 OA
ENDBRANCH  25  27
BRANCH  26  32
ATOM     32  C   UNL     1       8.797  -5.053   3.269  0.00  0.00    +0.157 C 
BRANCH  32  33
ATOM     33  C   UNL     1       9.630  -5.460   2.052  0.00  0.00    +0.138 C 
ATOM     34  C   UNL     1       9.899  -6.980   2.086  0.00  0.00    +0.035 C 
ATOM     35  C   UNL     1      11.369  -7.065   1.587  0.00  0.00    +0.031 C 
ATOM     36  C   UNL     1      11.957  -5.760   2.180  0.00  0.00    +0.160 C 
ATOM     37  O   UNL     1      10.898  -4.794   2.085  0.00  0.00    -0.375 OA
ENDBRANCH  32  33
ENDBRANCH  26  32
ENDBRANCH  21  22
ENDBRANCH  20  21
ENDBRANCH   2  20
TORSDOF 10
