REMARK  Name = ZINC48798486
REMARK  3 active torsions:
REMARK  status: ('A' for Active; 'I' for Inactive)
REMARK    1  A    between atoms: C_4  and  N_8
REMARK    2  A    between atoms: C_5  and  N_7
REMARK    3  A    between atoms: C_11  and  C_13
REMARK                            x       y       z     vdW  Elec       q    Type
REMARK                         _______ _______ _______ _____ _____    ______ ____
ROOT
ATOM      1  N   UNL     1       3.606  -0.693  -0.054  0.00  0.00    -0.237 N 
ATOM      2  C   UNL     1       4.834  -0.124  -0.174  0.00  0.00    +0.115 A 
ATOM      3  C   UNL     1       5.742  -1.129  -0.156  0.00  0.00    +0.054 A 
ATOM      4  C   UNL     1       4.989  -2.319  -0.019  0.00  0.00    +0.148 A 
ATOM      5  N   UNL     1       3.718  -1.970   0.040  0.00  0.00    -0.162 NA
ENDROOT
BRANCH   4   6
ATOM      6  C   UNL     1       5.524  -3.693   0.049  0.00  0.00    +0.269 C 
ATOM      7  O   UNL     1       6.724  -3.881  -0.013  0.00  0.00    -0.268 OA
ATOM      8  N   UNL     1       4.684  -4.738   0.181  0.00  0.00    -0.264 N 
ATOM      9  C   UNL     1       5.192  -6.042   0.246  0.00  0.00    +0.147 A 
ATOM     10  C   UNL     1       6.549  -6.402   0.192  0.00  0.00    +0.064 A 
ATOM     11  C   UNL     1       6.624  -7.749   0.286  0.00  0.00    +0.107 A 
ATOM     12  N   UNL     1       5.367  -8.228   0.395  0.00  0.00    -0.283 N 
ATOM     13  H   UNL     1       5.118  -9.161   0.478  0.00  0.00    +0.188 HD
ATOM     14  N   UNL     1       4.485  -7.140   0.373  0.00  0.00    -0.159 NA
ATOM     15  H   UNL     1       3.727  -4.588   0.230  0.00  0.00    +0.157 HD
ENDBRANCH   4   6
BRANCH   1  19
ATOM     16  C   UNL     1      -0.003   1.402   0.017  0.00  0.00    +0.002 A 
ATOM     17  C   UNL     1       0.941   1.679  -0.955  0.00  0.00    +0.002 A 
ATOM     18  C   UNL     1       2.137   0.987  -0.981  0.00  0.00    +0.029 A 
ATOM     19  C   UNL     1       2.394   0.011  -0.029  0.00  0.00    +0.086 A 
ATOM     20  C   UNL     1       1.442  -0.268   0.952  0.00  0.00    +0.050 A 
ATOM     21  C   UNL     1       0.244   0.432   0.969  0.00  0.00    +0.025 A 
BRANCH  20  22
ATOM     22  N   UNL     1       1.694  -1.250   1.913  0.00  0.00    -0.356 N 
ATOM     23  H   UNL     1       2.566  -1.673   1.958  0.00  0.00    +0.142 HD
ATOM     24  H   UNL     1       0.997  -1.510   2.536  0.00  0.00    +0.142 HD
ENDBRANCH  20  22
ENDBRANCH   1  19
TORSDOF 3
