REMARK  Name = ZINC01374828
REMARK  11 active torsions:
REMARK  status: ('A' for Active; 'I' for Inactive)
REMARK    1  A    between atoms: C_1  and  C_2
REMARK    2  A    between atoms: C_2  and  C_3
REMARK    3  A    between atoms: C_3  and  C_5
REMARK    4  A    between atoms: C_3  and  N_17
REMARK    5  A    between atoms: N_9  and  C_10
REMARK    6  A    between atoms: C_10  and  C_11
REMARK    7  A    between atoms: N_17  and  C_18
REMARK    8  A    between atoms: N_17  and  C_26
REMARK    9  A    between atoms: C_18  and  C_19
REMARK   10  A    between atoms: C_22  and  C_25
REMARK   11  A    between atoms: C_26  and  C_27
REMARK                            x       y       z     vdW  Elec       q    Type
REMARK                         _______ _______ _______ _____ _____    ______ ____
ROOT
ATOM      1  N   UNL     1      -2.233  -0.407   1.642  0.00  0.00    -0.284 NA
ENDROOT
BRANCH   1   2
ATOM      2  C   UNL     1      -1.804  -1.302   0.558  0.00  0.00    +0.127 C 
BRANCH   2   3
ATOM      3  C   UNL     1      -2.065  -2.732   0.955  0.00  0.00    +0.169 A 
ATOM      4  N   UNL     1      -1.804  -3.283   2.115  0.00  0.00    -0.112 NA
ATOM      5  N   UNL     1      -2.171  -4.517   2.062  0.00  0.00    -0.023 NA
ATOM      6  N   UNL     1      -2.660  -4.767   0.897  0.00  0.00    -0.044 NA
ATOM      7  N   UNL     1      -2.617  -3.691   0.188  0.00  0.00    -0.223 N 
BRANCH   7   8
ATOM      8  C   UNL     1      -3.079  -3.540  -1.195  0.00  0.00    +0.182 C 
BRANCH   8   9
ATOM      9  C   UNL     1      -1.948  -3.855  -2.139  0.00  0.00    -0.026 A 
ATOM     10  C   UNL     1      -1.094  -2.850  -2.554  0.00  0.00    +0.005 A 
ATOM     11  C   UNL     1      -0.056  -3.139  -3.421  0.00  0.00    +0.000 A 
ATOM     12  C   UNL     1       0.128  -4.433  -3.872  0.00  0.00    +0.000 A 
ATOM     13  C   UNL     1      -0.726  -5.438  -3.457  0.00  0.00    +0.000 A 
ATOM     14  C   UNL     1      -1.761  -5.150  -2.587  0.00  0.00    +0.005 A 
ENDBRANCH   8   9
ENDBRANCH   7   8
ENDBRANCH   2   3
BRANCH   2  16
ATOM     15  C   UNL     1      -0.050   0.327  -0.159  0.00  0.00    +0.006 C 
ATOM     16  C   UNL     1      -0.308  -1.109   0.300  0.00  0.00    +0.023 C 
ENDBRANCH   2  16
ENDBRANCH   1   2
BRANCH   1  17
ATOM     17  C   UNL     1      -1.225  -0.352   2.709  0.00  0.00    +0.120 C 
BRANCH  17  18
ATOM     18  C   UNL     1      -1.847   0.217   3.958  0.00  0.00    -0.033 A 
ATOM     19  C   UNL     1      -1.714   1.563   4.245  0.00  0.00    +0.005 A 
ATOM     20  C   UNL     1      -2.285   2.084   5.391  0.00  0.00    +0.003 A 
ATOM     21  C   UNL     1      -2.989   1.261   6.250  0.00  0.00    -0.050 A 
ATOM     22  C   UNL     1      -3.122  -0.085   5.962  0.00  0.00    +0.003 A 
ATOM     23  C   UNL     1      -2.555  -0.606   4.814  0.00  0.00    +0.005 A 
ATOM     24  C   UNL     1      -3.610   1.829   7.500  0.00  0.00    +0.044 C 
ENDBRANCH  17  18
ENDBRANCH   1  17
BRANCH   1  25
ATOM     25  C   UNL     1      -2.531   0.936   1.128  0.00  0.00    +0.126 C 
BRANCH  25  26
ATOM     26  C   UNL     1      -3.875   0.927   0.448  0.00  0.00    +0.031 A 
ATOM     27  C   UNL     1      -4.991   1.252   1.149  0.00  0.00    +0.020 A 
ATOM     28  C   UNL     1      -6.280   1.235   0.461  0.00  0.00    +0.003 A 
ATOM     29  C   UNL     1      -7.464   1.560   1.134  0.00  0.00    +0.059 A 
ATOM     30  C   UNL     1      -8.666   1.536   0.458  0.00  0.00    +0.163 A 
ATOM     31  C   UNL     1      -8.705   1.190  -0.895  0.00  0.00    +0.164 A 
ATOM     32  C   UNL     1      -7.540   0.865  -1.569  0.00  0.00    +0.075 A 
ATOM     33  C   UNL     1      -6.322   0.883  -0.902  0.00  0.00    +0.053 A 
ATOM     34  N   UNL     1      -5.151   0.562  -1.559  0.00  0.00    -0.322 N 
ATOM     35  H   UNL     1      -5.179   0.320  -2.497  0.00  0.00    +0.169 HD
ATOM     36  C   UNL     1      -3.969   0.587  -0.917  0.00  0.00    +0.254 A 
ATOM     37  O   UNL     1      -2.954   0.302  -1.530  0.00  0.00    -0.268 OA
ATOM     38  O   UNL     1      -9.886   1.172  -1.571  0.00  0.00    -0.485 OA
ATOM     39  C   UNL     1     -11.079   1.138  -0.783  0.00  0.00    +0.270 C 
ATOM     40  C   UNL     1     -10.950   2.185   0.332  0.00  0.00    +0.270 C 
ATOM     41  O   UNL     1      -9.809   1.852   1.129  0.00  0.00    -0.485 OA
ENDBRANCH  25  26
ENDBRANCH   1  25
TORSDOF 9
