REMARK  Name = ZINC37606418
REMARK  12 active torsions:
REMARK  status: ('A' for Active; 'I' for Inactive)
REMARK    1  A    between atoms: C_1  and  C_2
REMARK    2  A    between atoms: C_2  and  N_3
REMARK    3  A    between atoms: C_4  and  C_6
REMARK    4  A    between atoms: C_9  and  C_11
REMARK    5  A    between atoms: C_11  and  O_12
REMARK    6  A    between atoms: O_12  and  C_13
REMARK    7  A    between atoms: C_19  and  C_30
REMARK    8  A    between atoms: C_24  and  C_26
REMARK    9  A    between atoms: C_26  and  C_27
REMARK   10  A    between atoms: C_27  and  C_28
REMARK   11  A    between atoms: C_27  and  C_29
REMARK   12  A    between atoms: C_33  and  C_36
REMARK                            x       y       z     vdW  Elec       q    Type
REMARK                         _______ _______ _______ _____ _____    ______ ____
ROOT
ATOM      1  C   UNL     1       3.440  -0.967   8.147  0.00  0.00    +0.122 A 
ATOM      2  C   UNL     1       4.747  -0.676   8.511  0.00  0.00    +0.046 A 
ATOM      3  C   UNL     1       5.046  -0.400   9.828  0.00  0.00    +0.007 A 
ATOM      4  C   UNL     1       4.049  -0.407  10.797  0.00  0.00    -0.040 A 
ATOM      5  C   UNL     1       2.750  -0.686  10.435  0.00  0.00    -0.016 A 
ATOM      6  C   UNL     1       2.446  -0.967   9.111  0.00  0.00    +0.051 A 
ATOM      7  C   UNL     1       1.616  -0.682  11.430  0.00  0.00    +0.137 C 
ATOM      8  N   UNL     1       2.155  -0.626  12.793  0.00  0.00    -0.290 N 
ATOM      9  C   UNL     1       3.250   0.325  13.049  0.00  0.00    +0.113 C 
ATOM     10  C   UNL     1       4.455  -0.111  12.217  0.00  0.00    +0.054 C 
ATOM     11  C   UNL     1       1.669  -1.415  13.772  0.00  0.00    +0.217 C 
ATOM     12  O   UNL     1       0.767  -2.190  13.534  0.00  0.00    -0.276 OA
ENDROOT
BRANCH   7  13
ATOM     13  C   UNL     1       0.742   0.521  11.188  0.00  0.00    -0.023 A 
ATOM     14  C   UNL     1      -0.616   0.359  10.985  0.00  0.00    +0.006 A 
ATOM     15  C   UNL     1      -1.419   1.462  10.764  0.00  0.00    +0.004 A 
ATOM     16  C   UNL     1      -0.863   2.728  10.745  0.00  0.00    -0.050 A 
ATOM     17  C   UNL     1       0.494   2.890  10.949  0.00  0.00    +0.004 A 
ATOM     18  C   UNL     1       1.296   1.787  11.175  0.00  0.00    +0.006 A 
ATOM     19  C   UNL     1      -1.738   3.931  10.502  0.00  0.00    +0.044 C 
ENDBRANCH   7  13
BRANCH   1  20
ATOM     20  O   UNL     1       3.137  -1.246   6.852  0.00  0.00    -0.483 OA
BRANCH  20  21
ATOM     21  C   UNL     1       4.216  -1.227   5.915  0.00  0.00    +0.324 C 
BRANCH  21  25
ATOM     22  C   UNL     1       2.870  -1.361   2.554  0.00  0.00    +0.164 A 
ATOM     23  C   UNL     1       3.092  -2.684   2.782  0.00  0.00    +0.230 A 
ATOM     24  O   UNL     1       3.603  -2.788   4.019  0.00  0.00    -0.444 OA
ATOM     25  C   UNL     1       3.693  -1.557   4.541  0.00  0.00    +0.234 A 
ATOM     26  N   UNL     1       3.262  -0.692   3.672  0.00  0.00    -0.206 NA
BRANCH  22  28
ATOM     27  N   UNL     1       2.155   0.571   1.238  0.00  0.00    -0.310 N 
ATOM     28  C   UNL     1       2.315  -0.765   1.326  0.00  0.00    +0.266 C 
ATOM     29  O   UNL     1       2.002  -1.478   0.392  0.00  0.00    -0.268 OA
ATOM     30  H   UNL     1       2.404   1.139   1.983  0.00  0.00    +0.149 HD
BRANCH  27  32
ATOM     31  C   UNL     1       1.526   2.683   0.177  0.00  0.00    +0.024 C 
ATOM     32  C   UNL     1       1.603   1.163   0.017  0.00  0.00    +0.101 C 
ENDBRANCH  27  32
ENDBRANCH  22  28
ENDBRANCH  21  25
ENDBRANCH  20  21
ENDBRANCH   1  20
BRANCH  11  33
ATOM     33  C   UNL     1       2.246  -1.333  15.162  0.00  0.00    +0.099 C 
BRANCH  33  34
ATOM     34  C   UNL     1       1.521  -2.324  16.074  0.00  0.00    -0.008 C 
ATOM     35  C   UNL     1       2.187  -2.331  17.451  0.00  0.00    +0.008 C 
ATOM     36  C   UNL     1       0.056  -1.908  16.218  0.00  0.00    +0.008 C 
ENDBRANCH  33  34
ENDBRANCH  11  33
TORSDOF 8
