REMARK  Name = ZINC22815324
REMARK  9 active torsions:
REMARK  status: ('A' for Active; 'I' for Inactive)
REMARK    1  A    between atoms: C_1  and  C_2
REMARK    2  A    between atoms: C_2  and  C_3
REMARK    3  A    between atoms: C_3  and  N_4
REMARK    4  A    between atoms: C_5  and  C_25
REMARK    5  A    between atoms: N_7  and  C_10
REMARK    6  A    between atoms: C_10  and  N_11
REMARK    7  A    between atoms: N_14  and  C_17
REMARK    8  A    between atoms: C_17  and  C_18
REMARK    9  A    between atoms: C_23  and  C_24
REMARK                            x       y       z     vdW  Elec       q    Type
REMARK                         _______ _______ _______ _____ _____    ______ ____
ROOT
ATOM      1  C   UNL     1       2.065   0.810   5.268  0.00  0.00    +0.072 C 
ENDROOT
BRANCH   1   2
ATOM      2  N   UNL     1       1.626   1.692   6.357  0.00  0.00    +0.394 N 
ATOM      3  C   UNL     1       0.982   2.903   5.828  0.00  0.00    -0.061 C 
ATOM      4  C   UNL     1       0.470   3.755   6.991  0.00  0.00    +0.066 C 
ATOM      5  N   UNL     1       1.593   4.102   7.873  0.00  0.00    -0.302 NA
ATOM      6  C   UNL     1       2.237   2.892   8.402  0.00  0.00    +0.066 C 
ATOM      7  C   UNL     1       2.750   2.040   7.239  0.00  0.00    -0.061 C 
ATOM      8  H   UNL     1       0.882   1.145   6.955  0.00  0.00    -0.079 HD
BRANCH   5   9
ATOM      9  C   UNL     1       1.154   4.984   8.962  0.00  0.00    +0.119 C 
BRANCH   9  10
ATOM     10  C   UNL     1       0.413   6.164   8.386  0.00  0.00    -0.030 A 
ATOM     11  C   UNL     1      -0.967   6.208   8.442  0.00  0.00    +0.005 A 
ATOM     12  C   UNL     1      -1.646   7.292   7.918  0.00  0.00    +0.000 A 
ATOM     13  C   UNL     1      -0.945   8.327   7.329  0.00  0.00    +0.000 A 
ATOM     14  C   UNL     1       0.435   8.281   7.268  0.00  0.00    +0.003 A 
ATOM     15  C   UNL     1       1.114   7.199   7.797  0.00  0.00    -0.046 A 
ATOM     16  C   UNL     1       2.619   7.149   7.731  0.00  0.00    +0.044 C 
ENDBRANCH   9  10
ENDBRANCH   5   9
ENDBRANCH   1   2
BRANCH   1  20
ATOM     17  N   UNL     1      -0.744   0.080   3.137  0.00  0.00    -0.303 N 
ATOM     18  C   UNL     1      -0.786  -0.996   4.002  0.00  0.00    +0.163 A 
ATOM     19  N   UNL     1       0.194  -0.882   4.854  0.00  0.00    -0.152 NA
ATOM     20  N   UNL     1       0.894   0.294   4.555  0.00  0.00    -0.257 N 
ATOM     21  C   UNL     1       0.292   0.866   3.491  0.00  0.00    +0.177 A 
ATOM     22  S   UNL     1       0.760   2.326   2.730  0.00  0.00    -0.011 S 
BRANCH  18  23
ATOM     23  C   UNL     1      -1.776  -2.096   3.966  0.00  0.00    +0.022 A 
ATOM     24  C   UNL     1      -1.976  -2.921   5.078  0.00  0.00    +0.031 A 
ATOM     25  C   UNL     1      -2.912  -3.931   5.003  0.00  0.00    +0.111 A 
ATOM     26  N   UNL     1      -3.605  -4.130   3.898  0.00  0.00    -0.263 NA
ATOM     27  C   UNL     1      -3.444  -3.379   2.825  0.00  0.00    +0.111 A 
ATOM     28  C   UNL     1      -2.533  -2.344   2.815  0.00  0.00    +0.031 A 
ENDBRANCH  18  23
BRANCH  17  29
ATOM     29  C   UNL     1      -1.669   0.327   2.029  0.00  0.00    +0.125 C 
BRANCH  29  31
ATOM     30  C   UNL     1      -2.056   0.001  -0.418  0.00  0.00    +0.005 C 
ATOM     31  C   UNL     1      -1.089  -0.258   0.740  0.00  0.00    +0.018 C 
ENDBRANCH  29  31
ENDBRANCH  17  29
ENDBRANCH   1  20
TORSDOF 7
