REMARK  Name = ZINC59921967
REMARK  8 active torsions:
REMARK  status: ('A' for Active; 'I' for Inactive)
REMARK    1  A    between atoms: C_1  and  C_2
REMARK    2  A    between atoms: C_2  and  C_3
REMARK    3  A    between atoms: C_2  and  C_4
REMARK    4  A    between atoms: C_2  and  O_17
REMARK    5  A    between atoms: C_10  and  N_12
REMARK    6  A    between atoms: N_12  and  S_13
REMARK    7  A    between atoms: S_13  and  C_16
REMARK    8  A    between atoms: O_17  and  C_18
REMARK                            x       y       z     vdW  Elec       q    Type
REMARK                         _______ _______ _______ _____ _____    ______ ____
ROOT
ATOM      1  C   UNL     1      -1.153  -0.353   0.534  0.00  0.00    +0.262 C 
ATOM      2  O   UNL     1      -1.928  -0.946  -0.185  0.00  0.00    -0.271 OA
ATOM      3  N   UNL     1      -1.537   0.028   1.769  0.00  0.00    -0.260 N 
ATOM      4  C   UNL     1      -2.823  -0.260   2.218  0.00  0.00    +0.189 A 
ATOM      5  N   UNL     1      -3.801  -0.892   1.601  0.00  0.00    -0.124 NA
ATOM      6  N   UNL     1      -5.009  -1.072   2.235  0.00  0.00    -0.121 NA
ATOM      7  C   UNL     1      -5.182  -0.610   3.459  0.00  0.00    +0.225 A 
ATOM      8  S   UNL     1      -3.586   0.121   3.788  0.00  0.00    -0.012 S 
ATOM      9  H   UNL     1      -0.917   0.502   2.345  0.00  0.00    +0.157 HD
ENDROOT
BRANCH   1  11
ATOM     10  C   UNL     1       0.453   1.474   0.051  0.00  0.00    +0.065 C 
ATOM     11  C   UNL     1       0.239  -0.041   0.049  0.00  0.00    +0.180 C 
ATOM     12  C   UNL     1       1.262  -0.703   0.974  0.00  0.00    +0.065 C 
BRANCH  11  13
ATOM     13  O   UNL     1       0.404  -0.543  -1.279  0.00  0.00    -0.477 OA
BRANCH  13  14
ATOM     14  C   UNL     1       0.266  -1.884  -1.454  0.00  0.00    +0.122 A 
ATOM     15  C   UNL     1      -0.147  -2.683  -0.397  0.00  0.00    +0.047 A 
ATOM     16  C   UNL     1      -0.286  -4.046  -0.577  0.00  0.00    +0.023 A 
ATOM     17  C   UNL     1      -0.014  -4.614  -1.808  0.00  0.00    +0.041 A 
ATOM     18  C   UNL     1       0.398  -3.819  -2.863  0.00  0.00    +0.023 A 
ATOM     19  C   UNL     1       0.532  -2.455  -2.690  0.00  0.00    +0.047 A 
ATOM     20 CL   UNL     1      -0.190  -6.327  -2.031  0.00  0.00    -0.084 Cl
ENDBRANCH  13  14
ENDBRANCH  11  13
ENDBRANCH   1  11
BRANCH   7  21
ATOM     21  N   UNL     1      -6.304  -0.679   4.275  0.00  0.00    -0.073 NA
BRANCH  21  22
ATOM     22  S   UNL     1      -7.678  -1.427   3.732  0.00  0.00    +0.061 S 
ATOM     23  O   UNL     1      -8.107  -0.642   2.629  0.00  0.00    -0.154 OA
ATOM     24  O   UNL     1      -7.304  -2.786   3.552  0.00  0.00    -0.154 OA
ATOM     25  C   UNL     1      -8.860  -1.280   5.101  0.00  0.00    +0.220 C 
ENDBRANCH  21  22
ENDBRANCH   7  21
TORSDOF 5
