REMARK  Name = ZINC06023364
REMARK  7 active torsions:
REMARK  status: ('A' for Active; 'I' for Inactive)
REMARK    1  A    between atoms: C_1  and  C_2
REMARK    2  A    between atoms: C_2  and  C_3
REMARK    3  A    between atoms: C_2  and  C_4
REMARK    4  A    between atoms: C_2  and  C_5
REMARK    5  A    between atoms: C_13  and  N_22
REMARK    6  A    between atoms: N_22  and  S_23
REMARK    7  A    between atoms: S_23  and  C_26
REMARK                            x       y       z     vdW  Elec       q    Type
REMARK                         _______ _______ _______ _____ _____    ______ ____
ROOT
ATOM      1  C   UNL     1       1.866   8.481   1.833  0.00  0.00    -0.001 C 
ATOM      2  C   UNL     1       3.102   8.245   2.706  0.00  0.00    +0.012 C 
ATOM      3  C   UNL     1       2.669   7.682   4.065  0.00  0.00    +0.075 C 
ATOM      4  C   UNL     1       1.744   6.511   3.827  0.00  0.00    +0.110 A 
ATOM      5  C   UNL     1       1.131   6.275   2.653  0.00  0.00    +0.002 A 
ATOM      6  C   UNL     1       0.336   5.063   2.830  0.00  0.00    +0.026 A 
ATOM      7  C   UNL     1      -0.512   4.317   1.993  0.00  0.00    +0.037 A 
ATOM      8  C   UNL     1      -1.135   3.197   2.453  0.00  0.00    +0.057 A 
ATOM      9  C   UNL     1      -0.938   2.773   3.789  0.00  0.00    +0.008 A 
ATOM     10  C   UNL     1      -1.577   1.626   4.282  0.00  0.00    +0.010 A 
ATOM     11  C   UNL     1      -1.371   1.238   5.572  0.00  0.00    +0.001 A 
ATOM     12  C   UNL     1      -0.535   1.967   6.413  0.00  0.00    +0.001 A 
ATOM     13  C   UNL     1       0.111   3.079   5.964  0.00  0.00    +0.012 A 
ATOM     14  C   UNL     1      -0.083   3.510   4.643  0.00  0.00    +0.027 A 
ATOM     15  C   UNL     1       0.556   4.669   4.153  0.00  0.00    +0.143 A 
ATOM     16  O   UNL     1       1.401   5.561   4.710  0.00  0.00    -0.459 OA
ATOM     17  C   UNL     1       1.270   7.128   1.421  0.00  0.00    +0.043 C 
ENDROOT
BRANCH   1  19
ATOM     18  C   UNL     1       1.033   9.496  -0.293  0.00  0.00    +0.011 C 
ATOM     19  C   UNL     1       2.267   9.265   0.582  0.00  0.00    -0.035 C 
ATOM     20  C   UNL     1       2.861  10.613   0.993  0.00  0.00    +0.011 C 
ATOM     21  C   UNL     1       3.309   8.468  -0.207  0.00  0.00    +0.011 C 
ENDBRANCH   1  19
BRANCH   8  22
ATOM     22  N   UNL     1      -1.974   2.468   1.607  0.00  0.00    -0.216 N 
ATOM     23  H   UNL     1      -2.771   2.043   1.962  0.00  0.00    +0.174 HD
BRANCH  22  24
ATOM     24  S   UNL     1      -1.610   2.330  -0.003  0.00  0.00    +0.072 S 
ATOM     25  O   UNL     1      -1.434   3.652  -0.494  0.00  0.00    -0.150 OA
ATOM     26  O   UNL     1      -2.560   1.431  -0.558  0.00  0.00    -0.150 OA
BRANCH  24  27
ATOM     27  C   UNL     1      -0.041   1.538  -0.116  0.00  0.00    +0.109 A 
ATOM     28  C   UNL     1       1.116   2.295  -0.135  0.00  0.00    +0.030 A 
ATOM     29  C   UNL     1       2.347   1.674  -0.229  0.00  0.00    +0.022 A 
ATOM     30  C   UNL     1       2.422   0.294  -0.304  0.00  0.00    +0.041 A 
ATOM     31  C   UNL     1       1.264  -0.463  -0.285  0.00  0.00    +0.022 A 
ATOM     32  C   UNL     1       0.034   0.159  -0.191  0.00  0.00    +0.030 A 
ATOM     33 CL   UNL     1       3.968  -0.486  -0.422  0.00  0.00    -0.084 Cl
ENDBRANCH  24  27
ENDBRANCH  22  24
ENDBRANCH   8  22
TORSDOF 4
