REMARK  Name = ZINC12885477
REMARK  11 active torsions:
REMARK  status: ('A' for Active; 'I' for Inactive)
REMARK    1  A    between atoms: C_1  and  C_2
REMARK    2  A    between atoms: C_2  and  C_3
REMARK    3  A    between atoms: C_2  and  C_4
REMARK    4  A    between atoms: C_7  and  C_10
REMARK    5  A    between atoms: C_10  and  C_12
REMARK    6  A    between atoms: C_10  and  N_15
REMARK    7  A    between atoms: C_12  and  C_13
REMARK    8  A    between atoms: C_12  and  C_14
REMARK    9  A    between atoms: N_15  and  S_16
REMARK   10  A    between atoms: S_16  and  C_19
REMARK   11  A    between atoms: N_28  and  C_29
REMARK                            x       y       z     vdW  Elec       q    Type
REMARK                         _______ _______ _______ _____ _____    ______ ____
ROOT
ATOM      1  N   UNL     1      -3.661   4.111   4.715  0.00  0.00    -0.182 NA
ATOM      2  H   UNL     1      -3.329   5.022   4.741  0.00  0.00    +0.149 HD
ENDROOT
BRANCH   1   3
ATOM      3  S   UNL     1      -5.257   3.821   4.379  0.00  0.00    +0.059 S 
ATOM      4  O   UNL     1      -5.880   5.091   4.241  0.00  0.00    -0.153 OA
ATOM      5  O   UNL     1      -5.283   2.844   3.348  0.00  0.00    -0.153 OA
BRANCH   3   6
ATOM      6  C   UNL     1      -5.962   3.067   5.806  0.00  0.00    +0.109 A 
ATOM      7  C   UNL     1      -6.053   1.688   5.883  0.00  0.00    +0.031 A 
ATOM      8  C   UNL     1      -6.600   1.089   7.001  0.00  0.00    +0.031 A 
ATOM      9  C   UNL     1      -7.068   1.873   8.044  0.00  0.00    +0.090 A 
ATOM     10  C   UNL     1      -6.982   3.263   7.965  0.00  0.00    +0.159 A 
ATOM     11  C   UNL     1      -6.426   3.855   6.842  0.00  0.00    +0.077 A 
ATOM     12  O   UNL     1      -7.508   3.764   9.109  0.00  0.00    -0.407 OA
ATOM     13  C   UNL     1      -7.915   2.750   9.889  0.00  0.00    +0.421 A 
ATOM     14  O   UNL     1      -8.431   2.869  10.984  0.00  0.00    -0.223 OA
ATOM     15  N   UNL     1      -7.662   1.580   9.271  0.00  0.00    -0.277 N 
ATOM     16  C   UNL     1      -7.958   0.243   9.793  0.00  0.00    +0.156 C 
ENDBRANCH   3   6
ENDBRANCH   1   3
BRANCH   1  17
ATOM     17  C   UNL     1      -2.752   2.991   4.975  0.00  0.00    +0.109 C 
BRANCH  17  21
ATOM     18  C   UNL     1      -0.637   2.017   1.394  0.00  0.00    -0.045 A 
ATOM     19  C   UNL     1      -0.863   3.340   1.725  0.00  0.00    +0.004 A 
ATOM     20  C   UNL     1      -1.551   3.655   2.881  0.00  0.00    +0.005 A 
ATOM     21  C   UNL     1      -2.006   2.647   3.712  0.00  0.00    -0.029 A 
ATOM     22  C   UNL     1      -1.776   1.325   3.383  0.00  0.00    +0.005 A 
ATOM     23  C   UNL     1      -1.092   1.009   2.224  0.00  0.00    +0.004 A 
BRANCH  18  25
ATOM     24  C   UNL     1       1.508   2.290   0.181  0.00  0.00    +0.012 C 
ATOM     25  C   UNL     1       0.109   1.673   0.131  0.00  0.00    +0.013 C 
ATOM     26  C   UNL     1      -0.650   2.226  -1.077  0.00  0.00    +0.012 C 
ENDBRANCH  18  25
ENDBRANCH  17  21
BRANCH  17  27
ATOM     27  C   UNL     1      -1.755   3.387   6.065  0.00  0.00    +0.006 C 
ATOM     28  C   UNL     1      -0.977   4.627   5.620  0.00  0.00    +0.009 C 
ATOM     29  C   UNL     1      -2.510   3.696   7.359  0.00  0.00    +0.009 C 
ENDBRANCH  17  27
ENDBRANCH   1  17
TORSDOF 6
