REMARK  Name = ZINC08702106
REMARK  6 active torsions:
REMARK  status: ('A' for Active; 'I' for Inactive)
REMARK    1  A    between atoms: C_1  and  C_2
REMARK    2  A    between atoms: C_5  and  N_8
REMARK    3  A    between atoms: N_16  and  C_24
REMARK    4  A    between atoms: C_17  and  S_19
REMARK    5  A    between atoms: S_19  and  C_20
REMARK    6  A    between atoms: C_20  and  C_21
REMARK                            x       y       z     vdW  Elec       q    Type
REMARK                         _______ _______ _______ _____ _____    ______ ____
ROOT
ATOM      1  N   UNL     1      -0.014  -4.141   0.057  0.00  0.00    -0.230 NA
ATOM      2  C   UNL     1       0.840  -4.791   0.811  0.00  0.00    +0.156 C 
ATOM      3  C   UNL     1       0.961  -6.289   0.969  0.00  0.00    +0.101 C 
ATOM      4  C   UNL     1       1.304  -6.939  -0.366  0.00  0.00    +0.034 C 
ATOM      5  C   UNL     1       1.454  -8.451  -0.177  0.00  0.00    +0.003 C 
ATOM      6  C   UNL     1       0.146  -9.027   0.370  0.00  0.00    +0.000 C 
ATOM      7  C   UNL     1      -0.170  -8.383   1.721  0.00  0.00    +0.003 C 
ATOM      8  C   UNL     1      -0.326  -6.871   1.540  0.00  0.00    +0.034 C 
ATOM      9  N   UNL     1       2.068  -6.451   1.921  0.00  0.00    -0.266 N 
ATOM     10  C   UNL     1       2.481  -5.182   2.230  0.00  0.00    +0.164 C 
ATOM     11  N   UNL     1       1.787  -4.264   1.596  0.00  0.00    -0.208 NA
ENDROOT
BRANCH   1  16
ATOM     12  C   UNL     1       0.078   1.501  -0.097  0.00  0.00    +0.044 C 
ATOM     13  C   UNL     1       0.053  -0.005  -0.056  0.00  0.00    -0.050 A 
ATOM     14  C   UNL     1      -0.054  -0.725  -1.233  0.00  0.00    +0.005 A 
ATOM     15  C   UNL     1      -0.077  -2.103  -1.203  0.00  0.00    +0.028 A 
ATOM     16  C   UNL     1       0.008  -2.773   0.020  0.00  0.00    +0.066 A 
ATOM     17  C   UNL     1       0.116  -2.041   1.204  0.00  0.00    +0.028 A 
ATOM     18  C   UNL     1       0.144  -0.662   1.159  0.00  0.00    +0.005 A 
ENDBRANCH   1  16
BRANCH   9  19
ATOM     19  C   UNL     1       2.591  -7.652   2.412  0.00  0.00    +0.038 A 
ATOM     20  C   UNL     1       3.643  -7.633   3.319  0.00  0.00    +0.023 A 
ATOM     21  C   UNL     1       4.158  -8.820   3.801  0.00  0.00    +0.003 A 
ATOM     22  C   UNL     1       3.628 -10.027   3.383  0.00  0.00    +0.020 A 
ATOM     23  C   UNL     1       2.580 -10.049   2.479  0.00  0.00    +0.043 A 
ATOM     24  C   UNL     1       2.056  -8.864   1.998  0.00  0.00    +0.043 A 
ATOM     25 CL   UNL     1       1.919 -11.566   1.955  0.00  0.00    -0.083 Cl
ENDBRANCH   9  19
BRANCH  10  26
ATOM     26  S   UNL     1       3.798  -4.822   3.344  0.00  0.00    -0.079 S 
BRANCH  26  27
ATOM     27  C   UNL     1       3.883  -3.010   3.352  0.00  0.00    +0.202 C 
BRANCH  27  28
ATOM     28  C   UNL     1       4.985  -2.563   4.278  0.00  0.00    +0.366 C 
ATOM     29  O   UNL     1       5.650  -3.390   4.878  0.00  0.00    -0.245 OA
ATOM     30  O   UNL     1       5.210  -1.375   4.428  0.00  0.00    -0.245 OA
ENDBRANCH  27  28
ENDBRANCH  26  27
ENDBRANCH  10  26
TORSDOF 5
