REMARK  Name = ZINC09067826
REMARK  16 active torsions:
REMARK  status: ('A' for Active; 'I' for Inactive)
REMARK    1  A    between atoms: C_1  and  C_2
REMARK    2  A    between atoms: C_2  and  N_75
REMARK    3  A    between atoms: C_3  and  C_4
REMARK    4  A    between atoms: C_3  and  N_75
REMARK    5  A    between atoms: C_5  and  C_6
REMARK    6  A    between atoms: C_5  and  N_75
REMARK    7  A    between atoms: C_6  and  C_7
REMARK    8  A    between atoms: C_7  and  N_8
REMARK    9  A    between atoms: C_9  and  C_28
REMARK   10  A    between atoms: C_12  and  C_13
REMARK   11  A    between atoms: C_12  and  O_23
REMARK   12  A    between atoms: C_14  and  C_22
REMARK   13  A    between atoms: C_31  and  C_34
REMARK   14  A    between atoms: C_34  and  C_35
REMARK   15  A    between atoms: C_34  and  C_36
REMARK   16  A    between atoms: C_34  and  C_37
REMARK                            x       y       z     vdW  Elec       q    Type
REMARK                         _______ _______ _______ _____ _____    ______ ____
ROOT
ATOM      1  N   UNL     1      -0.620   0.725   0.415  0.00  0.00    -0.284 N 
ATOM      2  C   UNL     1      -0.012   2.044   0.217  0.00  0.00    +0.145 C 
ATOM      3  C   UNL     1       1.474   1.869   0.426  0.00  0.00    +0.073 C 
ATOM      4  C   UNL     1       2.453   2.855   0.334  0.00  0.00    +0.151 C 
ATOM      5  C   UNL     1       1.670   0.522   0.729  0.00  0.00    +0.249 C 
ATOM      6  O   UNL     1       2.743  -0.008   0.965  0.00  0.00    -0.282 OA
ATOM      7  C   UNL     1       0.349  -0.157   0.717  0.00  0.00    +0.288 C 
ATOM      8  O   UNL     1       0.171  -1.337   0.941  0.00  0.00    -0.266 OA
ENDROOT
BRANCH   4   9
ATOM      9  C   UNL     1       3.805   2.529   0.559  0.00  0.00    +0.111 A 
ATOM     10  C   UNL     1       4.390   2.185   1.775  0.00  0.00    +0.068 A 
ATOM     11  N   UNL     1       5.672   1.952   1.563  0.00  0.00    -0.232 NA
ATOM     12  C   UNL     1       5.959   2.125   0.272  0.00  0.00    +0.138 A 
ATOM     13  N   UNL     1       4.815   2.481  -0.386  0.00  0.00    -0.297 N 
ATOM     14  C   UNL     1       4.829   2.714  -1.725  0.00  0.00    +0.093 A 
ATOM     15  C   UNL     1       5.976   2.595  -2.434  0.00  0.00    +0.018 A 
ATOM     16  C   UNL     1       7.165   2.229  -1.790  0.00  0.00    +0.005 A 
ATOM     17  C   UNL     1       7.160   2.000  -0.445  0.00  0.00    +0.047 A 
ATOM     18  C   UNL     1       3.682   2.095   3.102  0.00  0.00    +0.068 C 
ENDBRANCH   4   9
BRANCH   2  19
ATOM     19  C   UNL     1      -0.283   2.527  -1.185  0.00  0.00    -0.022 A 
ATOM     20  C   UNL     1      -0.248   1.637  -2.242  0.00  0.00    +0.006 A 
ATOM     21  C   UNL     1      -0.501   2.079  -3.527  0.00  0.00    +0.004 A 
ATOM     22  C   UNL     1      -0.780   3.413  -3.756  0.00  0.00    -0.042 A 
ATOM     23  C   UNL     1      -0.810   4.305  -2.700  0.00  0.00    +0.004 A 
ATOM     24  C   UNL     1      -0.562   3.861  -1.414  0.00  0.00    +0.006 A 
BRANCH  22  25
ATOM     25  C   UNL     1      -1.051   3.896  -5.158  0.00  0.00    -0.013 C 
ATOM     26  C   UNL     1      -0.017   4.957  -5.540  0.00  0.00    +0.015 C 
ATOM     27  C   UNL     1      -0.957   2.719  -6.130  0.00  0.00    +0.015 C 
ATOM     28  C   UNL     1      -2.454   4.503  -5.226  0.00  0.00    +0.015 C 
ENDBRANCH  22  25
ENDBRANCH   2  19
BRANCH   4  29
ATOM     29  O   UNL     1       2.105   4.126   0.029  0.00  0.00    -0.504 OA
ATOM     30  H   UNL     1       2.924   4.699   0.005  0.00  0.00    +0.292 HD
ENDBRANCH   4  29
BRANCH   1  31
ATOM     31  C   UNL     1      -2.048   0.418   0.305  0.00  0.00    +0.107 C 
BRANCH  31  32
ATOM     32  C   UNL     1      -2.716   0.604   1.669  0.00  0.00    +0.000 C 
BRANCH  32  33
ATOM     33  C   UNL     1      -4.208   0.283   1.554  0.00  0.00    -0.077 C 
BRANCH  33  34
ATOM     34  N   UNL     1      -4.834   0.447   2.883  0.00  0.00    +0.379 N 
ATOM     35  H   UNL     1      -4.298  -0.092   3.573  0.00  0.00    -0.082 HD
BRANCH  34  37
ATOM     36  C   UNL     1      -5.596   2.713   2.254  0.00  0.00    -0.017 C 
ATOM     37  C   UNL     1      -4.825   1.872   3.274  0.00  0.00    -0.082 C 
ENDBRANCH  34  37
BRANCH  34  38
ATOM     38  C   UNL     1      -6.222  -0.060   2.853  0.00  0.00    -0.082 C 
ATOM     39  C   UNL     1      -6.718  -0.221   4.291  0.00  0.00    -0.017 C 
ENDBRANCH  34  38
ENDBRANCH  33  34
ENDBRANCH  32  33
ENDBRANCH  31  32
ENDBRANCH   1  31
TORSDOF 10
