REMARK  Name = ZINC02025250
REMARK  11 active torsions:
REMARK  status: ('A' for Active; 'I' for Inactive)
REMARK    1  A    between atoms: C_1  and  C_2
REMARK    2  A    between atoms: C_2  and  C_3
REMARK    3  A    between atoms: C_3  and  C_5
REMARK    4  A    between atoms: C_3  and  N_30
REMARK    5  A    between atoms: N_7  and  C_8
REMARK    6  A    between atoms: C_8  and  C_10
REMARK    7  A    between atoms: C_8  and  C_19
REMARK    8  A    between atoms: C_14  and  N_16
REMARK    9  A    between atoms: N_21  and  C_22
REMARK   10  A    between atoms: C_23  and  C_29
REMARK   11  A    between atoms: C_27  and  C_28
REMARK                            x       y       z     vdW  Elec       q    Type
REMARK                         _______ _______ _______ _____ _____    ______ ____
ROOT
ATOM      1  C   UNL     1       0.503   5.766   0.060  0.00  0.00    +0.190 C 
ENDROOT
BRANCH   1   2
ATOM      2  C   UNL     1      -0.423   4.610   0.339  0.00  0.00    -0.016 A 
ATOM      3  C   UNL     1      -1.744   4.848   0.671  0.00  0.00    +0.006 A 
ATOM      4  C   UNL     1      -2.595   3.789   0.922  0.00  0.00    +0.003 A 
ATOM      5  C   UNL     1      -2.123   2.491   0.851  0.00  0.00    +0.033 A 
ATOM      6  C   UNL     1      -0.803   2.253   0.519  0.00  0.00    +0.127 A 
ATOM      7  C   UNL     1       0.047   3.313   0.262  0.00  0.00    +0.038 A 
BRANCH   6   8
ATOM      8  N   UNL     1      -0.299   0.864   0.437  0.00  0.00    +0.056 N 
ATOM      9  O   UNL     1      -1.048  -0.070   0.662  0.00  0.00    -0.126 OA
ATOM     10  O   UNL     1       0.864   0.654   0.144  0.00  0.00    -0.126 OA
ENDBRANCH   6   8
ENDBRANCH   1   2
BRANCH   1  13
ATOM     11  C   UNL     1       0.818   6.840   2.224  0.00  0.00    +0.235 C 
ATOM     12  O   UNL     1       1.567   5.937   2.531  0.00  0.00    -0.274 OA
ATOM     13  N   UNL     1       0.233   6.848   1.010  0.00  0.00    -0.299 N 
ATOM     14  H   UNL     1      -0.366   7.571   0.764  0.00  0.00    +0.150 HD
BRANCH  11  15
ATOM     15  C   UNL     1       0.540   7.954   3.201  0.00  0.00    +0.170 C 
BRANCH  15  16
ATOM     16  N   UNL     1       1.288   7.716   4.438  0.00  0.00    -0.222 N 
ATOM     17  C   UNL     1       1.139   6.633   5.222  0.00  0.00    +0.254 C 
ATOM     18  O   UNL     1       0.374   5.712   5.019  0.00  0.00    -0.270 OA
ATOM     19  C   UNL     1       2.062   6.752   6.370  0.00  0.00    +0.049 A 
ATOM     20  C   UNL     1       2.344   5.959   7.471  0.00  0.00    +0.014 A 
ATOM     21  C   UNL     1       3.292   6.375   8.392  0.00  0.00    +0.001 A 
ATOM     22  C   UNL     1       3.958   7.574   8.220  0.00  0.00    +0.001 A 
ATOM     23  C   UNL     1       3.687   8.377   7.123  0.00  0.00    +0.014 A 
ATOM     24  C   UNL     1       2.742   7.974   6.194  0.00  0.00    +0.049 A 
ATOM     25  C   UNL     1       2.211   8.555   4.942  0.00  0.00    +0.254 C 
ATOM     26  O   UNL     1       2.551   9.613   4.452  0.00  0.00    -0.270 OA
ENDBRANCH  15  16
BRANCH  15  28
ATOM     27  C   UNL     1      -1.258   9.204   4.404  0.00  0.00    +0.006 C 
ATOM     28  C   UNL     1      -0.958   7.999   3.511  0.00  0.00    +0.029 C 
ENDBRANCH  15  28
ENDBRANCH  11  15
ENDBRANCH   1  13
BRANCH   1  29
ATOM     29  C   UNL     1       0.279   6.262  -1.345  0.00  0.00    +0.242 C 
ATOM     30  O   UNL     1      -0.072   7.408  -1.534  0.00  0.00    -0.273 OA
ATOM     31  N   UNL     1       0.468   5.434  -2.391  0.00  0.00    -0.283 N 
ATOM     32  H   UNL     1       0.798   4.534  -2.243  0.00  0.00    +0.155 HD
BRANCH  31  33
ATOM     33  C   UNL     1       0.187   5.871  -3.690  0.00  0.00    +0.039 A 
ATOM     34  C   UNL     1      -1.050   6.430  -3.984  0.00  0.00    -0.029 A 
ATOM     35  C   UNL     1      -1.322   6.865  -5.266  0.00  0.00    +0.005 A 
ATOM     36  C   UNL     1      -0.367   6.737  -6.259  0.00  0.00    +0.001 A 
ATOM     37  C   UNL     1       0.863   6.176  -5.970  0.00  0.00    +0.005 A 
ATOM     38  C   UNL     1       1.143   5.743  -4.689  0.00  0.00    -0.029 A 
ATOM     39  C   UNL     1       2.485   5.132  -4.375  0.00  0.00    +0.045 C 
ATOM     40  C   UNL     1      -2.092   6.565  -2.905  0.00  0.00    +0.045 C 
ENDBRANCH  31  33
ENDBRANCH   1  29
TORSDOF 8
