REMARK  Name = ZINC32502425
REMARK  3 active torsions:
REMARK  status: ('A' for Active; 'I' for Inactive)
REMARK    1  A    between atoms: C_1  and  C_2
REMARK    2  A    between atoms: C_2  and  C_3
REMARK    3  A    between atoms: C_5  and  C_11
REMARK                            x       y       z     vdW  Elec       q    Type
REMARK                         _______ _______ _______ _____ _____    ______ ____
ROOT
ATOM      1  C   UNL     1      -1.411   6.842   0.050  0.00  0.00    +0.105 C 
ATOM      2  C   UNL     1      -0.081   6.128   0.034  0.00  0.00    +0.082 C 
ATOM      3  N   UNL     1       1.039   6.769   0.032  0.00  0.00    -0.175 NA
ATOM      4  N   UNL     1       1.203   8.029   0.052  0.00  0.00    -0.259 N 
ATOM      5  C   UNL     1       0.314   8.898   0.473  0.00  0.00    +0.146 C 
ATOM      6  S   UNL     1      -1.244   8.328   1.079  0.00  0.00    -0.082 S 
ATOM      7  N   UNL     1       0.593  10.242   0.442  0.00  0.00    -0.338 N 
ATOM      8  H   UNL     1      -0.155  10.967   0.795  0.00  0.00    +0.144 HD
ATOM      9  H   UNL     1       1.564  10.593   0.063  0.00  0.00    +0.144 HD
ATOM     10  H   UNL     1       2.179   8.377  -0.320  0.00  0.00    +0.191 HD
ENDROOT
BRANCH   2  11
ATOM     11  C   UNL     1      -0.061   4.657   0.027  0.00  0.00    -0.001 A 
ATOM     12  C   UNL     1       1.157   3.971   0.012  0.00  0.00    +0.011 A 
ATOM     13  C   UNL     1       1.168   2.592   0.005  0.00  0.00    +0.016 A 
ATOM     14  C   UNL     1      -0.024   1.887   0.012  0.00  0.00    +0.018 A 
ATOM     15  C   UNL     1      -1.234   2.559   0.022  0.00  0.00    +0.016 A 
ATOM     16  C   UNL     1      -1.261   3.938   0.034  0.00  0.00    +0.011 A 
ATOM     17 BR   UNL     1       0.002  -0.004   0.002  0.00  0.00    -0.050 Br
ENDBRANCH   2  11
BRANCH   1  19
ATOM     18  C   UNL     1      -3.203   7.852  -1.369  0.00  0.00    +0.005 C 
ATOM     19  C   UNL     1      -1.800   7.241  -1.375  0.00  0.00    +0.017 C 
ENDBRANCH   1  19
TORSDOF 2
