REMARK  Name = ZINC12659998
REMARK  7 active torsions:
REMARK  status: ('A' for Active; 'I' for Inactive)
REMARK    1  A    between atoms: C_1  and  C_2
REMARK    2  A    between atoms: C_7  and  C_35
REMARK    3  A    between atoms: C_18  and  C_20
REMARK    4  A    between atoms: C_20  and  N_66
REMARK    5  A    between atoms: C_21  and  N_66
REMARK    6  A    between atoms: C_27  and  C_29
REMARK    7  A    between atoms: C_29  and  C_30
REMARK                            x       y       z     vdW  Elec       q    Type
REMARK                         _______ _______ _______ _____ _____    ______ ____
ROOT
ATOM      1  C   UNL     1       3.559  -2.991  -0.335  0.00  0.00    +0.012 C 
ATOM      2  C   UNL     1       3.890  -2.597   1.106  0.00  0.00    +0.012 C 
ATOM      3  C   UNL     1       3.972  -3.854   1.975  0.00  0.00    +0.007 C 
ATOM      4  C   UNL     1       5.143  -4.717   1.498  0.00  0.00    +0.001 C 
ATOM      5  C   UNL     1       6.453  -3.964   1.726  0.00  0.00    +0.011 C 
ATOM      6  C   UNL     1       6.473  -2.688   0.877  0.00  0.00    -0.007 C 
ATOM      7  C   UNL     1       5.232  -1.885   1.143  0.00  0.00    -0.064 C 
ATOM      8  C   UNL     1       5.241  -0.613   1.389  0.00  0.00    -0.019 C 
ATOM      9  C   UNL     1       6.462   0.255   1.450  0.00  0.00    +0.064 C 
ATOM     10  C   UNL     1       7.649  -0.457   0.765  0.00  0.00    +0.185 C 
ATOM     11  C   UNL     1       7.739  -1.905   1.183  0.00  0.00    +0.056 C 
ATOM     12  O   UNL     1       7.361  -0.299  -0.655  0.00  0.00    -0.461 OA
ATOM     13  C   UNL     1       6.888   0.953  -0.834  0.00  0.00    +0.309 C 
ATOM     14  O   UNL     1       6.968   1.593  -1.855  0.00  0.00    -0.251 OA
ATOM     15  C   UNL     1       6.240   1.429   0.452  0.00  0.00    +0.091 C 
ATOM     16  C   UNL     1       6.500  -3.079  -0.602  0.00  0.00    +0.016 C 
ENDROOT
BRANCH  15  17
ATOM     17  C   UNL     1       4.745   1.674   0.239  0.00  0.00    -0.067 C 
BRANCH  17  18
ATOM     18  N   UNL     1       4.568   2.810  -0.685  0.00  0.00    +0.382 N 
ATOM     19  H   UNL     1       5.017   2.590  -1.582  0.00  0.00    -0.085 HD
ATOM     20  H   UNL     1       5.005   3.647  -0.281  0.00  0.00    -0.085 HD
BRANCH  18  21
ATOM     21  C   UNL     1       3.134   3.070  -0.910  0.00  0.00    -0.068 C 
ATOM     22  C   UNL     1       2.598   3.973   0.203  0.00  0.00    -0.015 C 
ATOM     23  C   UNL     1       1.113   4.250  -0.035  0.00  0.00    -0.002 C 
ATOM     24  C   UNL     1       0.933   4.944  -1.387  0.00  0.00    +0.000 C 
ATOM     25  C   UNL     1       1.469   4.041  -2.499  0.00  0.00    +0.002 C 
ATOM     26  C   UNL     1       2.954   3.764  -2.261  0.00  0.00    -0.018 C 
BRANCH  26  27
ATOM     27  C   UNL     1       3.490   2.861  -3.374  0.00  0.00    +0.076 C 
BRANCH  27  28
ATOM     28  C   UNL     1       3.427   3.593  -4.690  0.00  0.00    +0.105 A 
ATOM     29  C   UNL     1       4.399   4.364  -5.208  0.00  0.00    +0.044 A 
ATOM     30  C   UNL     1       3.920   4.850  -6.447  0.00  0.00    +0.041 A 
ATOM     31  C   UNL     1       2.683   4.347  -6.610  0.00  0.00    +0.195 A 
ATOM     32  O   UNL     1       2.392   3.582  -5.546  0.00  0.00    -0.468 OA
ENDBRANCH  27  28
ENDBRANCH  26  27
ENDBRANCH  18  21
ENDBRANCH  17  18
ENDBRANCH  15  17
TORSDOF 5
