REMARK  Name = ZINC44956328
REMARK  5 active torsions:
REMARK  status: ('A' for Active; 'I' for Inactive)
REMARK    1  A    between atoms: C_6  and  C_7
REMARK    2  A    between atoms: N_9  and  N_10
REMARK    3  A    between atoms: C_11  and  C_13
REMARK    4  A    between atoms: C_13  and  O_14
REMARK    5  A    between atoms: O_14  and  C_15
REMARK                            x       y       z     vdW  Elec       q    Type
REMARK                         _______ _______ _______ _____ _____    ______ ____
ROOT
ATOM      1  N   UNL     1      -2.124  -3.068   0.007  0.00  0.00    -0.232 N 
ATOM      2  C   UNL     1      -1.959  -4.405  -0.002  0.00  0.00    +0.255 C 
ATOM      3  O   UNL     1      -0.843  -4.879  -0.016  0.00  0.00    -0.272 OA
ATOM      4  H   UNL     1      -3.017  -2.689   0.018  0.00  0.00    +0.173 HD
ENDROOT
BRANCH   1   7
ATOM      5  C   UNL     1      -1.169  -0.887   0.009  0.00  0.00    +0.276 C 
ATOM      6  O   UNL     1      -2.289  -0.411   0.022  0.00  0.00    -0.267 OA
ATOM      7  N   UNL     1      -1.005  -2.224   0.000  0.00  0.00    -0.229 N 
ATOM      8  H   UNL     1      -0.112  -2.603  -0.011  0.00  0.00    +0.173 HD
BRANCH   5  14
ATOM      9  C   UNL     1      -0.017   1.375   0.010  0.00  0.00    +0.047 A 
ATOM     10  C   UNL     1       1.315   1.804  -0.001  0.00  0.00    +0.036 A 
ATOM     11  C   UNL     1       2.106   0.704  -0.014  0.00  0.00    +0.098 A 
ATOM     12  N   UNL     1       1.320  -0.401  -0.013  0.00  0.00    -0.356 N 
ATOM     13  H   UNL     1       1.634  -1.319  -0.021  0.00  0.00    +0.166 HD
ATOM     14  C   UNL     1       0.002  -0.004   0.002  0.00  0.00    +0.104 A 
ATOM     15 BR   UNL     1       1.905   3.600   0.003  0.00  0.00    -0.049 Br
ENDBRANCH   5  14
ENDBRANCH   1   7
BRANCH   2  16
ATOM     16  C   UNL     1      -3.163  -5.312   0.005  0.00  0.00    +0.257 C 
BRANCH  16  17
ATOM     17  O   UNL     1      -2.732  -6.675  -0.007  0.00  0.00    -0.367 OA
BRANCH  17  18
ATOM     18  C   UNL     1      -3.802  -7.623  -0.001  0.00  0.00    +0.119 C 
ATOM     19  C   UNL     1      -4.170  -7.968   1.443  0.00  0.00    +0.031 C 
ATOM     20  C   UNL     1      -5.315  -8.983   1.449  0.00  0.00    +0.003 C 
ATOM     21  C   UNL     1      -4.876 -10.252   0.717  0.00  0.00    +0.000 C 
ATOM     22  C   UNL     1      -4.508  -9.906  -0.728  0.00  0.00    +0.003 C 
ATOM     23  C   UNL     1      -3.363  -8.892  -0.734  0.00  0.00    +0.031 C 
ENDBRANCH  17  18
ENDBRANCH  16  17
ENDBRANCH   2  16
TORSDOF 5
