REMARK  Name = ZINC36048114
REMARK  10 active torsions:
REMARK  status: ('A' for Active; 'I' for Inactive)
REMARK    1  A    between atoms: C_1  and  C_2
REMARK    2  A    between atoms: C_2  and  C_3
REMARK    3  A    between atoms: C_2  and  C_4
REMARK    4  A    between atoms: C_7  and  N_10
REMARK    5  A    between atoms: C_12  and  C_35
REMARK    6  A    between atoms: C_16  and  C_18
REMARK    7  A    between atoms: C_18  and  N_19
REMARK    8  A    between atoms: N_19  and  C_20
REMARK    9  A    between atoms: C_20  and  C_21
REMARK   10  A    between atoms: C_27  and  C_29
REMARK                            x       y       z     vdW  Elec       q    Type
REMARK                         _______ _______ _______ _____ _____    ______ ____
ROOT
ATOM      1  N   UNL     1      -4.303  -0.561  -0.614  0.00  0.00    -0.287 N 
ATOM      2  C   UNL     1      -4.756  -0.854   0.650  0.00  0.00    +0.122 A 
ATOM      3  C   UNL     1      -6.073  -1.159   0.533  0.00  0.00    +0.091 A 
ATOM      4  N   UNL     1      -6.413  -1.054  -0.769  0.00  0.00    -0.214 NA
ATOM      5  C   UNL     1      -5.362  -0.691  -1.462  0.00  0.00    +0.207 A 
ATOM      6  N   UNL     1      -5.331  -0.478  -2.834  0.00  0.00    -0.254 N 
ATOM      7  C   UNL     1      -6.451  -0.641  -3.567  0.00  0.00    +0.237 C 
ATOM      8  O   UNL     1      -7.485  -0.973  -3.028  0.00  0.00    -0.274 OA
ATOM      9  H   UNL     1      -4.504  -0.213  -3.265  0.00  0.00    +0.158 HD
ENDROOT
BRANCH   1  13
ATOM     10  C   UNL     1      -0.419   0.539  -1.655  0.00  0.00    -0.045 A 
ATOM     11  C   UNL     1      -1.062   1.182  -0.613  0.00  0.00    +0.006 A 
ATOM     12  C   UNL     1      -2.349   0.820  -0.266  0.00  0.00    +0.026 A 
ATOM     13  C   UNL     1      -2.997  -0.191  -0.964  0.00  0.00    +0.049 A 
ATOM     14  C   UNL     1      -2.348  -0.834  -2.010  0.00  0.00    +0.026 A 
ATOM     15  C   UNL     1      -1.063  -0.464  -2.356  0.00  0.00    +0.006 A 
BRANCH  10  17
ATOM     16  C   UNL     1       1.008   2.413  -2.430  0.00  0.00    +0.012 C 
ATOM     17  C   UNL     1       0.985   0.936  -2.031  0.00  0.00    +0.013 C 
ATOM     18  C   UNL     1       1.915   0.717  -0.837  0.00  0.00    +0.012 C 
ENDBRANCH  10  17
ENDBRANCH   1  13
BRANCH   3  19
ATOM     19  C   UNL     1      -6.980  -1.541   1.643  0.00  0.00    +0.002 A 
ATOM     20  C   UNL     1      -6.499  -1.607   2.949  0.00  0.00    +0.010 A 
ATOM     21  C   UNL     1      -7.348  -1.963   3.977  0.00  0.00    +0.001 A 
ATOM     22  C   UNL     1      -8.674  -2.256   3.713  0.00  0.00    +0.000 A 
ATOM     23  C   UNL     1      -9.156  -2.193   2.418  0.00  0.00    +0.001 A 
ATOM     24  C   UNL     1      -8.319  -1.831   1.383  0.00  0.00    +0.010 A 
ENDBRANCH   3  19
BRANCH   7  25
ATOM     25  C   UNL     1      -6.417  -0.410  -5.055  0.00  0.00    +0.204 C 
BRANCH  25  26
ATOM     26  N   UNL     1      -7.749  -0.650  -5.617  0.00  0.00    -0.286 N 
ATOM     27  C   UNL     1      -8.029  -1.829  -6.206  0.00  0.00    +0.247 C 
ATOM     28  O   UNL     1      -9.119  -2.011  -6.714  0.00  0.00    -0.270 OA
BRANCH  27  29
ATOM     29  C   UNL     1      -7.012  -2.901  -6.236  0.00  0.00    +0.037 A 
ATOM     30  C   UNL     1      -6.253  -3.179  -5.098  0.00  0.00    +0.013 A 
ATOM     31  C   UNL     1      -5.305  -4.181  -5.132  0.00  0.00    +0.001 A 
ATOM     32  C   UNL     1      -5.106  -4.910  -6.291  0.00  0.00    +0.000 A 
ATOM     33  C   UNL     1      -5.855  -4.640  -7.422  0.00  0.00    +0.001 A 
ATOM     34  C   UNL     1      -6.810  -3.644  -7.400  0.00  0.00    +0.013 A 
ENDBRANCH  27  29
BRANCH  26  35
ATOM     35  C   UNL     1      -8.776   0.392  -5.538  0.00  0.00    +0.140 C 
BRANCH  35  36
ATOM     36  C   UNL     1      -8.793   1.191  -6.842  0.00  0.00    +0.136 C 
ATOM     37  C   UNL     1      -9.849   2.322  -6.766  0.00  0.00    +0.035 C 
ATOM     38  C   UNL     1      -9.278   3.329  -7.801  0.00  0.00    +0.031 C 
ATOM     39  C   UNL     1      -7.755   3.146  -7.630  0.00  0.00    +0.160 C 
ATOM     40  O   UNL     1      -7.537   1.861  -7.034  0.00  0.00    -0.375 OA
ENDBRANCH  35  36
ENDBRANCH  26  35
ENDBRANCH  25  26
ENDBRANCH   7  25
TORSDOF 8
