REMARK  Name = ZINC66688331
REMARK  6 active torsions:
REMARK  status: ('A' for Active; 'I' for Inactive)
REMARK    1  A    between atoms: C_1  and  C_2
REMARK    2  A    between atoms: C_2  and  C_3
REMARK    3  A    between atoms: C_3  and  C_4
REMARK    4  A    between atoms: C_4  and  C_6
REMARK    5  A    between atoms: C_4  and  N_22
REMARK    6  A    between atoms: C_12  and  C_15
REMARK                            x       y       z     vdW  Elec       q    Type
REMARK                         _______ _______ _______ _____ _____    ______ ____
ROOT
ATOM      1  C   UNL     1      -2.820  -2.586   0.139  0.00  0.00    +0.236 C 
ATOM      2  O   UNL     1      -3.423  -2.963  -0.843  0.00  0.00    -0.274 OA
ATOM      3  N   UNL     1      -3.408  -2.634   1.351  0.00  0.00    -0.295 N 
ATOM      4  C   UNL     1      -2.698  -2.176   2.556  0.00  0.00    +0.136 C 
ATOM      5  C   UNL     1      -2.799  -3.273   3.622  0.00  0.00    +0.179 C 
ATOM      6  O   UNL     1      -4.171  -3.638   3.793  0.00  0.00    -0.369 OA
ATOM      7  C   UNL     1      -4.779  -4.194   2.625  0.00  0.00    +0.168 C 
ATOM      8  C   UNL     1      -4.781  -3.140   1.507  0.00  0.00    +0.144 C 
ENDROOT
BRANCH   7   9
ATOM      9  C   UNL     1      -6.196  -4.598   2.939  0.00  0.00    +0.018 A 
ATOM     10  C   UNL     1      -6.882  -3.974   3.964  0.00  0.00    +0.009 A 
ATOM     11  C   UNL     1      -8.182  -4.343   4.252  0.00  0.00    +0.001 A 
ATOM     12  C   UNL     1      -8.799  -5.337   3.515  0.00  0.00    +0.003 A 
ATOM     13  C   UNL     1      -8.116  -5.962   2.489  0.00  0.00    +0.039 A 
ATOM     14  C   UNL     1      -6.815  -5.589   2.196  0.00  0.00    +0.129 A 
ATOM     15  F   UNL     1      -6.147  -6.196   1.191  0.00  0.00    -0.205 F 
ENDBRANCH   7   9
BRANCH   1  16
ATOM     16  C   UNL     1      -1.413  -2.063   0.004  0.00  0.00    +0.160 C 
BRANCH  16  17
ATOM     17  N   UNL     1      -0.834  -2.537  -1.256  0.00  0.00    -0.288 N 
ATOM     18  C   UNL     1      -1.415  -2.213  -2.428  0.00  0.00    +0.298 C 
ATOM     19  O   UNL     1      -2.419  -1.527  -2.439  0.00  0.00    -0.253 OA
ATOM     20  N   UNL     1      -0.883  -2.649  -3.587  0.00  0.00    -0.313 N 
ATOM     21  H   UNL     1      -0.033  -3.084  -1.246  0.00  0.00    +0.151 HD
ATOM     22  H   UNL     1      -0.082  -3.196  -3.577  0.00  0.00    +0.146 HD
ATOM     23  H   UNL     1      -1.301  -2.415  -4.430  0.00  0.00    +0.146 HD
ENDBRANCH  16  17
BRANCH  16  24
ATOM     24  C   UNL     1      -1.433  -0.534   0.013  0.00  0.00    +0.031 C 
BRANCH  24  26
ATOM     25  C   UNL     1      -0.019   1.526   0.010  0.00  0.00    +0.004 C 
ATOM     26  C   UNL     1       0.002  -0.004   0.002  0.00  0.00    -0.001 C 
ENDBRANCH  24  26
ENDBRANCH  16  24
ENDBRANCH   1  16
TORSDOF 5
