REMARK  Name = ZINC37190608
REMARK  5 active torsions:
REMARK  status: ('A' for Active; 'I' for Inactive)
REMARK    1  A    between atoms: C_3  and  N_19
REMARK    2  A    between atoms: C_4  and  S_7
REMARK    3  A    between atoms: S_7  and  C_8
REMARK    4  A    between atoms: C_8  and  C_9
REMARK    5  A    between atoms: C_11  and  C_14
REMARK                            x       y       z     vdW  Elec       q    Type
REMARK                         _______ _______ _______ _____ _____    ______ ____
ROOT
ATOM      1  C   UNL     1       3.236  -2.707  -0.044  0.00  0.00    +0.155 C 
ENDROOT
BRANCH   1   2
ATOM      2  C   UNL     1       4.430  -3.627  -0.061  0.00  0.00    +0.182 A 
ATOM      3  N   UNL     1       5.034  -4.089  -1.156  0.00  0.00    -0.188 NA
ATOM      4  C   UNL     1       6.043  -4.868  -0.819  0.00  0.00    +0.294 A 
ATOM      5  O   UNL     1       6.098  -4.915   0.525  0.00  0.00    -0.330 OA
ATOM      6  N   UNL     1       5.039  -4.094   0.993  0.00  0.00    -0.060 NA
BRANCH   4   7
ATOM      7  C   UNL     1       6.946  -5.562  -1.746  0.00  0.00    +0.192 A 
ATOM      8  C   UNL     1       7.986  -6.372  -1.395  0.00  0.00    +0.055 A 
ATOM      9  C   UNL     1       8.572  -6.818  -2.592  0.00  0.00    +0.042 A 
ATOM     10  C   UNL     1       7.872  -6.267  -3.606  0.00  0.00    +0.196 A 
ATOM     11  O   UNL     1       6.889  -5.514  -3.092  0.00  0.00    -0.458 OA
ENDBRANCH   4   7
ENDBRANCH   1   2
BRANCH   1  12
ATOM     12  S   UNL     1       3.802  -0.984  -0.040  0.00  0.00    -0.096 S 
BRANCH  12  16
ATOM     13  C   UNL     1      -0.017   1.375   0.010  0.00  0.00    +0.022 A 
ATOM     14  C   UNL     1       1.184   2.074   0.002  0.00  0.00    +0.027 A 
ATOM     15  C   UNL     1       2.369   1.351  -0.013  0.00  0.00    +0.057 A 
ATOM     16  C   UNL     1       2.310  -0.046  -0.020  0.00  0.00    +0.118 A 
ATOM     17  N   UNL     1       1.143  -0.669  -0.012  0.00  0.00    -0.247 NA
ATOM     18  C   UNL     1       0.002  -0.004   0.002  0.00  0.00    +0.112 A 
BRANCH  15  19
ATOM     19  N   UNL     1       3.604   2.011  -0.022  0.00  0.00    -0.356 N 
ATOM     20  H   UNL     1       3.636   2.980  -0.017  0.00  0.00    +0.142 HD
ATOM     21  H   UNL     1       4.427   1.498  -0.033  0.00  0.00    +0.142 HD
ENDBRANCH  15  19
ENDBRANCH  12  16
ENDBRANCH   1  12
TORSDOF 5
