REMARK  Name = ZINC37869144
REMARK  3 active torsions:
REMARK  status: ('A' for Active; 'I' for Inactive)
REMARK    1  A    between atoms: C_6  and  C_7
REMARK    2  A    between atoms: C_7  and  O_8
REMARK    3  A    between atoms: N_11  and  C_12
REMARK                            x       y       z     vdW  Elec       q    Type
REMARK                         _______ _______ _______ _____ _____    ______ ____
ROOT
ATOM      1  C   UNL     1      -0.018   1.531   0.014  0.00  0.00    +0.025 C 
ATOM      2  C   UNL     1       1.423   2.052   0.001  0.00  0.00    +0.109 C 
ATOM      3  N   UNL     1       2.128   1.465  -1.146  0.00  0.00    -0.286 N 
ATOM      4  C   UNL     1       2.128   0.004  -1.303  0.00  0.00    +0.109 C 
ATOM      5  C   UNL     1       0.679  -0.494  -1.277  0.00  0.00    +0.025 C 
ATOM      6  C   UNL     1      -0.003   0.001   0.001  0.00  0.00    +0.017 C 
ATOM      7  C   UNL     1       2.764   2.251  -2.037  0.00  0.00    +0.303 C 
ATOM      8  O   UNL     1       2.678   3.461  -1.950  0.00  0.00    -0.253 OA
ATOM      9  N   UNL     1       3.495   1.697  -3.024  0.00  0.00    -0.294 N 
ATOM     10  H   UNL     1       3.506   0.734  -3.137  0.00  0.00    +0.151 HD
ENDROOT
BRANCH   9  11
ATOM     11  C   UNL     1       4.273   2.549  -3.927  0.00  0.00    +0.037 C 
ATOM     12  C   UNL     1       3.332   3.509  -4.658  0.00  0.00    +0.029 C 
ATOM     13  C   UNL     1       4.144   4.399  -5.601  0.00  0.00    -0.008 C 
ATOM     14  C   UNL     1       4.876   3.526  -6.622  0.00  0.00    +0.007 C 
ATOM     15  C   UNL     1       5.817   2.566  -5.891  0.00  0.00    -0.008 C 
ATOM     16  C   UNL     1       5.005   1.676  -4.948  0.00  0.00    +0.029 C 
ATOM     17  C   UNL     1       6.837   3.369  -5.082  0.00  0.00    +0.007 C 
ATOM     18  C   UNL     1       6.105   4.242  -4.061  0.00  0.00    -0.008 C 
ATOM     19  C   UNL     1       5.165   5.202  -4.792  0.00  0.00    +0.007 C 
ATOM     20  C   UNL     1       5.293   3.352  -3.118  0.00  0.00    +0.029 C 
ENDBRANCH   9  11
BRANCH   6  21
ATOM     21  C   UNL     1      -1.439  -0.524   0.048  0.00  0.00    +0.159 C 
BRANCH  21  22
ATOM     22  O   UNL     1      -1.423  -1.949   0.154  0.00  0.00    -0.395 OA
ATOM     23  H   UNL     1      -2.302  -2.350   0.189  0.00  0.00    +0.209 HD
ENDBRANCH  21  22
ENDBRANCH   6  21
TORSDOF 3
