REMARK  Name = ZINC13498512
REMARK  10 active torsions:
REMARK  status: ('A' for Active; 'I' for Inactive)
REMARK    1  A    between atoms: C_1  and  C_2
REMARK    2  A    between atoms: C_7  and  C_14
REMARK    3  A    between atoms: C_14  and  N_72
REMARK    4  A    between atoms: C_15  and  N_72
REMARK    5  A    between atoms: C_21  and  C_23
REMARK    6  A    between atoms: C_21  and  C_33
REMARK    7  A    between atoms: C_21  and  N_72
REMARK    8  A    between atoms: N_27  and  C_28
REMARK    9  A    between atoms: C_33  and  C_34
REMARK   10  A    between atoms: C_33  and  C_35
REMARK                            x       y       z     vdW  Elec       q    Type
REMARK                         _______ _______ _______ _____ _____    ______ ____
ROOT
ATOM      1  N   UNL     1       2.935   3.272  -0.960  0.00  0.00    +0.391 N 
ATOM      2  H   UNL     1       3.677   2.694  -0.549  0.00  0.00    -0.080 HD
ENDROOT
BRANCH   1   3
ATOM      3  C   UNL     1       2.919   3.064  -2.423  0.00  0.00    -0.067 C 
ATOM      4  C   UNL     1       1.630   3.622  -3.030  0.00  0.00    -0.015 C 
ATOM      5  C   UNL     1       1.635   3.388  -4.542  0.00  0.00    -0.002 C 
ATOM      6  C   UNL     1       1.723   1.887  -4.825  0.00  0.00    -0.000 C 
ATOM      7  C   UNL     1       3.012   1.329  -4.218  0.00  0.00    -0.002 C 
ATOM      8  C   UNL     1       3.007   1.563  -2.706  0.00  0.00    -0.015 C 
ENDBRANCH   1   3
BRANCH   1   9
ATOM      9  C   UNL     1       3.208   4.692  -0.655  0.00  0.00    -0.036 C 
BRANCH   9  16
ATOM     10  C   UNL     1       9.982   6.950  -4.211  0.00  0.00    +0.044 C 
ATOM     11  C   UNL     1       8.595   6.613  -3.727  0.00  0.00    -0.048 A 
ATOM     12  C   UNL     1       7.495   6.943  -4.508  0.00  0.00    +0.004 A 
ATOM     13  C   UNL     1       6.230   6.646  -4.088  0.00  0.00    +0.010 A 
ATOM     14  C   UNL     1       6.040   6.005  -2.859  0.00  0.00    -0.001 A 
ATOM     15  C   UNL     1       4.699   5.666  -2.381  0.00  0.00    +0.017 A 
ATOM     16  C   UNL     1       4.575   5.049  -1.179  0.00  0.00    +0.001 A 
ATOM     17  C   UNL     1       5.723   4.735  -0.421  0.00  0.00    +0.251 A 
ATOM     18  O   UNL     1       5.591   4.176   0.654  0.00  0.00    -0.268 OA
ATOM     19  N   UNL     1       6.960   5.037  -0.854  0.00  0.00    -0.322 N 
ATOM     20  H   UNL     1       7.728   4.807  -0.308  0.00  0.00    +0.169 HD
ATOM     21  C   UNL     1       7.152   5.670  -2.064  0.00  0.00    +0.049 A 
ATOM     22  C   UNL     1       8.432   5.982  -2.513  0.00  0.00    +0.029 A 
ENDBRANCH   9  16
ENDBRANCH   1   9
BRANCH   1  23
ATOM     23  C   UNL     1       1.636   2.872  -0.378  0.00  0.00    +0.006 C 
BRANCH  23  24
ATOM     24  C   UNL     1       1.576   1.367  -0.321  0.00  0.00    +0.139 A 
ATOM     25  N   UNL     1       2.529   0.560   0.076  0.00  0.00    -0.115 NA
ATOM     26  N   UNL     1       2.094  -0.648  -0.021  0.00  0.00    -0.023 NA
ATOM     27  N   UNL     1       0.887  -0.633  -0.470  0.00  0.00    -0.044 NA
ATOM     28  N   UNL     1       0.532   0.591  -0.667  0.00  0.00    -0.228 N 
BRANCH  28  29
ATOM     29  C   UNL     1      -0.762   1.050  -1.177  0.00  0.00    +0.111 C 
ATOM     30  C   UNL     1      -1.899   0.545  -0.265  0.00  0.00    +0.027 C 
ATOM     31  C   UNL     1      -3.052   0.211  -1.246  0.00  0.00    +0.002 C 
ATOM     32  C   UNL     1      -2.304  -0.392  -2.461  0.00  0.00    +0.002 C 
ATOM     33  C   UNL     1      -1.020   0.455  -2.573  0.00  0.00    +0.027 C 
ENDBRANCH  28  29
ENDBRANCH  23  24
BRANCH  23  34
ATOM     34  C   UNL     1       1.521   3.442   1.037  0.00  0.00    -0.024 C 
ATOM     35  C   UNL     1       0.190   3.008   1.655  0.00  0.00    +0.006 C 
ATOM     36  C   UNL     1       2.676   2.917   1.893  0.00  0.00    +0.006 C 
ENDBRANCH  23  34
ENDBRANCH   1  23
TORSDOF 7
