REMARK  Name = ZINC09088562
REMARK  9 active torsions:
REMARK  status: ('A' for Active; 'I' for Inactive)
REMARK    1  A    between atoms: C_1  and  C_2
REMARK    2  A    between atoms: C_2  and  C_3
REMARK    3  A    between atoms: C_3  and  C_4
REMARK    4  A    between atoms: C_5  and  O_19
REMARK    5  A    between atoms: N_9  and  C_12
REMARK    6  A    between atoms: C_15  and  C_18
REMARK    7  A    between atoms: N_20  and  C_21
REMARK    8  A    between atoms: C_21  and  C_22
REMARK    9  A    between atoms: C_22  and  C_23
REMARK                            x       y       z     vdW  Elec       q    Type
REMARK                         _______ _______ _______ _____ _____    ______ ____
ROOT
ATOM      1  C   UNL     1      -4.664   3.597   5.942  0.00  0.00    +0.202 C 
ATOM      2  C   UNL     1      -3.882   3.710   7.180  0.00  0.00    +0.198 C 
ATOM      3  N   UNL     1      -2.627   3.289   7.174  0.00  0.00    -0.131 NA
ATOM      4  C   UNL     1      -2.063   2.767   6.089  0.00  0.00    +0.339 C 
ATOM      5  O   UNL     1      -0.904   2.397   6.163  0.00  0.00    -0.250 OA
ATOM      6  N   UNL     1      -2.698   2.631   4.916  0.00  0.00    -0.192 N 
ATOM      7  C   UNL     1      -3.984   3.016   4.771  0.00  0.00    +0.245 C 
ATOM      8  O   UNL     1      -4.563   2.888   3.708  0.00  0.00    -0.274 OA
ENDROOT
BRANCH   6   9
ATOM      9  C   UNL     1      -2.018   2.074   3.825  0.00  0.00    +0.045 A 
ATOM     10  C   UNL     1      -0.950   2.751   3.252  0.00  0.00    +0.024 A 
ATOM     11  C   UNL     1      -0.281   2.199   2.176  0.00  0.00    +0.005 A 
ATOM     12  C   UNL     1      -0.675   0.974   1.670  0.00  0.00    -0.050 A 
ATOM     13  C   UNL     1      -1.743   0.300   2.235  0.00  0.00    +0.005 A 
ATOM     14  C   UNL     1      -2.411   0.844   3.314  0.00  0.00    +0.024 A 
ATOM     15  C   UNL     1       0.056   0.375   0.496  0.00  0.00    +0.044 C 
ENDBRANCH   6   9
BRANCH   1  16
ATOM     16  C   UNL     1      -5.984   4.019   5.878  0.00  0.00    +0.034 C 
ATOM     17  N   UNL     1      -6.541   4.647   6.930  0.00  0.00    -0.291 NA
BRANCH  16  19
ATOM     18  C   UNL     1      -7.403   2.372   4.686  0.00  0.00    +0.010 C 
ATOM     19  C   UNL     1      -6.794   3.774   4.631  0.00  0.00    +0.048 C 
ENDBRANCH  16  19
BRANCH  17  20
ATOM     20  C   UNL     1      -7.935   5.093   6.863  0.00  0.00    +0.146 C 
BRANCH  20  21
ATOM     21  C   UNL     1      -8.318   5.772   8.179  0.00  0.00    +0.053 C 
BRANCH  21  22
ATOM     22  C   UNL     1      -9.752   6.231   8.110  0.00  0.00    -0.072 C 
ATOM     23  C   UNL     1     -10.664   5.446   8.588  0.00  0.00    -0.028 C 
ATOM     24  C   UNL     1     -12.130   5.763   8.586  0.00  0.00    +0.027 C 
ATOM     25  C   UNL     1     -12.349   7.257   8.338  0.00  0.00    +0.004 C 
ATOM     26  C   UNL     1     -11.516   7.673   7.119  0.00  0.00    +0.005 C 
ATOM     27  C   UNL     1     -10.034   7.566   7.485  0.00  0.00    +0.030 C 
ENDBRANCH  21  22
ENDBRANCH  20  21
ENDBRANCH  17  20
ENDBRANCH   1  16
BRANCH   2  28
ATOM     28  O   UNL     1      -4.430   4.231   8.298  0.00  0.00    -0.496 OA
ATOM     29  H   UNL     1      -3.828   4.259   9.055  0.00  0.00    +0.293 HD
ENDBRANCH   2  28
TORSDOF 7
