REMARK  Name = ZINC30058431
REMARK  11 active torsions:
REMARK  status: ('A' for Active; 'I' for Inactive)
REMARK    1  A    between atoms: C_1  and  O_2
REMARK    2  A    between atoms: O_2  and  C_3
REMARK    3  A    between atoms: C_6  and  C_11
REMARK    4  A    between atoms: C_8  and  O_9
REMARK    5  A    between atoms: O_9  and  C_10
REMARK    6  A    between atoms: N_13  and  N_14
REMARK    7  A    between atoms: C_15  and  C_17
REMARK    8  A    between atoms: C_17  and  C_18
REMARK    9  A    between atoms: C_18  and  S_19
REMARK   10  A    between atoms: S_19  and  C_20
REMARK   11  A    between atoms: C_20  and  C_21
REMARK                            x       y       z     vdW  Elec       q    Type
REMARK                         _______ _______ _______ _____ _____    ______ ____
ROOT
ATOM      1  N   UNL     1      -7.341  -2.541   0.054  0.00  0.00    -0.234 N 
ATOM      2  C   UNL     1      -8.480  -1.819   0.063  0.00  0.00    +0.230 C 
ATOM      3  O   UNL     1      -8.429  -0.608   0.064  0.00  0.00    -0.274 OA
ATOM      4  H   UNL     1      -7.382  -3.510   0.053  0.00  0.00    +0.173 HD
ENDROOT
BRANCH   1   7
ATOM      5  C   UNL     1      -4.962  -2.613   0.035  0.00  0.00    +0.260 C 
ATOM      6  O   UNL     1      -5.012  -3.828   0.034  0.00  0.00    -0.269 OA
ATOM      7  N   UNL     1      -6.100  -1.891   0.045  0.00  0.00    -0.230 N 
ATOM      8  H   UNL     1      -6.060  -0.922   0.046  0.00  0.00    +0.173 HD
BRANCH   5  12
ATOM      9  C   UNL     1      -1.199  -0.637   0.010  0.00  0.00    +0.162 A 
ATOM     10  C   UNL     1      -2.373   0.105   0.019  0.00  0.00    +0.050 A 
ATOM     11  C   UNL     1      -3.595  -0.533   0.027  0.00  0.00    +0.017 A 
ATOM     12  C   UNL     1      -3.654  -1.929   0.026  0.00  0.00    +0.042 A 
ATOM     13  C   UNL     1      -2.473  -2.675   0.017  0.00  0.00    +0.062 A 
ATOM     14  C   UNL     1      -1.252  -2.030   0.003  0.00  0.00    +0.162 A 
BRANCH   9  16
ATOM     15  C   UNL     1      -0.017   1.425   0.010  0.00  0.00    +0.277 C 
ATOM     16  O   UNL     1       0.002  -0.004   0.002  0.00  0.00    -0.491 OA
ENDBRANCH   9  16
BRANCH  14  17
ATOM     17  O   UNL     1      -0.100  -2.754  -0.012  0.00  0.00    -0.491 OA
ATOM     18  C   UNL     1      -0.229  -4.177  -0.018  0.00  0.00    +0.277 C 
ENDBRANCH  14  17
ENDBRANCH   5  12
ENDBRANCH   1   7
BRANCH   2  19
ATOM     19  C   UNL     1      -9.815  -2.518   0.073  0.00  0.00    +0.108 C 
BRANCH  19  20
ATOM     20  C   UNL     1     -10.935  -1.476   0.083  0.00  0.00    +0.079 C 
BRANCH  20  21
ATOM     21  S   UNL     1     -12.543  -2.318   0.094  0.00  0.00    -0.153 S 
BRANCH  21  22
ATOM     22  C   UNL     1     -13.748  -0.962   0.105  0.00  0.00    +0.143 C 
BRANCH  22  23
ATOM     23  C   UNL     1     -15.143  -1.530   0.115  0.00  0.00    +0.121 A 
ATOM     24  N   UNL     1     -16.206  -0.685   0.118  0.00  0.00    -0.310 N 
ATOM     25  H   UNL     1     -16.053   0.272   0.114  0.00  0.00    +0.170 HD
ATOM     26  C   UNL     1     -17.470  -1.151   0.128  0.00  0.00    +0.260 A 
ATOM     27  O   UNL     1     -18.415  -0.381   0.131  0.00  0.00    -0.267 OA
ATOM     28  C   UNL     1     -17.683  -2.567   0.134  0.00  0.00    +0.075 A 
ATOM     29  C   UNL     1     -18.963  -3.292   0.143  0.00  0.00    -0.023 A 
ATOM     30  C   UNL     1     -18.900  -4.635   0.149  0.00  0.00    -0.004 A 
ATOM     31  S   UNL     1     -17.163  -5.014   0.138  0.00  0.00    -0.073 S 
ATOM     32  C   UNL     1     -16.527  -3.359   0.129  0.00  0.00    +0.116 A 
ATOM     33  N   UNL     1     -15.308  -2.826   0.115  0.00  0.00    -0.226 NA
ATOM     34  C   UNL     1     -20.266  -5.267   0.164  0.00  0.00    +0.043 C 
ATOM     35  C   UNL     1     -21.215  -4.130   0.603  0.00  0.00    +0.010 C 
ATOM     36  C   UNL     1     -20.437  -2.879   0.146  0.00  0.00    +0.037 C 
ENDBRANCH  22  23
ENDBRANCH  21  22
ENDBRANCH  20  21
ENDBRANCH  19  20
ENDBRANCH   2  19
TORSDOF 9
