REMARK  Name = ZINC00929649
REMARK  8 active torsions:
REMARK  status: ('A' for Active; 'I' for Inactive)
REMARK    1  A    between atoms: C_1  and  C_2
REMARK    2  A    between atoms: C_14  and  S_18
REMARK    3  A    between atoms: S_18  and  C_19
REMARK    4  A    between atoms: C_19  and  C_20
REMARK    5  A    between atoms: N_22  and  C_23
REMARK    6  A    between atoms: C_23  and  C_24
REMARK    7  A    between atoms: C_23  and  C_25
REMARK    8  A    between atoms: C_23  and  C_26
REMARK                            x       y       z     vdW  Elec       q    Type
REMARK                         _______ _______ _______ _____ _____    ______ ____
ROOT
ATOM      1  C   UNL     1      -0.019   1.526   0.010  0.00  0.00    +0.008 C 
ATOM      2  C   UNL     1       0.002  -0.004   0.002  0.00  0.00    -0.009 C 
ATOM      3  C   UNL     1       0.742  -0.515   1.242  0.00  0.00    +0.008 C 
ATOM      4  C   UNL     1       0.986  -2.019   1.120  0.00  0.00    +0.037 C 
ATOM      5  C   UNL     1      -0.342  -2.711   0.821  0.00  0.00    -0.024 A 
ATOM      6  C   UNL     1      -1.389  -2.004   0.338  0.00  0.00    -0.004 A 
ATOM      7  S   UNL     1      -2.685  -3.199   0.148  0.00  0.00    -0.073 S 
ATOM      8  C   UNL     1      -1.792  -4.623   0.722  0.00  0.00    +0.114 A 
ATOM      9  C   UNL     1      -0.528  -4.100   1.034  0.00  0.00    +0.056 A 
ATOM     10  C   UNL     1       0.444  -5.090   1.549  0.00  0.00    +0.173 A 
ATOM     11  N   UNL     1       1.690  -5.023   1.944  0.00  0.00    -0.128 NA
ATOM     12  N   UNL     1       2.093  -6.191   2.309  0.00  0.00    -0.122 NA
ATOM     13  C   UNL     1       1.128  -7.070   2.166  0.00  0.00    +0.198 A 
ATOM     14  N   UNL     1       0.040  -6.402   1.676  0.00  0.00    -0.260 N 
ATOM     15  C   UNL     1      -1.227  -6.774   1.333  0.00  0.00    +0.208 A 
ATOM     16  N   UNL     1      -2.089  -5.910   0.878  0.00  0.00    -0.230 NA
ATOM     17  C   UNL     1      -1.437  -0.539   0.033  0.00  0.00    +0.046 C 
ENDROOT
BRANCH  13  18
ATOM     18  S   UNL     1       1.217  -8.790   2.539  0.00  0.00    -0.076 S 
BRANCH  18  19
ATOM     19  C   UNL     1       2.913  -9.021   3.142  0.00  0.00    +0.173 C 
BRANCH  19  20
ATOM     20  C   UNL     1       3.125 -10.469   3.500  0.00  0.00    +0.224 C 
ATOM     21  O   UNL     1       2.222 -11.267   3.363  0.00  0.00    -0.275 OA
ATOM     22  N   UNL     1       4.319 -10.877   3.974  0.00  0.00    -0.310 N 
ATOM     23  H   UNL     1       5.041 -10.239   4.084  0.00  0.00    +0.149 HD
BRANCH  22  24
ATOM     24  C   UNL     1       4.526 -12.285   4.323  0.00  0.00    +0.026 C 
ATOM     25  C   UNL     1       4.303 -13.155   3.084  0.00  0.00    +0.031 C 
ATOM     26  C   UNL     1       5.956 -12.480   4.831  0.00  0.00    +0.031 C 
ATOM     27  C   UNL     1       3.536 -12.691   5.417  0.00  0.00    +0.031 C 
ENDBRANCH  22  24
ENDBRANCH  19  20
ENDBRANCH  18  19
ENDBRANCH  13  18
TORSDOF 4
