REMARK  Name = ZINC41350506
REMARK  8 active torsions:
REMARK  status: ('A' for Active; 'I' for Inactive)
REMARK    1  A    between atoms: C_1  and  C_2
REMARK    2  A    between atoms: C_6  and  C_9
REMARK    3  A    between atoms: C_10  and  C_15
REMARK    4  A    between atoms: C_15  and  N_16
REMARK    5  A    between atoms: C_17  and  C_19
REMARK    6  A    between atoms: C_19  and  C_21
REMARK    7  A    between atoms: C_19  and  O_22
REMARK    8  A    between atoms: O_22  and  C_23
REMARK                            x       y       z     vdW  Elec       q    Type
REMARK                         _______ _______ _______ _____ _____    ______ ____
ROOT
ATOM      1  N   UNL     1       1.698  -6.418   0.995  0.00  0.00    -0.308 N 
ATOM      2  C   UNL     1       1.927  -7.254   2.027  0.00  0.00    +0.254 C 
ATOM      3  O   UNL     1       1.004  -7.631   2.718  0.00  0.00    -0.272 OA
ATOM      4  H   UNL     1       2.437  -6.117   0.443  0.00  0.00    +0.149 HD
ENDROOT
BRANCH   2   5
ATOM      5  C   UNL     1       3.329  -7.721   2.323  0.00  0.00    +0.256 C 
ATOM      6  C   UNL     1       3.838  -8.576   1.161  0.00  0.00    +0.062 C 
BRANCH   5   7
ATOM      7  O   UNL     1       3.329  -8.498   3.523  0.00  0.00    -0.474 OA
BRANCH   7   8
ATOM      8  C   UNL     1       4.463  -8.474   4.274  0.00  0.00    +0.198 A 
ATOM      9  C   UNL     1       5.469  -9.402   4.042  0.00  0.00    +0.206 A 
ATOM     10  C   UNL     1       6.624  -9.377   4.806  0.00  0.00    +0.200 A 
ATOM     11  C   UNL     1       6.775  -8.426   5.803  0.00  0.00    +0.199 A 
ATOM     12  C   UNL     1       5.772  -7.499   6.036  0.00  0.00    +0.200 A 
ATOM     13  C   UNL     1       4.618  -7.519   5.268  0.00  0.00    +0.206 A 
ATOM     14  F   UNL     1       3.643  -6.612   5.492  0.00  0.00    -0.198 F 
ATOM     15  F   UNL     1       5.920  -6.573   7.008  0.00  0.00    -0.199 F 
ATOM     16  F   UNL     1       7.902  -8.402   6.548  0.00  0.00    -0.199 F 
ATOM     17  F   UNL     1       7.603 -10.280   4.581  0.00  0.00    -0.199 F 
ATOM     18  F   UNL     1       5.322 -10.330   3.071  0.00  0.00    -0.198 F 
ENDBRANCH   7   8
ENDBRANCH   5   7
ENDBRANCH   2   5
BRANCH   1  19
ATOM     19  C   UNL     1       0.335  -5.965   0.708  0.00  0.00    +0.140 C 
BRANCH  19  29
ATOM     20  C   UNL     1      -4.070  -1.824  -2.079  0.00  0.00    +0.045 C 
ATOM     21  C   UNL     1      -2.918  -2.715  -1.690  0.00  0.00    -0.028 A 
ATOM     22  C   UNL     1      -1.846  -2.856  -2.545  0.00  0.00    +0.051 A 
ATOM     23  C   UNL     1      -0.781  -3.676  -2.193  0.00  0.00    +0.140 A 
ATOM     24  C   UNL     1      -0.809  -4.355  -0.963  0.00  0.00    +0.027 A 
ATOM     25  C   UNL     1      -1.903  -4.203  -0.105  0.00  0.00    -0.021 A 
ATOM     26  C   UNL     1      -2.945  -3.380  -0.472  0.00  0.00    +0.048 A 
ATOM     27 CL   UNL     1      -4.303  -3.180   0.592  0.00  0.00    -0.083 Cl
ATOM     28  C   UNL     1      -1.937  -4.928   1.215  0.00  0.00    +0.046 C 
ATOM     29  C   UNL     1       0.320  -5.217  -0.601  0.00  0.00    -0.013 A 
ATOM     30  C   UNL     1       1.351  -5.324  -1.476  0.00  0.00    +0.097 A 
ATOM     31  C   UNL     1       1.313  -4.613  -2.696  0.00  0.00    +0.338 A 
ATOM     32  O   UNL     1       2.245  -4.717  -3.473  0.00  0.00    -0.245 OA
ATOM     33  O   UNL     1       0.276  -3.825  -3.020  0.00  0.00    -0.422 OA
ENDBRANCH  19  29
ENDBRANCH   1  19
TORSDOF 5
