REMARK  Name = ZINC41101902
REMARK  4 active torsions:
REMARK  status: ('A' for Active; 'I' for Inactive)
REMARK    1  A    between atoms: C_4  and  C_7
REMARK    2  A    between atoms: C_5  and  N_6
REMARK    3  A    between atoms: C_7  and  O_9
REMARK    4  A    between atoms: O_9  and  C_10
REMARK                            x       y       z     vdW  Elec       q    Type
REMARK                         _______ _______ _______ _____ _____    ______ ____
ROOT
ATOM      1  C   UNL     1       1.625  -1.953  -0.025  0.00  0.00    +0.348 C 
ATOM      2  O   UNL     1       0.756  -2.806  -0.021  0.00  0.00    -0.244 OA
ENDROOT
BRANCH   1   6
ATOM      3  C   UNL     1      -0.017   1.377   0.010  0.00  0.00    +0.031 A 
ATOM      4  C   UNL     1       1.157   2.051   0.002  0.00  0.00    +0.048 A 
ATOM      5  S   UNL     1       2.330   0.849  -0.016  0.00  0.00    -0.088 S 
ATOM      6  C   UNL     1       1.272  -0.585  -0.013  0.00  0.00    +0.117 A 
ATOM      7  C   UNL     1       0.002  -0.004   0.002  0.00  0.00    +0.046 A 
BRANCH   7   8
ATOM      8  N   UNL     1      -1.164  -0.764   0.009  0.00  0.00    -0.357 N 
ATOM      9  H   UNL     1      -2.029  -0.325   0.020  0.00  0.00    +0.142 HD
ATOM     10  H   UNL     1      -1.111  -1.732   0.004  0.00  0.00    +0.142 HD
ENDBRANCH   7   8
ENDBRANCH   1   6
BRANCH   1  11
ATOM     11  O   UNL     1       2.926  -2.313  -0.039  0.00  0.00    -0.448 OA
BRANCH  11  12
ATOM     12  C   UNL     1       3.210  -3.714  -0.050  0.00  0.00    +0.262 C 
ATOM     13  C   UNL     1       4.534  -3.964  -0.777  0.00  0.00    +0.054 C 
ATOM     14  C   UNL     1       5.511  -2.831  -0.519  0.00  0.00    +0.006 C 
ATOM     15  C   UNL     1       5.979  -2.741   0.922  0.00  0.00    +0.019 C 
ATOM     16  C   UNL     1       4.825  -2.346   1.846  0.00  0.00    +0.104 C 
ATOM     17  N   UNL     1       4.104  -3.565   2.248  0.00  0.00    -0.312 N 
ATOM     18  C   UNL     1       3.335  -4.219   1.372  0.00  0.00    +0.254 C 
ATOM     19  O   UNL     1       2.740  -5.220   1.712  0.00  0.00    -0.272 OA
ATOM     20  H   UNL     1       4.186  -3.896   3.156  0.00  0.00    +0.149 HD
ENDBRANCH  11  12
ENDBRANCH   1  11
TORSDOF 4
