REMARK  Name = ZINC01055491
REMARK  10 active torsions:
REMARK  status: ('A' for Active; 'I' for Inactive)
REMARK    1  A    between atoms: C_1  and  C_2
REMARK    2  A    between atoms: C_3  and  C_31
REMARK    3  A    between atoms: C_5  and  N_18
REMARK    4  A    between atoms: C_6  and  C_7
REMARK    5  A    between atoms: N_9  and  C_10
REMARK    6  A    between atoms: C_15  and  O_16
REMARK    7  A    between atoms: O_16  and  C_17
REMARK    8  A    between atoms: C_19  and  C_21
REMARK    9  A    between atoms: C_21  and  C_22
REMARK   10  A    between atoms: C_25  and  N_28
REMARK                            x       y       z     vdW  Elec       q    Type
REMARK                         _______ _______ _______ _____ _____    ______ ____
ROOT
ATOM      1  C   UNL     1      -0.018   1.090   0.036  0.00  0.00    +0.045 C 
ATOM      2  C   UNL     1      -0.734   1.578   1.269  0.00  0.00    -0.027 A 
ATOM      3  C   UNL     1      -0.072   1.817   2.415  0.00  0.00    -0.008 A 
ATOM      4  S   UNL     1      -1.355   2.358   3.525  0.00  0.00    -0.078 S 
ATOM      5  C   UNL     1      -2.718   2.256   2.461  0.00  0.00    +0.084 A 
ATOM      6  C   UNL     1      -2.158   1.813   1.269  0.00  0.00    +0.069 A 
ATOM      7  C   UNL     1       1.401   1.664   2.694  0.00  0.00    +0.052 C 
ENDROOT
BRANCH   6   8
ATOM      8  C   UNL     1      -2.974   1.589   0.072  0.00  0.00    +0.251 C 
ATOM      9  O   UNL     1      -3.478   0.499  -0.127  0.00  0.00    -0.270 OA
ATOM     10  N   UNL     1      -3.167   2.591  -0.809  0.00  0.00    -0.278 N 
ATOM     11  H   UNL     1      -2.820   3.477  -0.619  0.00  0.00    +0.155 HD
BRANCH  10  12
ATOM     12  C   UNL     1      -3.868   2.353  -1.998  0.00  0.00    +0.076 A 
ATOM     13  C   UNL     1      -4.923   1.453  -2.015  0.00  0.00    +0.027 A 
ATOM     14  C   UNL     1      -5.616   1.223  -3.189  0.00  0.00    +0.002 A 
ATOM     15  C   UNL     1      -5.253   1.881  -4.350  0.00  0.00    +0.004 A 
ATOM     16  C   UNL     1      -4.200   2.776  -4.341  0.00  0.00    +0.047 A 
ATOM     17  C   UNL     1      -3.503   3.016  -3.168  0.00  0.00    +0.141 A 
BRANCH  17  18
ATOM     18  O   UNL     1      -2.466   3.896  -3.159  0.00  0.00    -0.493 OA
ATOM     19  C   UNL     1      -2.149   4.538  -4.395  0.00  0.00    +0.277 C 
ENDBRANCH  17  18
ENDBRANCH  10  12
ENDBRANCH   6   8
BRANCH   5  20
ATOM     20  N   UNL     1      -4.046   2.551   2.732  0.00  0.00    -0.279 N 
ATOM     21  C   UNL     1      -4.405   2.980   3.958  0.00  0.00    +0.222 C 
ATOM     22  O   UNL     1      -3.566   3.107   4.825  0.00  0.00    -0.275 OA
ATOM     23  H   UNL     1      -4.716   2.449   2.038  0.00  0.00    +0.155 HD
BRANCH  21  24
ATOM     24  C   UNL     1      -5.847   3.300   4.252  0.00  0.00    +0.131 C 
BRANCH  24  25
ATOM     25  C   UNL     1      -5.980   3.754   5.683  0.00  0.00    -0.038 A 
ATOM     26  C   UNL     1      -6.228   2.830   6.681  0.00  0.00    +0.006 A 
ATOM     27  C   UNL     1      -6.345   3.246   7.994  0.00  0.00    +0.033 A 
ATOM     28  C   UNL     1      -6.223   4.587   8.308  0.00  0.00    +0.126 A 
ATOM     29  C   UNL     1      -5.980   5.511   7.310  0.00  0.00    +0.033 A 
ATOM     30  C   UNL     1      -5.859   5.095   5.997  0.00  0.00    +0.006 A 
BRANCH  28  31
ATOM     31  N   UNL     1      -6.353   5.032   9.714  0.00  0.00    +0.056 N 
ATOM     32  O   UNL     1      -6.245   6.214   9.991  0.00  0.00    -0.126 OA
ATOM     33  O   UNL     1      -6.567   4.218  10.594  0.00  0.00    -0.126 OA
ENDBRANCH  28  31
ENDBRANCH  24  25
ENDBRANCH  21  24
ENDBRANCH   5  20
TORSDOF 7
