REMARK  Name = ZINC21122909
REMARK  11 active torsions:
REMARK  status: ('A' for Active; 'I' for Inactive)
REMARK    1  A    between atoms: C_1  and  C_2
REMARK    2  A    between atoms: C_2  and  C_3
REMARK    3  A    between atoms: C_3  and  C_4
REMARK    4  A    between atoms: C_4  and  O_5
REMARK    5  A    between atoms: O_5  and  C_6
REMARK    6  A    between atoms: C_6  and  C_8
REMARK    7  A    between atoms: C_11  and  N_14
REMARK    8  A    between atoms: C_18  and  N_22
REMARK    9  A    between atoms: C_27  and  C_29
REMARK   10  A    between atoms: C_29  and  C_30
REMARK   11  A    between atoms: C_30  and  O_31
REMARK                            x       y       z     vdW  Elec       q    Type
REMARK                         _______ _______ _______ _____ _____    ______ ____
ROOT
ATOM      1  N   UNL     1      -0.706  -1.976  -0.536  0.00  0.00    -0.212 N 
ATOM      2  C   UNL     1      -0.375  -3.093   0.124  0.00  0.00    +0.225 C 
ATOM      3  O   UNL     1      -0.715  -4.215  -0.181  0.00  0.00    -0.275 OA
ATOM      4  C   UNL     1       0.489  -2.731   1.312  0.00  0.00    +0.091 C 
ATOM      5  C   UNL     1       0.602  -1.196   1.223  0.00  0.00    +0.029 C 
ATOM      6  C   UNL     1      -0.210  -0.851  -0.006  0.00  0.00    +0.213 C 
ATOM      7  O   UNL     1      -0.384   0.267  -0.442  0.00  0.00    -0.277 OA
ENDROOT
BRANCH   5   8
ATOM      8  N   UNL     1       0.026  -0.565   2.418  0.00  0.00    +0.390 N 
ATOM      9  C   UNL     1      -1.391  -0.922   2.570  0.00  0.00    -0.077 C 
ATOM     10  C   UNL     1      -1.994  -0.135   3.736  0.00  0.00    -0.019 C 
ATOM     11  C   UNL     1      -1.225  -0.463   5.018  0.00  0.00    -0.003 C 
ATOM     12  C   UNL     1       0.255  -0.126   4.817  0.00  0.00    -0.015 C 
ATOM     13  C   UNL     1       0.793  -0.913   3.620  0.00  0.00    -0.065 C 
ATOM     14  H   UNL     1       0.084   0.526   2.287  0.00  0.00    -0.080 HD
BRANCH  13  15
ATOM     15  C   UNL     1       2.267  -0.565   3.402  0.00  0.00    +0.013 C 
BRANCH  15  16
ATOM     16  C   UNL     1       3.078  -0.988   4.629  0.00  0.00    +0.154 C 
BRANCH  16  17
ATOM     17  O   UNL     1       4.469  -0.784   4.374  0.00  0.00    -0.395 OA
ATOM     18  H   UNL     1       5.212  -1.033   5.147  0.00  0.00    +0.209 HD
ENDBRANCH  16  17
ENDBRANCH  15  16
ENDBRANCH  13  15
ENDBRANCH   5   8
BRANCH   1  22
ATOM     19  C   UNL     1      -3.082  -2.001  -3.962  0.00  0.00    +0.059 A 
ATOM     20  C   UNL     1      -1.806  -2.570  -3.990  0.00  0.00    +0.017 A 
ATOM     21  C   UNL     1      -1.024  -2.560  -2.857  0.00  0.00    +0.025 A 
ATOM     22  C   UNL     1      -1.502  -1.984  -1.685  0.00  0.00    +0.044 A 
ATOM     23  C   UNL     1      -2.773  -1.421  -1.651  0.00  0.00    +0.025 A 
ATOM     24  C   UNL     1      -3.559  -1.422  -2.782  0.00  0.00    +0.017 A 
BRANCH  19  25
ATOM     25  C   UNL     1      -3.923  -2.009  -5.174  0.00  0.00    +0.339 C 
ATOM     26  O   UNL     1      -3.506  -2.511  -6.198  0.00  0.00    -0.245 OA
BRANCH  25  27
ATOM     27  O   UNL     1      -5.152  -1.459  -5.144  0.00  0.00    -0.461 OA
BRANCH  27  28
ATOM     28  C   UNL     1      -5.924  -1.504  -6.374  0.00  0.00    +0.232 C 
BRANCH  28  29
ATOM     29  C   UNL     1      -7.282  -0.836  -6.148  0.00  0.00    +0.041 C 
BRANCH  29  31
ATOM     30  C   UNL     1      -9.453  -0.215  -7.218  0.00  0.00    +0.004 C 
ATOM     31  C   UNL     1      -8.095  -0.883  -7.443  0.00  0.00    -0.000 C 
ENDBRANCH  29  31
ENDBRANCH  28  29
ENDBRANCH  27  28
ENDBRANCH  25  27
ENDBRANCH  19  25
ENDBRANCH   1  22
TORSDOF 10
