REMARK  Name = ZINC15222115
REMARK  7 active torsions:
REMARK  status: ('A' for Active; 'I' for Inactive)
REMARK    1  A    between atoms: C_1  and  C_2
REMARK    2  A    between atoms: C_8  and  C_16
REMARK    3  A    between atoms: C_16  and  O_18
REMARK    4  A    between atoms: O_18  and  C_19
REMARK    5  A    between atoms: C_19  and  C_20
REMARK    6  A    between atoms: N_22  and  N_23
REMARK    7  A    between atoms: C_29  and  C_32
REMARK                            x       y       z     vdW  Elec       q    Type
REMARK                         _______ _______ _______ _____ _____    ______ ____
ROOT
ATOM      1  C   UNL     1       2.633  -0.770   5.232  0.00  0.00    +0.329 C 
ENDROOT
BRANCH   1   2
ATOM      2  C   UNL     1       4.024  -0.252   5.491  0.00  0.00    +0.267 C 
ATOM      3  O   UNL     1       4.903  -0.443   4.677  0.00  0.00    -0.271 OA
ATOM      4  N   UNL     1       4.292   0.422   6.627  0.00  0.00    -0.221 N 
ATOM      5  H   UNL     1       3.589   0.574   7.278  0.00  0.00    +0.174 HD
BRANCH   4   6
ATOM      6  N   UNL     1       5.586   0.903   6.867  0.00  0.00    -0.137 N 
ATOM      7  C   UNL     1       6.453   0.344   7.736  0.00  0.00    +0.263 C 
ATOM      8  O   UNL     1       6.269  -0.632   8.431  0.00  0.00    -0.271 OA
ATOM      9  C   UNL     1       7.702   1.192   7.661  0.00  0.00    +0.114 C 
ATOM     10  C   UNL     1       7.998   1.824   9.017  0.00  0.00    +0.035 C 
ATOM     11  C   UNL     1       8.298   0.724  10.039  0.00  0.00    +0.006 C 
ATOM     12  C   UNL     1       9.500  -0.096   9.566  0.00  0.00    -0.014 C 
ATOM     13  C   UNL     1       9.182  -0.740   8.215  0.00  0.00    +0.006 C 
ATOM     14  C   UNL     1       8.885   0.354   7.187  0.00  0.00    +0.035 C 
ATOM     15  C   UNL     1       9.807  -1.188  10.592  0.00  0.00    +0.007 C 
ATOM     16  N   UNL     1       7.373   2.226   6.672  0.00  0.00    -0.284 N 
ATOM     17  C   UNL     1       6.116   1.972   6.260  0.00  0.00    +0.326 C 
ATOM     18  O   UNL     1       5.528   2.639   5.431  0.00  0.00    -0.251 OA
ATOM     19  H   UNL     1       7.948   2.947   6.371  0.00  0.00    +0.151 HD
ENDBRANCH   4   6
ENDBRANCH   1   2
BRANCH   1  20
ATOM     20  O   UNL     1       2.603  -1.445   3.973  0.00  0.00    -0.452 OA
BRANCH  20  21
ATOM     21  C   UNL     1       1.423  -1.971   3.589  0.00  0.00    +0.341 C 
ATOM     22  O   UNL     1       0.447  -1.859   4.304  0.00  0.00    -0.245 OA
BRANCH  21  29
ATOM     23  C   UNL     1      -0.019   1.526   0.010  0.00  0.00    +0.008 C 
ATOM     24  C   UNL     1       0.002  -0.004   0.002  0.00  0.00    -0.009 C 
ATOM     25  C   UNL     1       0.730  -0.504  -1.251  0.00  0.00    +0.010 C 
ATOM     26  C   UNL     1       0.521  -2.012  -1.363  0.00  0.00    +0.056 C 
ATOM     27  C   UNL     1       0.886  -2.696  -0.068  0.00  0.00    +0.046 A 
ATOM     28  C   UNL     1       0.984  -2.000   1.130  0.00  0.00    -0.011 A 
ATOM     29  C   UNL     1       1.316  -2.683   2.299  0.00  0.00    +0.073 A 
ATOM     30  C   UNL     1       1.550  -4.077   2.217  0.00  0.00    +0.015 A 
ATOM     31  C   UNL     1       1.890  -4.833   3.346  0.00  0.00    +0.011 A 
ATOM     32  C   UNL     1       2.107  -6.172   3.220  0.00  0.00    +0.001 A 
ATOM     33  C   UNL     1       1.997  -6.800   1.981  0.00  0.00    +0.002 A 
ATOM     34  C   UNL     1       1.668  -6.096   0.864  0.00  0.00    +0.028 A 
ATOM     35  C   UNL     1       1.435  -4.711   0.955  0.00  0.00    +0.072 A 
ATOM     36  N   UNL     1       1.109  -3.994  -0.119  0.00  0.00    -0.251 NA
ATOM     37  C   UNL     1       0.751  -0.515   1.231  0.00  0.00    +0.041 C 
ENDBRANCH  21  29
ENDBRANCH  20  21
ENDBRANCH   1  20
TORSDOF 5
