REMARK  Name = ZINC13553105
REMARK  14 active torsions:
REMARK  status: ('A' for Active; 'I' for Inactive)
REMARK    1  A    between atoms: C_1  and  C_2
REMARK    2  A    between atoms: C_2  and  C_30
REMARK    3  A    between atoms: N_3  and  N_4
REMARK    4  A    between atoms: C_5  and  C_7
REMARK    5  A    between atoms: C_7  and  S_8
REMARK    6  A    between atoms: S_8  and  C_9
REMARK    7  A    between atoms: C_12  and  C_20
REMARK    8  A    between atoms: N_13  and  C_14
REMARK    9  A    between atoms: C_23  and  C_26
REMARK   10  A    between atoms: C_26  and  C_27
REMARK   11  A    between atoms: C_26  and  C_28
REMARK   12  A    between atoms: C_26  and  C_29
REMARK   13  A    between atoms: C_33  and  O_36
REMARK   14  A    between atoms: O_36  and  C_37
REMARK                            x       y       z     vdW  Elec       q    Type
REMARK                         _______ _______ _______ _____ _____    ______ ____
ROOT
ATOM      1  C   UNL     1      -4.168   0.875  -3.754  0.00  0.00    +0.197 A 
ATOM      2  N   UNL     1      -4.225  -0.410  -3.488  0.00  0.00    -0.122 NA
ATOM      3  N   UNL     1      -5.276  -0.926  -4.018  0.00  0.00    -0.128 NA
ATOM      4  C   UNL     1      -5.956  -0.003  -4.657  0.00  0.00    +0.169 A 
ATOM      5  N   UNL     1      -5.271   1.183  -4.504  0.00  0.00    -0.270 N 
ENDROOT
BRANCH   5   6
ATOM      6  C   UNL     1      -5.627   2.439  -5.011  0.00  0.00    +0.051 A 
ATOM      7  C   UNL     1      -6.783   3.067  -4.566  0.00  0.00    +0.026 A 
ATOM      8  C   UNL     1      -7.129   4.308  -5.064  0.00  0.00    +0.002 A 
ATOM      9  C   UNL     1      -6.331   4.920  -6.013  0.00  0.00    +0.000 A 
ATOM     10  C   UNL     1      -5.183   4.295  -6.463  0.00  0.00    +0.002 A 
ATOM     11  C   UNL     1      -4.829   3.057  -5.964  0.00  0.00    +0.026 A 
ENDBRANCH   5   6
BRANCH   4  12
ATOM     12  C   UNL     1      -7.221  -0.197  -5.396  0.00  0.00    +0.020 A 
ATOM     13  C   UNL     1      -7.676   0.785  -6.277  0.00  0.00    +0.012 A 
ATOM     14  C   UNL     1      -8.856   0.595  -6.968  0.00  0.00    +0.005 A 
ATOM     15  C   UNL     1      -9.592  -0.561  -6.780  0.00  0.00    -0.042 A 
ATOM     16  C   UNL     1      -9.149  -1.536  -5.904  0.00  0.00    +0.005 A 
ATOM     17  C   UNL     1      -7.969  -1.361  -5.211  0.00  0.00    +0.012 A 
BRANCH  15  18
ATOM     18  C   UNL     1     -10.882  -0.760  -7.534  0.00  0.00    -0.013 C 
ATOM     19  C   UNL     1     -12.034  -0.917  -6.540  0.00  0.00    +0.015 C 
ATOM     20  C   UNL     1     -11.142   0.454  -8.428  0.00  0.00    +0.015 C 
ATOM     21  C   UNL     1     -10.779  -2.018  -8.399  0.00  0.00    +0.015 C 
ENDBRANCH  15  18
ENDBRANCH   4  12
BRANCH   1  22
ATOM     22  S   UNL     1      -2.910   1.996  -3.237  0.00  0.00    -0.076 S 
BRANCH  22  23
ATOM     23  C   UNL     1      -1.843   0.865  -2.311  0.00  0.00    +0.174 C 
BRANCH  23  25
ATOM     24  N   UNL     1       0.269   0.983  -1.029  0.00  0.00    -0.206 N 
ATOM     25  C   UNL     1      -0.665   1.625  -1.758  0.00  0.00    +0.242 C 
ATOM     26  O   UNL     1      -0.557   2.814  -1.970  0.00  0.00    -0.273 OA
ATOM     27  H   UNL     1       0.182   0.032  -0.859  0.00  0.00    +0.177 HD
BRANCH  24  30
ATOM     28  C   UNL     1       3.409   1.821   0.792  0.00  0.00    +0.068 C 
ATOM     29  C   UNL     1       2.324   1.052   0.084  0.00  0.00    +0.063 C 
ATOM     30  N   UNL     1       1.367   1.688  -0.520  0.00  0.00    -0.185 NA
BRANCH  29  31
ATOM     31  C   UNL     1       2.349  -0.422   0.075  0.00  0.00    -0.002 A 
ATOM     32  C   UNL     1       2.790  -1.121   1.202  0.00  0.00    +0.013 A 
ATOM     33  C   UNL     1       2.807  -2.499   1.192  0.00  0.00    +0.046 A 
ATOM     34  C   UNL     1       2.396  -3.192   0.060  0.00  0.00    +0.120 A 
ATOM     35  C   UNL     1       1.962  -2.501  -1.063  0.00  0.00    +0.046 A 
ATOM     36  C   UNL     1       1.936  -1.123  -1.060  0.00  0.00    +0.013 A 
BRANCH  34  37
ATOM     37  O   UNL     1       2.419  -4.551   0.053  0.00  0.00    -0.495 OA
ATOM     38  C   UNL     1       2.877  -5.198   1.242  0.00  0.00    +0.277 C 
ENDBRANCH  34  37
ENDBRANCH  29  31
ENDBRANCH  24  30
ENDBRANCH  23  25
ENDBRANCH  22  23
ENDBRANCH   1  22
TORSDOF 9
