REMARK  Name = ZINC37281422
REMARK  7 active torsions:
REMARK  status: ('A' for Active; 'I' for Inactive)
REMARK    1  A    between atoms: C_1  and  C_2
REMARK    2  A    between atoms: C_3  and  C_7
REMARK    3  A    between atoms: C_7  and  C_9
REMARK    4  A    between atoms: C_7  and  N_10
REMARK    5  A    between atoms: N_10  and  C_11
REMARK    6  A    between atoms: C_11  and  C_13
REMARK    7  A    between atoms: C_11  and  C_14
REMARK                            x       y       z     vdW  Elec       q    Type
REMARK                         _______ _______ _______ _____ _____    ______ ____
ROOT
ATOM      1  C   UNL     1       1.508  -0.150  -4.471  0.00  0.00    +0.120 C 
ATOM      2  C   UNL     1       0.510  -0.126  -5.630  0.00  0.00    +0.032 C 
ENDROOT
BRANCH   1   3
ATOM      3  C   UNL     1       2.821  -0.716  -4.949  0.00  0.00    +0.155 A 
ATOM      4  N   UNL     1       3.075  -1.974  -5.200  0.00  0.00    -0.132 NA
ATOM      5  N   UNL     1       4.293  -2.114  -5.590  0.00  0.00    -0.129 NA
ATOM      6  C   UNL     1       4.888  -0.933  -5.609  0.00  0.00    +0.161 A 
ATOM      7  N   UNL     1       3.956  -0.010  -5.203  0.00  0.00    -0.285 N 
ATOM      8  C   UNL     1       4.279   1.312  -5.127  0.00  0.00    +0.094 A 
ATOM      9  C   UNL     1       5.520   1.734  -5.451  0.00  0.00    +0.018 A 
ATOM     10  C   UNL     1       6.495   0.814  -5.873  0.00  0.00    +0.005 A 
ATOM     11  C   UNL     1       6.188  -0.509  -5.947  0.00  0.00    +0.048 A 
ENDBRANCH   1   3
BRANCH   1  12
ATOM     12  N   UNL     1       0.979  -0.989  -3.387  0.00  0.00    -0.300 NA
ATOM     13  H   UNL     1       1.727  -1.421  -2.866  0.00  0.00    +0.123 HD
BRANCH  12  14
ATOM     14  C   UNL     1       0.101  -0.212  -2.501  0.00  0.00    +0.090 C 
ATOM     15  C   UNL     1      -0.902  -1.150  -1.827  0.00  0.00    +0.029 C 
BRANCH  14  18
ATOM     16  C   UNL     1      -0.130   2.737  -1.540  0.00  0.00    +0.066 C 
ATOM     17  C   UNL     1       0.872   1.753  -0.994  0.00  0.00    +0.050 A 
ATOM     18  C   UNL     1       0.932   0.475  -1.448  0.00  0.00    +0.029 A 
ATOM     19  S   UNL     1       2.269  -0.165  -0.452  0.00  0.00    -0.079 S 
ATOM     20  C   UNL     1       2.600   1.237   0.419  0.00  0.00    +0.156 A 
ATOM     21  N   UNL     1       1.734   2.096  -0.057  0.00  0.00    -0.252 NA
ENDBRANCH  14  18
ENDBRANCH  12  14
ENDBRANCH   1  12
TORSDOF 4
