REMARK  Name = ZINC44960932
REMARK  6 active torsions:
REMARK  status: ('A' for Active; 'I' for Inactive)
REMARK    1  A    between atoms: C_1  and  C_2
REMARK    2  A    between atoms: C_14  and  N_17
REMARK    3  A    between atoms: C_18  and  C_20
REMARK    4  A    between atoms: C_23  and  N_26
REMARK    5  A    between atoms: C_29  and  C_31
REMARK    6  A    between atoms: C_31  and  N_32
REMARK                            x       y       z     vdW  Elec       q    Type
REMARK                         _______ _______ _______ _____ _____    ______ ____
ROOT
ATOM      1  N   UNL     1      -0.097  -4.148   5.822  0.00  0.00    -0.308 N 
ATOM      2  C   UNL     1      -0.791  -4.935   6.668  0.00  0.00    +0.244 C 
ATOM      3  O   UNL     1      -1.613  -5.718   6.233  0.00  0.00    -0.270 OA
ATOM      4  H   UNL     1       0.559  -3.523   6.169  0.00  0.00    +0.149 HD
ENDROOT
BRANCH   1  18
ATOM      5  C   UNL     1      -0.018   1.503   0.010  0.00  0.00    +0.044 C 
ATOM      6  C   UNL     1       0.002  -0.004   0.002  0.00  0.00    -0.050 A 
ATOM      7  C   UNL     1       0.006  -0.686  -1.207  0.00  0.00    +0.005 A 
ATOM      8  C   UNL     1       0.024  -2.063  -1.236  0.00  0.00    +0.026 A 
ATOM      9  C   UNL     1       0.040  -2.780  -0.045  0.00  0.00    +0.047 A 
ATOM     10  C   UNL     1       0.036  -2.084   1.179  0.00  0.00    +0.003 A 
ATOM     11  C   UNL     1       0.023  -0.688   1.184  0.00  0.00    +0.013 A 
ATOM     12  C   UNL     1       0.055  -3.108   2.219  0.00  0.00    -0.017 A 
ATOM     13  C   UNL     1       0.068  -4.306   1.604  0.00  0.00    +0.020 A 
ATOM     14  N   UNL     1       0.060  -4.126   0.250  0.00  0.00    -0.358 N 
ATOM     15  H   UNL     1       0.066  -4.840  -0.407  0.00  0.00    +0.166 HD
ATOM     16  C   UNL     1       0.091  -5.626   2.341  0.00  0.00    +0.055 C 
ATOM     17  C   UNL     1       0.516  -5.367   3.791  0.00  0.00    +0.029 C 
ATOM     18  C   UNL     1      -0.332  -4.237   4.379  0.00  0.00    +0.078 C 
ATOM     19  C   UNL     1       0.057  -2.911   3.713  0.00  0.00    +0.059 C 
ENDBRANCH   1  18
BRANCH   2  20
ATOM     20  C   UNL     1      -0.553  -4.846   8.122  0.00  0.00    +0.037 A 
ATOM     21  C   UNL     1       0.387  -3.942   8.624  0.00  0.00    +0.015 A 
ATOM     22  C   UNL     1       0.606  -3.861   9.981  0.00  0.00    +0.027 A 
ATOM     23  C   UNL     1      -0.108  -4.678  10.852  0.00  0.00    +0.046 A 
ATOM     24  C   UNL     1      -1.044  -5.578  10.356  0.00  0.00    +0.027 A 
ATOM     25  C   UNL     1      -1.272  -5.660   9.000  0.00  0.00    +0.015 A 
BRANCH  23  26
ATOM     26  N   UNL     1       0.117  -4.593  12.229  0.00  0.00    -0.323 N 
ATOM     27  C   UNL     1       1.001  -3.750  12.842  0.00  0.00    +0.091 A 
ATOM     28  C   UNL     1       0.931  -3.961  14.172  0.00  0.00    +0.021 A 
ATOM     29  C   UNL     1      -0.029  -4.970  14.390  0.00  0.00    -0.046 A 
ATOM     30  C   UNL     1      -0.515  -5.335  13.187  0.00  0.00    +0.093 A 
BRANCH  29  31
ATOM     31  C   UNL     1      -0.441  -5.534  15.726  0.00  0.00    -0.041 C 
BRANCH  31  32
ATOM     32  N   UNL     1      -1.565  -4.754  16.261  0.00  0.00    +0.382 N 
ATOM     33  C   UNL     1      -2.732  -4.915  15.385  0.00  0.00    -0.078 C 
ATOM     34  C   UNL     1      -3.880  -4.041  15.893  0.00  0.00    -0.019 C 
ATOM     35  C   UNL     1      -4.247  -4.466  17.318  0.00  0.00    -0.004 C 
ATOM     36  C   UNL     1      -3.003  -4.364  18.206  0.00  0.00    -0.019 C 
ATOM     37  C   UNL     1      -1.887  -5.227  17.613  0.00  0.00    -0.078 C 
ATOM     38  H   UNL     1      -1.308  -3.779  16.299  0.00  0.00    -0.081 HD
ENDBRANCH  31  32
ENDBRANCH  29  31
ENDBRANCH  23  26
ENDBRANCH   2  20
TORSDOF 5
