REMARK  Name = ZINC06079391
REMARK  8 active torsions:
REMARK  status: ('A' for Active; 'I' for Inactive)
REMARK    1  A    between atoms: C_1  and  C_2
REMARK    2  A    between atoms: C_5  and  N_8
REMARK    3  A    between atoms: C_9  and  C_25
REMARK    4  A    between atoms: C_12  and  S_13
REMARK    5  A    between atoms: S_13  and  C_14
REMARK    6  A    between atoms: C_14  and  C_15
REMARK    7  A    between atoms: N_17  and  C_18
REMARK    8  A    between atoms: C_23  and  C_24
REMARK                            x       y       z     vdW  Elec       q    Type
REMARK                         _______ _______ _______ _____ _____    ______ ____
ROOT
ATOM      1  N   UNL     1       1.096  -0.811   0.233  0.00  0.00    -0.268 N 
ATOM      2  C   UNL     1       0.013  -0.004  -0.045  0.00  0.00    +0.205 A 
ATOM      3  N   UNL     1      -1.000  -0.799  -0.314  0.00  0.00    -0.125 NA
ATOM      4  N   UNL     1      -0.632  -2.027  -0.219  0.00  0.00    -0.122 NA
ATOM      5  C   UNL     1       0.637  -2.096   0.115  0.00  0.00    +0.197 A 
ENDROOT
BRANCH   1  10
ATOM      6  C   UNL     1       6.352   0.844   1.591  0.00  0.00    +0.044 C 
ATOM      7  C   UNL     1       4.957   0.404   1.230  0.00  0.00    -0.050 A 
ATOM      8  C   UNL     1       4.190  -0.283   2.153  0.00  0.00    +0.005 A 
ATOM      9  C   UNL     1       2.910  -0.688   1.825  0.00  0.00    +0.026 A 
ATOM     10  C   UNL     1       2.394  -0.403   0.568  0.00  0.00    +0.051 A 
ATOM     11  C   UNL     1       3.169   0.283  -0.358  0.00  0.00    +0.026 A 
ATOM     12  C   UNL     1       4.445   0.689  -0.023  0.00  0.00    +0.005 A 
ENDBRANCH   1  10
BRANCH   2  13
ATOM     13  C   UNL     1      -0.005   1.467  -0.046  0.00  0.00    +0.172 A 
ATOM     14  C   UNL     1      -1.118   2.254  -0.047  0.00  0.00    +0.053 A 
ATOM     15  C   UNL     1      -0.670   3.589  -0.045  0.00  0.00    +0.042 A 
ATOM     16  C   UNL     1       0.677   3.554  -0.052  0.00  0.00    +0.196 A 
ATOM     17  O   UNL     1       1.076   2.271  -0.052  0.00  0.00    -0.460 OA
ENDBRANCH   2  13
BRANCH   5  18
ATOM     18  S   UNL     1       1.574  -3.568   0.360  0.00  0.00    -0.076 S 
BRANCH  18  19
ATOM     19  C   UNL     1       0.302  -4.810   0.021  0.00  0.00    +0.173 C 
BRANCH  19  20
ATOM     20  C   UNL     1       0.893  -6.188   0.174  0.00  0.00    +0.227 C 
ATOM     21  O   UNL     1       2.059  -6.317   0.482  0.00  0.00    -0.275 OA
ATOM     22  N   UNL     1       0.125  -7.277  -0.031  0.00  0.00    -0.285 N 
ATOM     23  H   UNL     1      -0.825  -7.176  -0.198  0.00  0.00    +0.155 HD
BRANCH  22  24
ATOM     24  C   UNL     1       0.699  -8.553  -0.003  0.00  0.00    +0.036 A 
ATOM     25  C   UNL     1       2.050  -8.714  -0.280  0.00  0.00    +0.023 A 
ATOM     26  C   UNL     1       2.615  -9.974  -0.247  0.00  0.00    +0.002 A 
ATOM     27  C   UNL     1       1.834 -11.076   0.052  0.00  0.00    +0.000 A 
ATOM     28  C   UNL     1       0.487 -10.919   0.324  0.00  0.00    +0.005 A 
ATOM     29  C   UNL     1      -0.082  -9.661   0.297  0.00  0.00    -0.029 A 
ATOM     30  C   UNL     1      -1.550  -9.491   0.592  0.00  0.00    +0.045 C 
ENDBRANCH  22  24
ENDBRANCH  19  20
ENDBRANCH  18  19
ENDBRANCH   5  18
TORSDOF 6
