REMARK  Name = ZINC09576462
REMARK  10 active torsions:
REMARK  status: ('A' for Active; 'I' for Inactive)
REMARK    1  A    between atoms: C_1  and  O_2
REMARK    2  A    between atoms: O_2  and  C_3
REMARK    3  A    between atoms: C_6  and  S_9
REMARK    4  A    between atoms: S_9  and  N_12
REMARK    5  A    between atoms: C_17  and  C_19
REMARK    6  A    between atoms: C_19  and  N_20
REMARK    7  A    between atoms: C_21  and  C_23
REMARK    8  A    between atoms: N_25  and  C_26
REMARK    9  A    between atoms: C_26  and  C_27
REMARK   10  A    between atoms: C_27  and  C_28
REMARK                            x       y       z     vdW  Elec       q    Type
REMARK                         _______ _______ _______ _____ _____    ______ ____
ROOT
ATOM      1  C   UNL     1      -6.931   5.027   3.829  0.00  0.00    +0.154 C 
ENDROOT
BRANCH   1   7
ATOM      2  N   UNL     1      -7.348   4.171   6.089  0.00  0.00    -0.147 NA
ATOM      3  C   UNL     1      -7.508   4.324   7.544  0.00  0.00    +0.114 C 
ATOM      4  C   UNL     1      -6.498   5.370   8.033  0.00  0.00    +0.045 C 
ATOM      5  C   UNL     1      -6.641   6.635   7.182  0.00  0.00    +0.163 C 
ATOM      6  O   UNL     1      -6.405   6.316   5.809  0.00  0.00    -0.358 OA
ATOM      7  C   UNL     1      -7.342   5.385   5.259  0.00  0.00    +0.226 C 
BRANCH   2   8
ATOM      8  S   UNL     1      -7.174   2.673   5.405  0.00  0.00    +0.063 S 
ATOM      9  O   UNL     1      -7.079   2.876   4.002  0.00  0.00    -0.153 OA
ATOM     10  O   UNL     1      -6.166   2.002   6.148  0.00  0.00    -0.153 OA
BRANCH   8  14
ATOM     11  C   UNL     1     -11.033   0.416   6.126  0.00  0.00    +0.120 A 
ATOM     12  C   UNL     1     -10.842   1.103   4.936  0.00  0.00    +0.047 A 
ATOM     13  C   UNL     1      -9.664   1.791   4.719  0.00  0.00    +0.032 A 
ATOM     14  C   UNL     1      -8.676   1.795   5.686  0.00  0.00    +0.106 A 
ATOM     15  C   UNL     1      -8.861   1.106   6.870  0.00  0.00    +0.032 A 
ATOM     16  C   UNL     1     -10.040   0.421   7.095  0.00  0.00    +0.047 A 
BRANCH  11  18
ATOM     17  C   UNL     1     -12.364  -0.855   7.631  0.00  0.00    +0.277 C 
ATOM     18  O   UNL     1     -12.191  -0.262   6.342  0.00  0.00    -0.495 OA
ENDBRANCH  11  18
ENDBRANCH   8  14
ENDBRANCH   2   8
ENDBRANCH   1   7
BRANCH   1  19
ATOM     19  N   UNL     1      -5.613   4.388   3.845  0.00  0.00    -0.304 N 
ATOM     20  C   UNL     1      -4.990   4.099   2.685  0.00  0.00    +0.299 C 
ATOM     21  O   UNL     1      -5.558   4.284   1.629  0.00  0.00    -0.265 OA
ATOM     22  H   UNL     1      -5.189   4.173   4.690  0.00  0.00    +0.149 HD
BRANCH  20  23
ATOM     23  C   UNL     1      -3.600   3.552   2.700  0.00  0.00    +0.299 C 
ATOM     24  O   UNL     1      -3.066   3.280   3.755  0.00  0.00    -0.265 OA
ATOM     25  N   UNL     1      -2.939   3.360   1.541  0.00  0.00    -0.307 N 
ATOM     26  H   UNL     1      -3.336   3.645   0.704  0.00  0.00    +0.149 HD
BRANCH  25  27
ATOM     27  C   UNL     1      -1.621   2.720   1.547  0.00  0.00    +0.109 C 
BRANCH  27  28
ATOM     28  C   UNL     1      -1.149   2.511   0.107  0.00  0.00    +0.054 C 
BRANCH  28  29
ATOM     29  C   UNL     1       0.207   1.853   0.113  0.00  0.00    -0.046 A 
ATOM     30  C   UNL     1       1.351   2.628   0.125  0.00  0.00    +0.005 A 
ATOM     31  C   UNL     1       2.595   2.025   0.124  0.00  0.00    +0.020 A 
ATOM     32  C   UNL     1       2.694   0.645   0.112  0.00  0.00    +0.041 A 
ATOM     33  C   UNL     1       1.548  -0.130   0.100  0.00  0.00    +0.020 A 
ATOM     34  C   UNL     1       0.305   0.474   0.100  0.00  0.00    +0.005 A 
ATOM     35 CL   UNL     1       4.256  -0.113   0.112  0.00  0.00    -0.084 Cl
ENDBRANCH  28  29
ENDBRANCH  27  28
ENDBRANCH  25  27
ENDBRANCH  20  23
ENDBRANCH   1  19
TORSDOF 9
