REMARK  Name = ZINC36290263
REMARK  5 active torsions:
REMARK  status: ('A' for Active; 'I' for Inactive)
REMARK    1  A    between atoms: C_1  and  C_2
REMARK    2  A    between atoms: C_2  and  C_3
REMARK    3  A    between atoms: C_2  and  C_4
REMARK    4  A    between atoms: C_5  and  N_22
REMARK    5  A    between atoms: C_7  and  C_12
REMARK                            x       y       z     vdW  Elec       q    Type
REMARK                         _______ _______ _______ _____ _____    ______ ____
ROOT
ATOM      1  C   UNL     1      -1.412  -0.526   0.013  0.00  0.00    +0.085 A 
ATOM      2  C   UNL     1      -1.971  -1.311  -0.930  0.00  0.00    +0.125 A 
ATOM      3  N   UNL     1      -3.284  -1.565  -0.543  0.00  0.00    -0.274 N 
ATOM      4  C   UNL     1      -4.383  -2.264  -1.015  0.00  0.00    +0.064 A 
ATOM      5  C   UNL     1      -5.535  -2.267  -0.317  0.00  0.00    +0.075 A 
ATOM      6  S   UNL     1      -5.120  -1.251   1.092  0.00  0.00    -0.057 S 
ATOM      7  C   UNL     1      -3.437  -0.895   0.646  0.00  0.00    +0.179 A 
ATOM      8  N   UNL     1      -2.331  -0.292   0.968  0.00  0.00    -0.224 NA
ENDROOT
BRANCH   4   9
ATOM      9  C   UNL     1      -4.292  -3.008  -2.288  0.00  0.00    +0.000 A 
ATOM     10  C   UNL     1      -3.426  -4.112  -2.390  0.00  0.00    +0.010 A 
ATOM     11  C   UNL     1      -3.325  -4.812  -3.549  0.00  0.00    +0.009 A 
ATOM     12  C   UNL     1      -4.091  -4.436  -4.668  0.00  0.00    -0.018 A 
ATOM     13  C   UNL     1      -4.004  -5.145  -5.877  0.00  0.00    +0.008 A 
ATOM     14  C   UNL     1      -4.758  -4.759  -6.942  0.00  0.00    +0.001 A 
ATOM     15  C   UNL     1      -5.619  -3.667  -6.854  0.00  0.00    +0.001 A 
ATOM     16  C   UNL     1      -5.731  -2.955  -5.699  0.00  0.00    +0.008 A 
ATOM     17  C   UNL     1      -4.968  -3.325  -4.577  0.00  0.00    -0.017 A 
ATOM     18  C   UNL     1      -5.064  -2.617  -3.369  0.00  0.00    +0.018 A 
ENDBRANCH   4   9
BRANCH   1  20
ATOM     19  C   UNL     1      -0.019   1.526   0.010  0.00  0.00    +0.014 C 
ATOM     20  C   UNL     1       0.002  -0.004   0.002  0.00  0.00    +0.035 C 
ATOM     21  C   UNL     1       0.742  -0.511   1.242  0.00  0.00    +0.014 C 
ENDBRANCH   1  20
BRANCH   2  22
ATOM     22  N   UNL     1      -1.343  -1.786  -2.091  0.00  0.00    -0.343 N 
ATOM     23  H   UNL     1      -0.420  -1.552  -2.273  0.00  0.00    +0.144 HD
ATOM     24  H   UNL     1      -1.833  -2.348  -2.711  0.00  0.00    +0.144 HD
ENDBRANCH   2  22
TORSDOF 3
