REMARK  Name = ZINC65059040
REMARK  7 active torsions:
REMARK  status: ('A' for Active; 'I' for Inactive)
REMARK    1  A    between atoms: C_1  and  C_2
REMARK    2  A    between atoms: C_5  and  C_8
REMARK    3  A    between atoms: C_8  and  N_9
REMARK    4  A    between atoms: C_10  and  C_12
REMARK    5  A    between atoms: C_12  and  C_29
REMARK    6  A    between atoms: N_20  and  C_21
REMARK    7  A    between atoms: C_26  and  C_27
REMARK                            x       y       z     vdW  Elec       q    Type
REMARK                         _______ _______ _______ _____ _____    ______ ____
ROOT
ATOM      1  C   UNL     1       3.731  -6.366   0.120  0.00  0.00    +0.060 C 
ATOM      2  C   UNL     1       3.514  -7.873  -0.033  0.00  0.00    +0.019 C 
ATOM      3  C   UNL     1       2.538  -8.362   1.039  0.00  0.00    +0.020 C 
ATOM      4  C   UNL     1       3.134  -8.098   2.426  0.00  0.00    +0.109 C 
ATOM      5  N   UNL     1       3.480  -6.673   2.528  0.00  0.00    -0.284 N 
ATOM      6  C   UNL     1       4.341  -6.079   1.496  0.00  0.00    +0.125 C 
ATOM      7  C   UNL     1       3.015  -5.926   3.549  0.00  0.00    +0.306 C 
ATOM      8  O   UNL     1       3.377  -4.771   3.670  0.00  0.00    -0.252 OA
ATOM      9  N   UNL     1       2.151  -6.458   4.435  0.00  0.00    -0.269 N 
ATOM     10  C   UNL     1       4.681  -5.872  -0.972  0.00  0.00    +0.022 C 
ATOM     11  H   UNL     1       1.915  -7.397   4.379  0.00  0.00    +0.156 HD
ENDROOT
BRANCH   9  12
ATOM     12  C   UNL     1       1.593  -5.656   5.437  0.00  0.00    +0.039 A 
ATOM     13  C   UNL     1       1.612  -4.273   5.312  0.00  0.00    +0.043 A 
ATOM     14  C   UNL     1       1.060  -3.484   6.303  0.00  0.00    +0.043 A 
ATOM     15  C   UNL     1       0.490  -4.071   7.419  0.00  0.00    +0.020 A 
ATOM     16  C   UNL     1       0.470  -5.447   7.546  0.00  0.00    +0.006 A 
ATOM     17  C   UNL     1       1.016  -6.241   6.556  0.00  0.00    -0.029 A 
ATOM     18  C   UNL     1       0.989  -7.742   6.693  0.00  0.00    +0.045 C 
ATOM     19 CL   UNL     1       1.083  -1.755   6.148  0.00  0.00    -0.083 Cl
ENDBRANCH   9  12
BRANCH   1  21
ATOM     20  N   UNL     1       2.355  -4.311   0.103  0.00  0.00    -0.311 N 
ATOM     21  C   UNL     1       2.409  -5.653  -0.003  0.00  0.00    +0.221 C 
ATOM     22  O   UNL     1       1.394  -6.287  -0.197  0.00  0.00    -0.275 OA
ATOM     23  H   UNL     1       3.167  -3.803   0.259  0.00  0.00    +0.149 HD
BRANCH  20  24
ATOM     24  C   UNL     1       1.070  -3.617  -0.016  0.00  0.00    +0.139 C 
BRANCH  24  29
ATOM     25  C   UNL     1       1.885   2.073   0.578  0.00  0.00    +0.044 C 
ATOM     26  C   UNL     1       1.673   0.589   0.423  0.00  0.00    -0.050 A 
ATOM     27  C   UNL     1       1.740   0.008  -0.830  0.00  0.00    +0.003 A 
ATOM     28  C   UNL     1       1.545  -1.353  -0.972  0.00  0.00    +0.005 A 
ATOM     29  C   UNL     1       1.284  -2.134   0.139  0.00  0.00    -0.030 A 
ATOM     30  C   UNL     1       1.217  -1.553   1.391  0.00  0.00    +0.005 A 
ATOM     31  C   UNL     1       1.416  -0.193   1.534  0.00  0.00    +0.003 A 
ENDBRANCH  24  29
ENDBRANCH  20  24
ENDBRANCH   1  21
TORSDOF 4
