REMARK  Name = ZINC00105969
REMARK  5 active torsions:
REMARK  status: ('A' for Active; 'I' for Inactive)
REMARK    1  A    between atoms: C_1  and  C_2
REMARK    2  A    between atoms: C_3  and  C_7
REMARK    3  A    between atoms: C_9  and  C_12
REMARK    4  A    between atoms: C_12  and  S_13
REMARK    5  A    between atoms: S_13  and  C_14
REMARK                            x       y       z     vdW  Elec       q    Type
REMARK                         _______ _______ _______ _____ _____    ______ ____
ROOT
ATOM      1  C   UNL     1       3.398  -6.365  -0.680  0.00  0.00    +0.268 A 
ATOM      2  N   UNL     1       3.255  -5.132  -1.139  0.00  0.00    -0.190 NA
ATOM      3  C   UNL     1       3.178  -4.351  -0.051  0.00  0.00    +0.182 A 
ATOM      4  N   UNL     1       3.279  -5.119   0.994  0.00  0.00    -0.060 NA
ATOM      5  O   UNL     1       3.401  -6.278   0.660  0.00  0.00    -0.332 OA
ENDROOT
BRANCH   1   8
ATOM      6  C   UNL     1       3.740  -9.332   0.371  0.00  0.00    +0.069 C 
ATOM      7  C   UNL     1       3.680  -8.914  -1.075  0.00  0.00    +0.081 A 
ATOM      8  C   UNL     1       3.528  -7.593  -1.482  0.00  0.00    +0.119 A 
ATOM      9  S   UNL     1       3.527  -7.811  -3.253  0.00  0.00    +0.042 S 
ATOM     10  N   UNL     1       3.710  -9.380  -3.298  0.00  0.00    -0.110 NA
ATOM     11  N   UNL     1       3.765  -9.760  -2.074  0.00  0.00    -0.146 NA
ENDBRANCH   1   8
BRANCH   3  12
ATOM     12  C   UNL     1       3.010  -2.853  -0.042  0.00  0.00    +0.154 C 
BRANCH  12  13
ATOM     13  S   UNL     1       1.244  -2.443  -0.022  0.00  0.00    -0.117 S 
BRANCH  13  14
ATOM     14  C   UNL     1       1.216  -0.681  -0.013  0.00  0.00    +0.008 A 
ATOM     15  C   UNL     1       0.002  -0.004   0.002  0.00  0.00    +0.016 A 
ATOM     16  C   UNL     1      -0.017   1.377   0.010  0.00  0.00    +0.021 A 
ATOM     17  C   UNL     1       1.171   2.086   0.002  0.00  0.00    +0.041 A 
ATOM     18  C   UNL     1       2.382   1.415  -0.013  0.00  0.00    +0.021 A 
ATOM     19  C   UNL     1       2.407   0.034  -0.021  0.00  0.00    +0.016 A 
ATOM     20 CL   UNL     1       1.144   3.822   0.012  0.00  0.00    -0.084 Cl
ENDBRANCH  13  14
ENDBRANCH  12  13
ENDBRANCH   3  12
TORSDOF 4
