REMARK  Name = ZINC00861486
REMARK  14 active torsions:
REMARK  status: ('A' for Active; 'I' for Inactive)
REMARK    1  A    between atoms: C_1  and  C_2
REMARK    2  A    between atoms: C_3  and  C_35
REMARK    3  A    between atoms: C_4  and  C_23
REMARK    4  A    between atoms: C_10  and  C_15
REMARK    5  A    between atoms: C_18  and  O_21
REMARK    6  A    between atoms: O_21  and  C_22
REMARK    7  A    between atoms: C_25  and  O_33
REMARK    8  A    between atoms: C_26  and  O_31
REMARK    9  A    between atoms: C_27  and  O_29
REMARK   10  A    between atoms: O_29  and  C_30
REMARK   11  A    between atoms: O_31  and  C_32
REMARK   12  A    between atoms: O_33  and  C_34
REMARK   13  A    between atoms: C_35  and  O_37
REMARK   14  A    between atoms: O_37  and  C_38
REMARK                            x       y       z     vdW  Elec       q    Type
REMARK                         _______ _______ _______ _____ _____    ______ ____
ROOT
ATOM      1  C   UNL     1      -0.018   1.503   0.010  0.00  0.00    +0.061 C 
ATOM      2  C   UNL     1       0.002  -0.004   0.002  0.00  0.00    +0.016 C 
ATOM      3  C   UNL     1      -1.155  -0.688   0.004  0.00  0.00    +0.065 C 
ATOM      4  C   UNL     1      -1.174  -2.188  -0.014  0.00  0.00    +0.092 C 
ATOM      5  C   UNL     1       0.164  -2.751   0.395  0.00  0.00    +0.024 C 
ATOM      6  C   UNL     1       1.271  -1.978   0.381  0.00  0.00    +0.016 C 
ATOM      7  N   UNL     1       1.198  -0.667  -0.013  0.00  0.00    -0.321 N 
ATOM      8  C   UNL     1       2.612  -2.532   0.794  0.00  0.00    +0.059 C 
ATOM      9  C   UNL     1       2.675  -4.025   0.462  0.00  0.00    +0.032 C 
ATOM     10  C   UNL     1       1.529  -4.734   1.190  0.00  0.00    +0.088 C 
ATOM     11  C   UNL     1       0.226  -4.099   0.788  0.00  0.00    +0.162 C 
ATOM     12  O   UNL     1      -0.791  -4.764   0.802  0.00  0.00    -0.292 OA
ATOM     13  H   UNL     1       2.000  -0.204  -0.301  0.00  0.00    +0.152 HD
ENDROOT
BRANCH   9  14
ATOM     14  C   UNL     1       3.997  -4.589   0.917  0.00  0.00    -0.043 A 
ATOM     15  C   UNL     1       4.346  -4.536   2.253  0.00  0.00    +0.007 A 
ATOM     16  C   UNL     1       5.557  -5.052   2.673  0.00  0.00    +0.046 A 
ATOM     17  C   UNL     1       6.422  -5.624   1.752  0.00  0.00    +0.120 A 
ATOM     18  C   UNL     1       6.069  -5.677   0.411  0.00  0.00    +0.046 A 
ATOM     19  C   UNL     1       4.855  -5.164  -0.002  0.00  0.00    +0.007 A 
BRANCH  17  20
ATOM     20  O   UNL     1       7.614  -6.132   2.162  0.00  0.00    -0.495 OA
ATOM     21  C   UNL     1       8.454  -6.706   1.159  0.00  0.00    +0.277 C 
ENDBRANCH  17  20
ENDBRANCH   9  14
BRANCH   4  22
ATOM     22  C   UNL     1      -1.505  -2.662  -1.405  0.00  0.00    -0.028 A 
ATOM     23  C   UNL     1      -0.681  -2.325  -2.462  0.00  0.00    +0.054 A 
ATOM     24  C   UNL     1      -0.983  -2.760  -3.744  0.00  0.00    +0.165 A 
ATOM     25  C   UNL     1      -2.115  -3.535  -3.965  0.00  0.00    +0.204 A 
ATOM     26  C   UNL     1      -2.940  -3.872  -2.899  0.00  0.00    +0.165 A 
ATOM     27  C   UNL     1      -2.629  -3.438  -1.619  0.00  0.00    +0.054 A 
BRANCH  26  28
ATOM     28  O   UNL     1      -4.049  -4.631  -3.110  0.00  0.00    -0.491 OA
ATOM     29  C   UNL     1      -4.851  -4.939  -1.968  0.00  0.00    +0.277 C 
ENDBRANCH  26  28
BRANCH  25  30
ATOM     30  O   UNL     1      -2.414  -3.963  -5.222  0.00  0.00    -0.488 OA
ATOM     31  C   UNL     1      -1.872  -5.222  -5.625  0.00  0.00    +0.277 C 
ENDBRANCH  25  30
BRANCH  24  32
ATOM     32  O   UNL     1      -0.172  -2.427  -4.784  0.00  0.00    -0.491 OA
ATOM     33  C   UNL     1       0.974  -1.627  -4.484  0.00  0.00    +0.277 C 
ENDBRANCH  24  32
ENDBRANCH   4  22
BRANCH   3  34
ATOM     34  C   UNL     1      -2.379   0.021   0.023  0.00  0.00    +0.338 C 
ATOM     35  O   UNL     1      -2.378   1.238   0.038  0.00  0.00    -0.245 OA
BRANCH  34  36
ATOM     36  O   UNL     1      -3.549  -0.652   0.025  0.00  0.00    -0.458 OA
BRANCH  36  37
ATOM     37  C   UNL     1      -4.746   0.127   0.045  0.00  0.00    +0.177 C 
ATOM     38  C   UNL     1      -5.161   0.388   1.494  0.00  0.00    +0.044 C 
ATOM     39  C   UNL     1      -6.443   1.223   1.516  0.00  0.00    +0.004 C 
ATOM     40  C   UNL     1      -7.559   0.463   0.795  0.00  0.00    +0.000 C 
ATOM     41  C   UNL     1      -7.144   0.202  -0.655  0.00  0.00    +0.004 C 
ATOM     42  C   UNL     1      -5.862  -0.632  -0.676  0.00  0.00    +0.044 C 
ENDBRANCH  36  37
ENDBRANCH  34  36
ENDBRANCH   3  34
TORSDOF 9
