REMARK  Name = ZINC14472596
REMARK  5 active torsions:
REMARK  status: ('A' for Active; 'I' for Inactive)
REMARK    1  A    between atoms: C_1  and  C_2
REMARK    2  A    between atoms: C_2  and  O_3
REMARK    3  A    between atoms: O_3  and  C_4
REMARK    4  A    between atoms: C_17  and  C_20
REMARK    5  A    between atoms: C_22  and  N_27
REMARK                            x       y       z     vdW  Elec       q    Type
REMARK                         _______ _______ _______ _____ _____    ______ ____
ROOT
ATOM      1  C   UNL     1      -0.148   1.182   2.381  0.00  0.00    +0.121 A 
ATOM      2  C   UNL     1       0.995   0.397   2.422  0.00  0.00    +0.047 A 
ATOM      3  C   UNL     1       1.539   0.031   3.636  0.00  0.00    +0.027 A 
ATOM      4  C   UNL     1       0.947   0.441   4.824  0.00  0.00    +0.032 A 
ATOM      5  C   UNL     1      -0.210   1.225   4.777  0.00  0.00    -0.016 A 
ATOM      6  C   UNL     1      -0.743   1.599   3.562  0.00  0.00    +0.051 A 
ATOM      7  C   UNL     1      -0.821   1.619   6.065  0.00  0.00    +0.049 C 
ATOM      8  C   UNL     1      -1.658   2.847   6.228  0.00  0.00    -0.023 C 
ATOM      9  C   UNL     1      -1.488   3.333   7.451  0.00  0.00    -0.030 C 
ATOM     10  C   UNL     1      -0.496   2.464   8.226  0.00  0.00    +0.033 C 
ATOM     11  C   UNL     1       0.331   1.850   7.089  0.00  0.00    +0.029 C 
ATOM     12  C   UNL     1       0.935   0.479   7.335  0.00  0.00    +0.106 C 
ATOM     13  N   UNL     1       1.533   0.071   6.044  0.00  0.00    -0.336 N 
ATOM     14  H   UNL     1       2.343  -0.462   6.042  0.00  0.00    +0.147 HD
ENDROOT
BRANCH  12  15
ATOM     15  C   UNL     1       1.999   0.559   8.399  0.00  0.00    -0.007 A 
ATOM     16  C   UNL     1       3.317   0.777   8.044  0.00  0.00    +0.039 A 
ATOM     17  C   UNL     1       4.292   0.856   9.020  0.00  0.00    +0.127 A 
ATOM     18  C   UNL     1       3.952   0.705  10.352  0.00  0.00    +0.034 A 
ATOM     19  C   UNL     1       2.635   0.481  10.707  0.00  0.00    +0.022 A 
ATOM     20  C   UNL     1       1.658   0.407   9.731  0.00  0.00    +0.046 A 
ATOM     21 CL   UNL     1       0.004   0.127  10.177  0.00  0.00    -0.083 Cl
BRANCH  17  22
ATOM     22  N   UNL     1       5.703   1.095   8.640  0.00  0.00    +0.056 N 
ATOM     23  O   UNL     1       6.563   1.159   9.500  0.00  0.00    -0.126 OA
ATOM     24  O   UNL     1       6.003   1.228   7.467  0.00  0.00    -0.126 OA
ENDBRANCH  17  22
ENDBRANCH  12  15
BRANCH   1  25
ATOM     25  O   UNL     1      -0.682   1.547   1.184  0.00  0.00    -0.492 OA
BRANCH  25  27
ATOM     26  C   UNL     1      -0.753   1.593  -1.232  0.00  0.00    +0.048 C 
ATOM     27  C   UNL     1      -0.013   1.086   0.008  0.00  0.00    +0.225 C 
ENDBRANCH  25  27
ENDBRANCH   1  25
TORSDOF 4
