REMARK  Name = ZINC09240084
REMARK  14 active torsions:
REMARK  status: ('A' for Active; 'I' for Inactive)
REMARK    1  A    between atoms: C_1  and  C_2
REMARK    2  A    between atoms: C_2  and  C_3
REMARK    3  A    between atoms: C_3  and  O_4
REMARK    4  A    between atoms: O_4  and  C_5
REMARK    5  A    between atoms: C_9  and  C_11
REMARK    6  A    between atoms: C_14  and  C_15
REMARK    7  A    between atoms: C_14  and  O_22
REMARK    8  A    between atoms: C_18  and  C_21
REMARK    9  A    between atoms: N_27  and  C_28
REMARK   10  A    between atoms: C_28  and  C_29
REMARK   11  A    between atoms: C_29  and  C_30
REMARK   12  A    between atoms: C_30  and  N_64
REMARK   13  A    between atoms: C_31  and  N_64
REMARK   14  A    between atoms: C_32  and  N_64
REMARK                            x       y       z     vdW  Elec       q    Type
REMARK                         _______ _______ _______ _____ _____    ______ ____
ROOT
ATOM      1  C   UNL     1      -2.860   0.975   0.062  0.00  0.00    +0.145 C 
ATOM      2  C   UNL     1      -3.141   0.496  -1.343  0.00  0.00    +0.071 C 
ATOM      3  C   UNL     1      -3.004   1.220  -2.510  0.00  0.00    +0.133 C 
ATOM      4  C   UNL     1      -3.571  -0.837  -1.221  0.00  0.00    +0.249 C 
ATOM      5  O   UNL     1      -3.893  -1.571  -2.138  0.00  0.00    -0.282 OA
ATOM      6  C   UNL     1      -3.564  -1.196   0.224  0.00  0.00    +0.288 C 
ATOM      7  O   UNL     1      -3.882  -2.278   0.673  0.00  0.00    -0.266 OA
ATOM      8  N   UNL     1      -3.153  -0.148   0.957  0.00  0.00    -0.284 N 
ENDROOT
BRANCH   3   9
ATOM      9  C   UNL     1      -3.178   0.556  -3.813  0.00  0.00    +0.017 A 
ATOM     10  C   UNL     1      -2.480  -0.620  -4.102  0.00  0.00    +0.012 A 
ATOM     11  C   UNL     1      -2.652  -1.238  -5.323  0.00  0.00    +0.004 A 
ATOM     12  C   UNL     1      -3.506  -0.692  -6.265  0.00  0.00    -0.050 A 
ATOM     13  C   UNL     1      -4.197   0.475  -5.989  0.00  0.00    +0.004 A 
ATOM     14  C   UNL     1      -4.039   1.102  -4.771  0.00  0.00    +0.012 A 
ATOM     15  C   UNL     1      -3.684  -1.370  -7.599  0.00  0.00    +0.044 C 
ENDBRANCH   3   9
BRANCH   1  20
ATOM     16  C   UNL     1       0.274   3.074   0.288  0.00  0.00    +0.121 A 
ATOM     17  C   UNL     1       1.250   2.097   0.421  0.00  0.00    +0.045 A 
ATOM     18  C   UNL     1       0.892   0.763   0.441  0.00  0.00    +0.004 A 
ATOM     19  C   UNL     1      -0.438   0.402   0.329  0.00  0.00    +0.006 A 
ATOM     20  C   UNL     1      -1.412   1.373   0.191  0.00  0.00    -0.019 A 
ATOM     21  C   UNL     1      -1.059   2.709   0.176  0.00  0.00    +0.051 A 
BRANCH  16  22
ATOM     22  O   UNL     1       0.625   4.387   0.268  0.00  0.00    -0.492 OA
BRANCH  22  23
ATOM     23  C   UNL     1       2.016   4.689   0.387  0.00  0.00    +0.229 C 
BRANCH  23  25
ATOM     24  C   UNL     1       3.704   6.530   0.472  0.00  0.00    +0.007 C 
ATOM     25  C   UNL     1       2.214   6.206   0.344  0.00  0.00    +0.038 C 
ENDBRANCH  23  25
ENDBRANCH  22  23
ENDBRANCH  16  22
ENDBRANCH   1  20
BRANCH   3  26
ATOM     26  O   UNL     1      -2.710   2.536  -2.456  0.00  0.00    -0.506 OA
ATOM     27  H   UNL     1      -2.648   2.902  -3.385  0.00  0.00    +0.292 HD
ENDBRANCH   3  26
BRANCH   8  28
ATOM     28  C   UNL     1      -3.019  -0.130   2.416  0.00  0.00    +0.107 C 
BRANCH  28  29
ATOM     29  C   UNL     1      -4.338   0.328   3.043  0.00  0.00    +0.000 C 
BRANCH  29  30
ATOM     30  C   UNL     1      -4.198   0.346   4.567  0.00  0.00    -0.078 C 
BRANCH  30  33
ATOM     31  C   UNL     1      -5.449   0.591   6.625  0.00  0.00    -0.097 C 
ATOM     32  C   UNL     1      -5.751   2.185   4.828  0.00  0.00    -0.097 C 
ATOM     33  N   UNL     1      -5.485   0.769   5.158  0.00  0.00    +0.376 N 
ATOM     34  H   UNL     1      -6.237   0.189   4.770  0.00  0.00    -0.083 HD
ENDBRANCH  30  33
ENDBRANCH  29  30
ENDBRANCH  28  29
ENDBRANCH   8  28
TORSDOF 10
