REMARK  Name = ZINC13500657
REMARK  12 active torsions:
REMARK  status: ('A' for Active; 'I' for Inactive)
REMARK    1  A    between atoms: C_1  and  C_2
REMARK    2  A    between atoms: C_9  and  C_14
REMARK    3  A    between atoms: C_14  and  N_75
REMARK    4  A    between atoms: C_15  and  N_75
REMARK    5  A    between atoms: C_21  and  C_23
REMARK    6  A    between atoms: C_21  and  C_36
REMARK    7  A    between atoms: C_21  and  N_75
REMARK    8  A    between atoms: N_27  and  C_28
REMARK    9  A    between atoms: C_28  and  C_29
REMARK   10  A    between atoms: C_29  and  C_30
REMARK   11  A    between atoms: C_36  and  C_37
REMARK   12  A    between atoms: C_36  and  C_38
REMARK                            x       y       z     vdW  Elec       q    Type
REMARK                         _______ _______ _______ _____ _____    ______ ____
ROOT
ATOM      1  N   UNL     1       1.014   1.484   2.458  0.00  0.00    +0.391 N 
ATOM      2  H   UNL     1       1.246   0.795   1.732  0.00  0.00    -0.080 HD
ENDROOT
BRANCH   1   3
ATOM      3  C   UNL     1       1.781   1.169   3.682  0.00  0.00    -0.067 C 
ATOM      4  C   UNL     1       1.211   1.929   4.881  0.00  0.00    -0.015 C 
ATOM      5  C   UNL     1       2.017   1.581   6.135  0.00  0.00    -0.002 C 
ATOM      6  C   UNL     1       3.479   1.980   5.927  0.00  0.00    -0.000 C 
ATOM      7  C   UNL     1       4.050   1.220   4.727  0.00  0.00    -0.002 C 
ATOM      8  C   UNL     1       3.244   1.568   3.474  0.00  0.00    -0.015 C 
ENDBRANCH   1   3
BRANCH   1   9
ATOM      9  C   UNL     1       1.370   2.833   1.971  0.00  0.00    -0.036 C 
BRANCH   9  18
ATOM     10  C   UNL     1       3.190   7.447   7.541  0.00  0.00    +0.044 C 
ATOM     11  C   UNL     1       2.170   6.863   6.598  0.00  0.00    -0.050 A 
ATOM     12  C   UNL     1       0.850   7.289   6.664  0.00  0.00    +0.005 A 
ATOM     13  C   UNL     1      -0.100   6.769   5.811  0.00  0.00    +0.026 A 
ATOM     14  C   UNL     1       0.265   5.807   4.875  0.00  0.00    +0.049 A 
ATOM     15  C   UNL     1       1.604   5.378   4.812  0.00  0.00    -0.001 A 
ATOM     16  C   UNL     1       2.551   5.920   5.687  0.00  0.00    +0.013 A 
ATOM     17  C   UNL     1       1.979   4.365   3.823  0.00  0.00    +0.017 A 
ATOM     18  C   UNL     1       1.018   3.876   3.001  0.00  0.00    +0.001 A 
ATOM     19  C   UNL     1      -0.310   4.345   3.101  0.00  0.00    +0.251 A 
ATOM     20  O   UNL     1      -1.157   3.895   2.349  0.00  0.00    -0.268 OA
ATOM     21  N   UNL     1      -0.664   5.270   4.010  0.00  0.00    -0.322 N 
ATOM     22  H   UNL     1      -1.587   5.567   4.055  0.00  0.00    +0.169 HD
ENDBRANCH   9  18
ENDBRANCH   1   9
BRANCH   1  23
ATOM     23  C   UNL     1      -0.436   1.414   2.739  0.00  0.00    +0.006 C 
BRANCH  23  24
ATOM     24  C   UNL     1      -0.693   0.360   3.784  0.00  0.00    +0.138 A 
ATOM     25  N   UNL     1      -0.118  -0.815   3.869  0.00  0.00    -0.115 NA
ATOM     26  N   UNL     1      -0.605  -1.423   4.895  0.00  0.00    -0.023 NA
ATOM     27  N   UNL     1      -1.476  -0.667   5.467  0.00  0.00    -0.044 NA
ATOM     28  N   UNL     1      -1.555   0.443   4.814  0.00  0.00    -0.231 N 
BRANCH  28  29
ATOM     29  C   UNL     1      -2.423   1.580   5.133  0.00  0.00    +0.152 C 
BRANCH  29  30
ATOM     30  C   UNL     1      -3.766   1.412   4.419  0.00  0.00    +0.058 C 
BRANCH  30  31
ATOM     31  C   UNL     1      -4.659   2.581   4.747  0.00  0.00    -0.046 A 
ATOM     32  C   UNL     1      -5.501   2.522   5.841  0.00  0.00    +0.004 A 
ATOM     33  C   UNL     1      -6.316   3.596   6.145  0.00  0.00    +0.000 A 
ATOM     34  C   UNL     1      -6.297   4.726   5.348  0.00  0.00    +0.000 A 
ATOM     35  C   UNL     1      -5.458   4.783   4.251  0.00  0.00    +0.000 A 
ATOM     36  C   UNL     1      -4.639   3.710   3.950  0.00  0.00    +0.004 A 
ENDBRANCH  30  31
ENDBRANCH  29  30
ENDBRANCH  28  29
ENDBRANCH  23  24
BRANCH  23  37
ATOM     37  C   UNL     1      -1.165   1.041   1.447  0.00  0.00    -0.024 C 
ATOM     38  C   UNL     1      -0.766  -0.375   1.026  0.00  0.00    +0.006 C 
ATOM     39  C   UNL     1      -0.783   2.028   0.342  0.00  0.00    +0.006 C 
ENDBRANCH  23  37
ENDBRANCH   1  23
TORSDOF 9
