REMARK  Name = ZINC39634835
REMARK  16 active torsions:
REMARK  status: ('A' for Active; 'I' for Inactive)
REMARK    1  A    between atoms: C_1  and  C_2
REMARK    2  A    between atoms: C_4  and  C_11
REMARK    3  A    between atoms: N_5  and  C_7
REMARK    4  A    between atoms: C_7  and  C_8
REMARK    5  A    between atoms: C_7  and  C_9
REMARK    6  A    between atoms: C_7  and  C_10
REMARK    7  A    between atoms: C_15  and  C_24
REMARK    8  A    between atoms: N_26  and  C_27
REMARK    9  A    between atoms: C_27  and  C_28
REMARK   10  A    between atoms: C_28  and  N_29
REMARK   11  A    between atoms: N_29  and  C_30
REMARK   12  A    between atoms: N_29  and  C_33
REMARK   13  A    between atoms: C_30  and  C_31
REMARK   14  A    between atoms: C_30  and  C_32
REMARK   15  A    between atoms: C_33  and  C_34
REMARK   16  A    between atoms: C_33  and  C_35
REMARK                            x       y       z     vdW  Elec       q    Type
REMARK                         _______ _______ _______ _____ _____    ______ ____
ROOT
ATOM      1  C   UNL     1      -1.926  -4.110  -1.246  0.00  0.00    +0.265 C 
ATOM      2  O   UNL     1      -2.169  -4.618  -2.325  0.00  0.00    -0.268 OA
ATOM      3  N   UNL     1      -1.843  -4.879  -0.143  0.00  0.00    -0.295 N 
ATOM      4  C   UNL     1      -1.702  -4.436   1.264  0.00  0.00    +0.121 C 
ATOM      5  C   UNL     1      -2.604  -5.399   2.069  0.00  0.00    +0.100 C 
ATOM      6  C   UNL     1      -2.711  -6.660   1.194  0.00  0.00    -0.004 C 
ATOM      7  C   UNL     1      -1.879  -6.359  -0.061  0.00  0.00    +0.115 C 
ATOM      8  C   UNL     1      -2.137  -7.865   1.933  0.00  0.00    -0.010 C 
ATOM      9  C   UNL     1      -2.307  -9.117   1.067  0.00  0.00    -0.082 C 
ATOM     10  N   UNL     1      -3.731  -9.326   0.780  0.00  0.00    +0.379 N 
ATOM     11  C   UNL     1      -4.253  -8.204  -0.011  0.00  0.00    -0.082 C 
ATOM     12  C   UNL     1      -4.165  -6.914   0.810  0.00  0.00    -0.010 C 
ATOM     13  H   UNL     1      -3.846 -10.183   0.261  0.00  0.00    -0.086 HD
ATOM     14  H   UNL     1      -4.242  -9.390   1.648  0.00  0.00    -0.086 HD
ENDROOT
BRANCH   1  18
ATOM     15  C   UNL     1      -0.826   0.555   0.410  0.00  0.00    +0.067 C 
ATOM     16  C   UNL     1      -1.246  -0.616  -0.441  0.00  0.00    +0.061 A 
ATOM     17  C   UNL     1      -1.272  -1.954  -0.043  0.00  0.00    +0.057 A 
ATOM     18  C   UNL     1      -1.722  -2.656  -1.147  0.00  0.00    +0.124 A 
ATOM     19  N   UNL     1      -1.936  -1.730  -2.128  0.00  0.00    -0.254 N 
ATOM     20  N   UNL     1      -1.655  -0.558  -1.682  0.00  0.00    -0.175 NA
BRANCH  19  21
ATOM     21  C   UNL     1      -2.419  -2.026  -3.479  0.00  0.00    +0.056 C 
ATOM     22  C   UNL     1      -3.747  -2.781  -3.392  0.00  0.00    +0.036 C 
ATOM     23  C   UNL     1      -2.625  -0.718  -4.245  0.00  0.00    +0.036 C 
ATOM     24  C   UNL     1      -1.389  -2.889  -4.210  0.00  0.00    +0.036 C 
ENDBRANCH  19  21
ENDBRANCH   1  18
BRANCH   5  25
ATOM     25  C   UNL     1      -1.967  -5.729   3.394  0.00  0.00    +0.218 C 
ATOM     26  O   UNL     1      -0.763  -5.661   3.523  0.00  0.00    -0.275 OA
ATOM     27  N   UNL     1      -2.736  -6.101   4.437  0.00  0.00    -0.317 N 
ATOM     28  H   UNL     1      -3.690  -6.226   4.316  0.00  0.00    +0.149 HD
BRANCH  27  29
ATOM     29  C   UNL     1      -2.131  -6.315   5.754  0.00  0.00    +0.085 C 
BRANCH  29  30
ATOM     30  C   UNL     1      -3.214  -6.727   6.753  0.00  0.00    -0.059 C 
BRANCH  30  31
ATOM     31  N   UNL     1      -2.628  -6.835   8.095  0.00  0.00    +0.384 N 
ATOM     32  H   UNL     1      -2.178  -5.965   8.336  0.00  0.00    -0.081 HD
BRANCH  31  33
ATOM     33  C   UNL     1      -3.687  -7.126   9.070  0.00  0.00    -0.074 C 
ATOM     34  C   UNL     1      -3.099  -7.108  10.483  0.00  0.00    -0.014 C 
ATOM     35  C   UNL     1      -4.785  -6.067   8.961  0.00  0.00    -0.014 C 
ENDBRANCH  31  33
BRANCH  31  36
ATOM     36  C   UNL     1      -1.637  -7.920   8.110  0.00  0.00    -0.074 C 
ATOM     37  C   UNL     1      -2.073  -9.023   7.144  0.00  0.00    -0.014 C 
ATOM     38  C   UNL     1      -0.275  -7.372   7.678  0.00  0.00    -0.014 C 
ENDBRANCH  31  36
ENDBRANCH  30  31
ENDBRANCH  29  30
ENDBRANCH  27  29
ENDBRANCH   5  25
TORSDOF 8
