REMARK  Name = ZINC53857018
REMARK  2 active torsions:
REMARK  status: ('A' for Active; 'I' for Inactive)
REMARK    1  A    between atoms: C_5  and  C_7
REMARK    2  A    between atoms: C_16  and  C_18
REMARK                            x       y       z     vdW  Elec       q    Type
REMARK                         _______ _______ _______ _____ _____    ______ ____
ROOT
ATOM      1  C   UNL     1       1.249  -2.161  -0.022  0.00  0.00    +0.024 A 
ATOM      2  C   UNL     1       0.584  -3.030   0.792  0.00  0.00    +0.044 A 
ATOM      3  C   UNL     1       0.745  -4.409   0.621  0.00  0.00    +0.086 A 
ATOM      4  C   UNL     1       1.614  -4.796  -0.418  0.00  0.00    +0.102 A 
ATOM      5  S   UNL     1       2.154  -3.253  -1.106  0.00  0.00    -0.081 S 
ATOM      6  C   UNL     1       1.864  -6.139  -0.697  0.00  0.00    +0.266 A 
ATOM      7  O   UNL     1       2.618  -6.462  -1.600  0.00  0.00    -0.267 OA
ATOM      8  N   UNL     1       1.246  -7.077   0.061  0.00  0.00    -0.306 N 
ATOM      9  H   UNL     1       1.397  -8.021  -0.106  0.00  0.00    +0.170 HD
ATOM     10  C   UNL     1       0.406  -6.677   1.064  0.00  0.00    +0.144 A 
ATOM     11  N   UNL     1       0.168  -5.423   1.332  0.00  0.00    -0.228 NA
ENDROOT
BRANCH   1  16
ATOM     12  C   UNL     1      -0.017   1.375   0.010  0.00  0.00    +0.001 A 
ATOM     13  C   UNL     1       1.170   2.087   0.002  0.00  0.00    +0.001 A 
ATOM     14  C   UNL     1       2.383   1.422  -0.013  0.00  0.00    +0.020 A 
ATOM     15  C   UNL     1       2.416   0.041  -0.021  0.00  0.00    +0.049 A 
ATOM     16  C   UNL     1       1.222  -0.683  -0.013  0.00  0.00    +0.007 A 
ATOM     17  C   UNL     1       0.002  -0.004   0.002  0.00  0.00    +0.010 A 
ATOM     18 CL   UNL     1       3.938  -0.793  -0.041  0.00  0.00    -0.083 Cl
ENDBRANCH   1  16
BRANCH  10  19
ATOM     19  C   UNL     1      -0.261  -7.712   1.882  0.00  0.00    +0.054 A 
ATOM     20  C   UNL     1      -0.031  -9.070   1.635  0.00  0.00    +0.016 A 
ATOM     21  C   UNL     1      -0.680 -10.000   2.430  0.00  0.00    +0.020 A 
ATOM     22  C   UNL     1      -1.526  -9.562   3.432  0.00  0.00    +0.112 A 
ATOM     23  N   UNL     1      -1.724  -8.274   3.643  0.00  0.00    -0.243 NA
ATOM     24  C   UNL     1      -1.126  -7.351   2.917  0.00  0.00    +0.140 A 
ATOM     25 CL   UNL     1      -1.422  -5.672   3.247  0.00  0.00    -0.061 Cl
ENDBRANCH  10  19
TORSDOF 2
