REMARK  Name = ZINC06331631
REMARK  6 active torsions:
REMARK  status: ('A' for Active; 'I' for Inactive)
REMARK    1  A    between atoms: C_3  and  C_10
REMARK    2  A    between atoms: C_5  and  N_7
REMARK    3  A    between atoms: N_11  and  N_12
REMARK    4  A    between atoms: C_15  and  S_18
REMARK    5  A    between atoms: S_18  and  C_19
REMARK    6  A    between atoms: C_19  and  C_20
REMARK                            x       y       z     vdW  Elec       q    Type
REMARK                         _______ _______ _______ _____ _____    ______ ____
ROOT
ATOM      1  N   UNL     1       4.846   4.169  -0.023  0.00  0.00    -0.205 N 
ATOM      2  C   UNL     1       4.831   5.552  -0.016  0.00  0.00    +0.232 A 
ATOM      3  N   UNL     1       3.758   6.314   0.004  0.00  0.00    -0.186 NA
ATOM      4  C   UNL     1       4.121   7.602   0.006  0.00  0.00    +0.210 A 
ATOM      5  N   UNL     1       5.430   7.676  -0.013  0.00  0.00    -0.144 NA
ATOM      6  N   UNL     1       5.915   6.357  -0.023  0.00  0.00    -0.245 N 
ATOM      7  H   UNL     1       5.691   3.693  -0.034  0.00  0.00    +0.177 HD
ATOM      8  H   UNL     1       6.844   6.080  -0.033  0.00  0.00    +0.192 HD
ENDROOT
BRANCH   1  10
ATOM      9  C   UNL     1       3.654   2.158  -0.022  0.00  0.00    +0.138 C 
ATOM     10  N   UNL     1       3.640   3.456  -0.015  0.00  0.00    -0.188 NA
BRANCH   9  13
ATOM     11  C   UNL     1      -0.017   1.379   0.010  0.00  0.00    +0.003 A 
ATOM     12  C   UNL     1       1.167   2.088   0.002  0.00  0.00    +0.009 A 
ATOM     13  C   UNL     1       2.385   1.407  -0.013  0.00  0.00    -0.003 A 
ATOM     14  C   UNL     1       2.397   0.009  -0.021  0.00  0.00    +0.042 A 
ATOM     15  C   UNL     1       1.206  -0.686  -0.013  0.00  0.00    +0.127 A 
ATOM     16  C   UNL     1       0.002  -0.004   0.002  0.00  0.00    +0.033 A 
BRANCH  15  17
ATOM     17  N   UNL     1       1.216  -2.167  -0.021  0.00  0.00    +0.056 N 
ATOM     18  O   UNL     1       2.267  -2.764  -0.034  0.00  0.00    -0.126 OA
ATOM     19  O   UNL     1       0.173  -2.778  -0.014  0.00  0.00    -0.126 OA
ENDBRANCH  15  17
ENDBRANCH   9  13
ENDBRANCH   1  10
BRANCH   4  20
ATOM     20  S   UNL     1       3.018   8.976   0.029  0.00  0.00    -0.080 S 
BRANCH  20  21
ATOM     21  C   UNL     1       4.116  10.420   0.021  0.00  0.00    +0.112 C 
BRANCH  21  22
ATOM     22  C   UNL     1       3.289  11.680   0.040  0.00  0.00    -0.037 A 
ATOM     23  C   UNL     1       2.888  12.260  -1.149  0.00  0.00    +0.007 A 
ATOM     24  C   UNL     1       2.129  13.415  -1.132  0.00  0.00    +0.038 A 
ATOM     25  C   UNL     1       1.772  13.991   0.075  0.00  0.00    +0.123 A 
ATOM     26  C   UNL     1       2.174  13.408   1.265  0.00  0.00    +0.038 A 
ATOM     27  C   UNL     1       2.928  12.250   1.246  0.00  0.00    +0.007 A 
ATOM     28  F   UNL     1       1.030  15.120   0.092  0.00  0.00    -0.205 F 
ENDBRANCH  21  22
ENDBRANCH  20  21
ENDBRANCH   4  20
TORSDOF 6
