REMARK  Name = ZINC41584192
REMARK  15 active torsions:
REMARK  status: ('A' for Active; 'I' for Inactive)
REMARK    1  A    between atoms: C_1  and  C_2
REMARK    2  A    between atoms: C_2  and  C_3
REMARK    3  A    between atoms: C_3  and  C_4
REMARK    4  A    between atoms: C_4  and  N_5
REMARK    5  A    between atoms: N_5  and  C_6
REMARK    6  A    between atoms: N_5  and  C_10
REMARK    7  A    between atoms: C_6  and  C_7
REMARK    8  A    between atoms: C_7  and  C_8
REMARK    9  A    between atoms: C_8  and  C_9
REMARK   10  A    between atoms: C_10  and  C_11
REMARK   11  A    between atoms: C_12  and  O_34
REMARK   12  A    between atoms: C_14  and  C_33
REMARK   13  A    between atoms: C_19  and  C_20
REMARK   14  A    between atoms: N_22  and  C_29
REMARK   15  A    between atoms: C_29  and  C_30
REMARK                            x       y       z     vdW  Elec       q    Type
REMARK                         _______ _______ _______ _____ _____    ______ ____
ROOT
ATOM      1  C   UNL     1      -4.416  -4.135   0.393  0.00  0.00    +0.020 A 
ATOM      2  C   UNL     1      -5.104  -3.890   1.570  0.00  0.00    +0.122 A 
ATOM      3  C   UNL     1      -6.439  -4.263   1.701  0.00  0.00    +0.050 A 
ATOM      4  C   UNL     1      -7.086  -4.876   0.665  0.00  0.00    -0.033 A 
ATOM      5  C   UNL     1      -6.407  -5.129  -0.526  0.00  0.00    +0.071 A 
ATOM      6  C   UNL     1      -5.061  -4.752  -0.670  0.00  0.00    +0.145 A 
ATOM      7  O   UNL     1      -4.642  -5.099  -1.906  0.00  0.00    -0.451 OA
ATOM      8  C   UNL     1      -5.633  -5.689  -2.617  0.00  0.00    +0.176 C 
ATOM      9  C   UNL     1      -5.529  -6.152  -3.894  0.00  0.00    +0.060 C 
ATOM     10  C   UNL     1      -6.794  -5.755  -1.802  0.00  0.00    +0.232 C 
ATOM     11  O   UNL     1      -7.883  -6.219  -2.099  0.00  0.00    -0.283 OA
ATOM     12  C   UNL     1      -8.531  -5.279   0.811  0.00  0.00    +0.045 C 
ENDROOT
BRANCH   9  13
ATOM     13  C   UNL     1      -6.721  -6.611  -4.604  0.00  0.00    +0.004 A 
ATOM     14  C   UNL     1      -7.983  -6.058  -4.545  0.00  0.00    +0.094 A 
ATOM     15  N   UNL     1      -8.823  -6.763  -5.343  0.00  0.00    -0.346 N 
ATOM     16  C   UNL     1      -8.152  -7.802  -5.956  0.00  0.00    +0.050 A 
ATOM     17  C   UNL     1      -6.814  -7.754  -5.532  0.00  0.00    +0.007 A 
ATOM     18  C   UNL     1      -5.898  -8.691  -6.003  0.00  0.00    +0.010 A 
ATOM     19  C   UNL     1      -6.311  -9.663  -6.890  0.00  0.00    +0.001 A 
ATOM     20  C   UNL     1      -7.631  -9.709  -7.312  0.00  0.00    +0.002 A 
ATOM     21  C   UNL     1      -8.550  -8.793  -6.846  0.00  0.00    +0.026 A 
BRANCH  15  22
ATOM     22  C   UNL     1     -10.245  -6.463  -5.529  0.00  0.00    +0.118 C 
ATOM     23  C   UNL     1     -11.075  -7.317  -4.568  0.00  0.00    +0.027 C 
ENDBRANCH  15  22
ENDBRANCH   9  13
BRANCH   2  24
ATOM     24  O   UNL     1      -4.470  -3.281   2.605  0.00  0.00    -0.506 OA
ATOM     25  H   UNL     1      -4.537  -2.317   2.595  0.00  0.00    +0.292 HD
ENDBRANCH   2  24
BRANCH   1  26
ATOM     26  C   UNL     1      -2.971  -3.727   0.264  0.00  0.00    -0.036 C 
BRANCH  26  27
ATOM     27  N   UNL     1      -2.887  -2.434  -0.428  0.00  0.00    +0.383 N 
ATOM     28  H   UNL     1      -3.367  -2.495  -1.314  0.00  0.00    -0.081 HD
BRANCH  27  29
ATOM     29  C   UNL     1      -3.515  -1.395   0.398  0.00  0.00    -0.078 C 
BRANCH  29  30
ATOM     30  C   UNL     1      -3.539  -0.074  -0.374  0.00  0.00    -0.019 C 
BRANCH  30  32
ATOM     31  C   UNL     1      -4.218   2.329  -0.286  0.00  0.00    +0.004 C 
ATOM     32  C   UNL     1      -4.193   1.008   0.487  0.00  0.00    -0.005 C 
ENDBRANCH  30  32
ENDBRANCH  29  30
ENDBRANCH  27  29
BRANCH  27  33
ATOM     33  C   UNL     1      -1.477  -2.092  -0.658  0.00  0.00    -0.078 C 
BRANCH  33  34
ATOM     34  C   UNL     1      -0.865  -3.088  -1.646  0.00  0.00    -0.019 C 
BRANCH  34  35
ATOM     35  C   UNL     1       0.625  -2.787  -1.816  0.00  0.00    -0.005 C 
ATOM     36  C   UNL     1       1.263  -3.855  -2.706  0.00  0.00    +0.004 C 
ENDBRANCH  34  35
ENDBRANCH  33  34
ENDBRANCH  27  33
ENDBRANCH  26  27
ENDBRANCH   1  26
TORSDOF 11
