REMARK  Name = ZINC39636482
REMARK  7 active torsions:
REMARK  status: ('A' for Active; 'I' for Inactive)
REMARK    1  A    between atoms: C_1  and  C_2
REMARK    2  A    between atoms: C_5  and  C_37
REMARK    3  A    between atoms: C_6  and  C_8
REMARK    4  A    between atoms: C_8  and  N_9
REMARK    5  A    between atoms: C_10  and  C_12
REMARK    6  A    between atoms: C_23  and  C_25
REMARK    7  A    between atoms: C_31  and  C_33
REMARK                            x       y       z     vdW  Elec       q    Type
REMARK                         _______ _______ _______ _____ _____    ______ ____
ROOT
ATOM      1  C   UNL     1       3.085  -4.431   4.205  0.00  0.00    +0.100 C 
ATOM      2  C   UNL     1       4.035  -3.214   4.273  0.00  0.00    +0.121 C 
ATOM      3  N   UNL     1       4.101  -2.871   5.713  0.00  0.00    -0.299 N 
ATOM      4  C   UNL     1       4.135  -4.183   6.403  0.00  0.00    +0.115 C 
ATOM      5  C   UNL     1       3.156  -5.066   5.604  0.00  0.00    -0.004 C 
ATOM      6  C   UNL     1       3.689  -6.493   5.510  0.00  0.00    -0.010 C 
ATOM      7  C   UNL     1       3.695  -7.123   6.906  0.00  0.00    -0.082 C 
ATOM      8  N   UNL     1       2.332  -7.123   7.451  0.00  0.00    +0.379 N 
ATOM      9  C   UNL     1       1.863  -5.743   7.625  0.00  0.00    -0.082 C 
ATOM     10  C   UNL     1       1.779  -5.054   6.260  0.00  0.00    -0.010 C 
ATOM     11  C   UNL     1       4.126  -1.644   6.269  0.00  0.00    +0.236 C 
ATOM     12  O   UNL     1       4.182  -1.526   7.475  0.00  0.00    -0.274 OA
ATOM     13  H   UNL     1       1.717  -7.609   6.816  0.00  0.00    -0.086 HD
ATOM     14  H   UNL     1       2.329  -7.593   8.344  0.00  0.00    -0.086 HD
ENDROOT
BRANCH  11  15
ATOM     15  C   UNL     1       4.085  -0.418   5.393  0.00  0.00    +0.162 C 
ATOM     16  C   UNL     1       5.490  -0.133   4.823  0.00  0.00    +0.033 C 
ATOM     17  C   UNL     1       5.574   1.416   4.865  0.00  0.00    +0.021 C 
ATOM     18  C   UNL     1       4.789   1.735   6.162  0.00  0.00    +0.109 C 
ATOM     19  N   UNL     1       3.687   0.752   6.189  0.00  0.00    -0.283 N 
ATOM     20  C   UNL     1       2.513   0.901   6.834  0.00  0.00    +0.320 C 
ATOM     21  O   UNL     1       1.678   0.022   6.785  0.00  0.00    -0.266 OA
BRANCH  20  22
ATOM     22  C   UNL     1       2.237   2.159   7.616  0.00  0.00    +0.470 C 
ATOM     23  F   UNL     1       0.964   2.081   8.192  0.00  0.00    -0.162 F 
ATOM     24  F   UNL     1       3.196   2.302   8.624  0.00  0.00    -0.162 F 
ATOM     25  F   UNL     1       2.294   3.263   6.759  0.00  0.00    -0.162 F 
ENDBRANCH  20  22
ENDBRANCH  11  15
BRANCH   1  27
ATOM     26  N   UNL     1       0.835  -4.806   3.250  0.00  0.00    -0.311 N 
ATOM     27  C   UNL     1       1.679  -3.983   3.903  0.00  0.00    +0.218 C 
ATOM     28  O   UNL     1       1.306  -2.881   4.247  0.00  0.00    -0.275 OA
ATOM     29  H   UNL     1       1.132  -5.687   2.975  0.00  0.00    +0.149 HD
BRANCH  26  30
ATOM     30  C   UNL     1      -0.533  -4.370   2.957  0.00  0.00    +0.139 C 
BRANCH  30  36
ATOM     31  C   UNL     1      -2.235  -6.344  -1.316  0.00  0.00    +0.044 C 
ATOM     32  C   UNL     1      -2.079  -6.411   0.182  0.00  0.00    -0.050 A 
ATOM     33  C   UNL     1      -2.606  -7.478   0.885  0.00  0.00    +0.003 A 
ATOM     34  C   UNL     1      -2.462  -7.539   2.258  0.00  0.00    +0.004 A 
ATOM     35  C   UNL     1      -1.792  -6.533   2.929  0.00  0.00    -0.046 A 
ATOM     36  C   UNL     1      -1.264  -5.467   2.226  0.00  0.00    -0.027 A 
ATOM     37  C   UNL     1      -1.403  -5.408   0.852  0.00  0.00    +0.008 A 
ATOM     38  C   UNL     1      -1.636  -6.600   4.426  0.00  0.00    +0.044 C 
ENDBRANCH  30  36
ENDBRANCH  26  30
ENDBRANCH   1  27
TORSDOF 5
