REMARK  Name = ZINC50306252
REMARK  8 active torsions:
REMARK  status: ('A' for Active; 'I' for Inactive)
REMARK    1  A    between atoms: C_1  and  C_2
REMARK    2  A    between atoms: C_5  and  C_7
REMARK    3  A    between atoms: C_7  and  C_9
REMARK    4  A    between atoms: C_7  and  N_10
REMARK    5  A    between atoms: N_10  and  C_11
REMARK    6  A    between atoms: C_12  and  C_14
REMARK    7  A    between atoms: C_15  and  N_21
REMARK    8  A    between atoms: C_16  and  C_20
REMARK                            x       y       z     vdW  Elec       q    Type
REMARK                         _______ _______ _______ _____ _____    ______ ____
ROOT
ATOM      1  N   UNL     1       2.236  -4.176   0.900  0.00  0.00    -0.292 N 
ATOM      2  C   UNL     1       3.518  -3.474   0.809  0.00  0.00    +0.133 C 
ATOM      3  C   UNL     1       1.941  -4.901   1.997  0.00  0.00    +0.269 C 
ATOM      4  O   UNL     1       0.921  -5.563   2.033  0.00  0.00    -0.268 OA
ENDROOT
BRANCH   3   5
ATOM      5  C   UNL     1       2.854  -4.892   3.155  0.00  0.00    +0.168 A 
ATOM      6  C   UNL     1       2.738  -5.682   4.327  0.00  0.00    +0.078 A 
ATOM      7  C   UNL     1       3.798  -5.333   5.104  0.00  0.00    +0.054 A 
ATOM      8  N   UNL     1       4.498  -4.389   4.423  0.00  0.00    -0.279 N 
ATOM      9  H   UNL     1       5.308  -3.960   4.743  0.00  0.00    +0.189 HD
ATOM     10  N   UNL     1       3.938  -4.151   3.292  0.00  0.00    -0.167 NA
ATOM     11  C   UNL     1       4.132  -5.889   6.465  0.00  0.00    +0.067 C 
BRANCH   6  12
ATOM     12  N   UNL     1       1.741  -6.623   4.622  0.00  0.00    -0.355 N 
ATOM     13  H   UNL     1       1.028  -6.790   3.986  0.00  0.00    +0.142 HD
ATOM     14  H   UNL     1       1.764  -7.107   5.463  0.00  0.00    +0.142 HD
ENDBRANCH   6  12
ENDBRANCH   3   5
BRANCH   1  15
ATOM     15  C   UNL     1       1.274  -4.092  -0.202  0.00  0.00    +0.110 C 
ATOM     16  C   UNL     1       1.910  -4.647  -1.478  0.00  0.00    +0.034 C 
BRANCH  15  21
ATOM     17  C   UNL     1       0.769   1.513  -0.856  0.00  0.00    +0.051 C 
ATOM     18  C   UNL     1       0.645   0.016  -0.731  0.00  0.00    -0.013 A 
ATOM     19  C   UNL     1      -0.456  -0.763  -0.866  0.00  0.00    +0.011 A 
ATOM     20  C   UNL     1      -0.333  -2.131  -0.706  0.00  0.00    +0.013 A 
ATOM     21  C   UNL     1       0.885  -2.652  -0.420  0.00  0.00    +0.010 A 
ATOM     22  S   UNL     1       1.911  -1.191  -0.374  0.00  0.00    -0.097 S 
ENDBRANCH  15  21
ENDBRANCH   1  15
TORSDOF 4
