REMARK  Name = ZINC20294859
REMARK  11 active torsions:
REMARK  status: ('A' for Active; 'I' for Inactive)
REMARK    1  A    between atoms: C_1  and  C_2
REMARK    2  A    between atoms: C_3  and  C_27
REMARK    3  A    between atoms: C_4  and  N_12
REMARK    4  A    between atoms: C_6  and  C_7
REMARK    5  A    between atoms: N_9  and  C_10
REMARK    6  A    between atoms: N_9  and  C_11
REMARK    7  A    between atoms: N_12  and  C_13
REMARK    8  A    between atoms: C_13  and  N_15
REMARK    9  A    between atoms: N_18  and  C_21
REMARK   10  A    between atoms: C_27  and  O_29
REMARK   11  A    between atoms: O_29  and  C_30
REMARK                            x       y       z     vdW  Elec       q    Type
REMARK                         _______ _______ _______ _____ _____    ______ ____
ROOT
ATOM      1  N   UNL     1       1.205   2.267   0.021  0.00  0.00    -0.291 N 
ATOM      2  H   UNL     1       1.312   3.359  -0.049  0.00  0.00    +0.154 HD
ENDROOT
BRANCH   1   6
ATOM      3  C   UNL     1       6.098   1.182   0.286  0.00  0.00    +0.046 C 
ATOM      4  C   UNL     1       4.627   0.854   0.252  0.00  0.00    -0.015 A 
ATOM      5  C   UNL     1       3.672   1.854   0.146  0.00  0.00    +0.091 A 
ATOM      6  C   UNL     1       2.327   1.469   0.120  0.00  0.00    +0.086 A 
ATOM      7  S   UNL     1       2.416  -0.257   0.249  0.00  0.00    -0.068 S 
ATOM      8  C   UNL     1       4.188  -0.439   0.323  0.00  0.00    +0.079 A 
BRANCH   8   9
ATOM      9  C   UNL     1       4.976  -1.667   0.438  0.00  0.00    +0.253 C 
ATOM     10  O   UNL     1       6.192  -1.609   0.482  0.00  0.00    -0.269 OA
ATOM     11  N   UNL     1       4.357  -2.863   0.495  0.00  0.00    -0.303 N 
ATOM     12  C   UNL     1       5.146  -4.092   0.611  0.00  0.00    +0.132 C 
ATOM     13  C   UNL     1       2.895  -2.934   0.442  0.00  0.00    +0.132 C 
ENDBRANCH   8   9
BRANCH   5  14
ATOM     14  C   UNL     1       4.058   3.267   0.064  0.00  0.00    +0.342 C 
ATOM     15  O   UNL     1       4.177   3.925   1.080  0.00  0.00    -0.245 OA
BRANCH  14  16
ATOM     16  O   UNL     1       4.280   3.837  -1.138  0.00  0.00    -0.464 OA
ATOM     17  C   UNL     1       4.659   5.238  -1.143  0.00  0.00    +0.280 C 
ENDBRANCH  14  16
ENDBRANCH   5  14
ENDBRANCH   1   6
BRANCH   1  18
ATOM     18  C   UNL     1      -0.021   1.708   0.011  0.00  0.00    +0.137 C 
ATOM     19  S   UNL     1      -0.185   0.004  -0.015  0.00  0.00    -0.018 S 
BRANCH  18  20
ATOM     20  N   UNL     1      -1.119   2.490   0.017  0.00  0.00    -0.316 N 
ATOM     21  C   UNL     1      -1.003   3.954  -0.068  0.00  0.00    +0.088 C 
ATOM     22  C   UNL     1      -1.925   4.446  -1.195  0.00  0.00    -0.059 C 
ATOM     23  N   UNL     1      -3.285   3.943  -0.962  0.00  0.00    +0.384 N 
ATOM     24  C   UNL     1      -3.328   2.476  -1.014  0.00  0.00    -0.059 C 
ATOM     25  C   UNL     1      -2.464   1.903   0.115  0.00  0.00    +0.088 C 
ATOM     26  H   UNL     1      -3.586   4.252   0.050  0.00  0.00    -0.081 HD
BRANCH  23  27
ATOM     27  C   UNL     1      -4.234   4.532  -1.917  0.00  0.00    -0.068 C 
ATOM     28  C   UNL     1      -3.805   4.183  -3.343  0.00  0.00    -0.015 C 
ATOM     29  C   UNL     1      -4.794   4.795  -4.338  0.00  0.00    -0.002 C 
ATOM     30  C   UNL     1      -4.811   6.316  -4.168  0.00  0.00    -0.000 C 
ATOM     31  C   UNL     1      -5.241   6.665  -2.741  0.00  0.00    -0.002 C 
ATOM     32  C   UNL     1      -4.252   6.052  -1.747  0.00  0.00    -0.015 C 
ENDBRANCH  23  27
ENDBRANCH  18  20
ENDBRANCH   1  18
TORSDOF 7
