REMARK  Name = ZINC01061811
REMARK  5 active torsions:
REMARK  status: ('A' for Active; 'I' for Inactive)
REMARK    1  A    between atoms: C_6  and  C_7
REMARK    2  A    between atoms: C_9  and  C_31
REMARK    3  A    between atoms: C_10  and  N_30
REMARK    4  A    between atoms: N_11  and  C_19
REMARK    5  A    between atoms: C_20  and  C_28
REMARK                            x       y       z     vdW  Elec       q    Type
REMARK                         _______ _______ _______ _____ _____    ______ ____
ROOT
ATOM      1  C   UNL     1      -1.795   9.651  -2.442  0.00  0.00    +0.097 C 
ATOM      2  C   UNL     1      -2.004   9.233  -1.017  0.00  0.00    +0.077 C 
ATOM      3  C   UNL     1      -2.091   7.920  -0.674  0.00  0.00    +0.107 C 
ATOM      4  N   UNL     1      -1.985   6.947  -1.643  0.00  0.00    -0.253 N 
ATOM      5  C   UNL     1      -2.203   7.252  -2.962  0.00  0.00    +0.025 C 
ATOM      6  C   UNL     1      -2.127   8.529  -3.394  0.00  0.00    +0.025 C 
ATOM      7  C   UNL     1      -2.351   8.851  -4.744  0.00  0.00    +0.162 C 
ATOM      8  O   UNL     1      -2.293  10.012  -5.097  0.00  0.00    -0.292 OA
ATOM      9  C   UNL     1      -2.660   7.785  -5.759  0.00  0.00    +0.080 C 
ATOM     10  C   UNL     1      -2.016   6.469  -5.311  0.00  0.00    +0.014 C 
ATOM     11  C   UNL     1      -2.534   6.128  -3.912  0.00  0.00    +0.052 C 
ENDROOT
BRANCH   1  17
ATOM     12  C   UNL     1       0.651   9.125  -2.425  0.00  0.00    +0.008 A 
ATOM     13  C   UNL     1       1.974   9.486  -2.605  0.00  0.00    +0.050 A 
ATOM     14  C   UNL     1       2.295  10.779  -2.983  0.00  0.00    +0.166 A 
ATOM     15  C   UNL     1       1.281  11.713  -3.188  0.00  0.00    +0.167 A 
ATOM     16  C   UNL     1      -0.042  11.343  -3.012  0.00  0.00    +0.054 A 
ATOM     17  C   UNL     1      -0.355  10.050  -2.634  0.00  0.00    -0.031 A 
ATOM     18  O   UNL     1       1.849  12.900  -3.551  0.00  0.00    -0.453 OA
ATOM     19  C   UNL     1       3.190  12.575  -3.962  0.00  0.00    +0.466 C 
ATOM     20  O   UNL     1       3.497  11.382  -3.218  0.00  0.00    -0.453 OA
ENDBRANCH   1  17
BRANCH   4  21
ATOM     21  C   UNL     1      -1.661   5.647  -1.281  0.00  0.00    +0.095 A 
ATOM     22  C   UNL     1      -2.513   4.619  -0.906  0.00  0.00    +0.084 A 
ATOM     23  C   UNL     1      -1.915   3.338  -0.572  0.00  0.00    -0.018 A 
ATOM     24  C   UNL     1      -0.567   3.291  -0.665  0.00  0.00    -0.004 A 
ATOM     25  S   UNL     1      -0.093   4.914  -1.188  0.00  0.00    -0.076 S 
ATOM     26  C   UNL     1       0.317   2.115  -0.385  0.00  0.00    +0.043 C 
ATOM     27  C   UNL     1      -0.500   1.070   0.389  0.00  0.00    +0.005 C 
ATOM     28  C   UNL     1      -1.845   0.869  -0.317  0.00  0.00    +0.005 C 
ATOM     29  C   UNL     1      -2.715   2.115  -0.143  0.00  0.00    +0.037 C 
BRANCH  22  30
ATOM     30  C   UNL     1      -3.930   4.813  -0.850  0.00  0.00    +0.102 C 
ATOM     31  N   UNL     1      -5.055   4.967  -0.806  0.00  0.00    -0.191 NA
ENDBRANCH  22  30
ENDBRANCH   4  21
BRANCH   3  32
ATOM     32  N   UNL     1      -2.280   7.563   0.640  0.00  0.00    -0.345 N 
ATOM     33  H   UNL     1      -2.251   6.628   0.897  0.00  0.00    +0.144 HD
ATOM     34  H   UNL     1      -2.441   8.246   1.310  0.00  0.00    +0.144 HD
ENDBRANCH   3  32
BRANCH   2  35
ATOM     35  C   UNL     1      -2.120  10.235   0.000  0.00  0.00    +0.099 C 
ATOM     36  N   UNL     1      -2.212  11.029   0.807  0.00  0.00    -0.191 NA
ENDBRANCH   2  35
TORSDOF 5
