REMARK  Name = ZINC03283623
REMARK  12 active torsions:
REMARK  status: ('A' for Active; 'I' for Inactive)
REMARK    1  A    between atoms: C_1  and  C_2
REMARK    2  A    between atoms: C_5  and  N_9
REMARK    3  A    between atoms: C_6  and  C_8
REMARK    4  A    between atoms: N_11  and  C_31
REMARK    5  A    between atoms: C_14  and  C_17
REMARK    6  A    between atoms: C_17  and  C_18
REMARK    7  A    between atoms: N_20  and  C_21
REMARK    8  A    between atoms: C_24  and  O_29
REMARK    9  A    between atoms: C_25  and  O_27
REMARK   10  A    between atoms: O_27  and  C_28
REMARK   11  A    between atoms: O_29  and  C_30
REMARK   12  A    between atoms: C_31  and  C_32
REMARK                            x       y       z     vdW  Elec       q    Type
REMARK                         _______ _______ _______ _____ _____    ______ ____
ROOT
ATOM      1  N   UNL     1      -0.648  -4.431  -0.214  0.00  0.00    -0.226 NA
ATOM      2  C   UNL     1      -0.571  -5.072  -1.357  0.00  0.00    +0.164 C 
ATOM      3  N   UNL     1      -0.511  -6.434  -1.567  0.00  0.00    -0.245 N 
ATOM      4  C   UNL     1      -0.435  -6.962  -2.776  0.00  0.00    +0.235 C 
ATOM      5  O   UNL     1      -0.383  -8.161  -2.953  0.00  0.00    -0.274 OA
ATOM      6  C   UNL     1      -0.417  -5.973  -3.931  0.00  0.00    +0.149 C 
ATOM      7  S   UNL     1      -0.527  -4.386  -3.006  0.00  0.00    -0.077 S 
ENDROOT
BRANCH   1  12
ATOM      8  C   UNL     1      -1.341   1.172  -0.160  0.00  0.00    +0.044 C 
ATOM      9  C   UNL     1      -1.156  -0.324  -0.174  0.00  0.00    -0.050 A 
ATOM     10  C   UNL     1      -1.980  -1.112  -0.958  0.00  0.00    +0.005 A 
ATOM     11  C   UNL     1      -1.817  -2.482  -0.976  0.00  0.00    +0.028 A 
ATOM     12  C   UNL     1      -0.816  -3.072  -0.201  0.00  0.00    +0.069 A 
ATOM     13  C   UNL     1       0.013  -2.271   0.587  0.00  0.00    -0.025 A 
ATOM     14  C   UNL     1      -0.159  -0.901   0.591  0.00  0.00    +0.008 A 
ATOM     15  C   UNL     1       1.095  -2.899   1.426  0.00  0.00    +0.046 C 
ENDBRANCH   1  12
BRANCH   6  16
ATOM     16  C   UNL     1       0.887  -6.071  -4.725  0.00  0.00    +0.120 C 
BRANCH  16  17
ATOM     17  C   UNL     1       0.813  -5.165  -5.927  0.00  0.00    +0.219 C 
ATOM     18  O   UNL     1      -0.186  -4.507  -6.129  0.00  0.00    -0.275 OA
ATOM     19  N   UNL     1       1.855  -5.088  -6.778  0.00  0.00    -0.285 N 
ATOM     20  H   UNL     1       2.627  -5.662  -6.653  0.00  0.00    +0.155 HD
BRANCH  19  21
ATOM     21  C   UNL     1       1.824  -4.177  -7.842  0.00  0.00    +0.037 A 
ATOM     22  C   UNL     1       1.181  -2.955  -7.692  0.00  0.00    +0.027 A 
ATOM     23  C   UNL     1       1.150  -2.056  -8.741  0.00  0.00    +0.051 A 
ATOM     24  C   UNL     1       1.759  -2.372  -9.944  0.00  0.00    +0.162 A 
ATOM     25  C   UNL     1       2.404  -3.595 -10.098  0.00  0.00    +0.163 A 
ATOM     26  C   UNL     1       2.441  -4.494  -9.045  0.00  0.00    +0.072 A 
BRANCH  25  27
ATOM     27  O   UNL     1       3.003  -3.906 -11.279  0.00  0.00    -0.491 OA
ATOM     28  C   UNL     1       3.646  -5.179 -11.365  0.00  0.00    +0.277 C 
ENDBRANCH  25  27
BRANCH  24  29
ATOM     29  O   UNL     1       1.727  -1.486 -10.976  0.00  0.00    -0.491 OA
ATOM     30  C   UNL     1       1.047  -0.249 -10.749  0.00  0.00    +0.277 C 
ENDBRANCH  24  29
ENDBRANCH  19  21
ENDBRANCH  16  17
ENDBRANCH   6  16
BRANCH   3  31
ATOM     31  C   UNL     1      -0.532  -7.328  -0.406  0.00  0.00    +0.150 C 
BRANCH  31  32
ATOM     32  C   UNL     1      -1.957  -7.687  -0.075  0.00  0.00    -0.026 A 
ATOM     33  C   UNL     1      -2.681  -6.900   0.802  0.00  0.00    +0.009 A 
ATOM     34  C   UNL     1      -3.989  -7.226   1.109  0.00  0.00    +0.050 A 
ATOM     35  C   UNL     1      -4.578  -8.342   0.538  0.00  0.00    +0.166 A 
ATOM     36  C   UNL     1      -3.849  -9.135  -0.345  0.00  0.00    +0.167 A 
ATOM     37  C   UNL     1      -2.540  -8.800  -0.652  0.00  0.00    +0.054 A 
ATOM     38  O   UNL     1      -4.642 -10.163  -0.765  0.00  0.00    -0.453 OA
ATOM     39  C   UNL     1      -5.726 -10.223   0.181  0.00  0.00    +0.466 C 
ATOM     40  O   UNL     1      -5.828  -8.873   0.671  0.00  0.00    -0.453 OA
ENDBRANCH  31  32
ENDBRANCH   3  31
TORSDOF 8
