REMARK  Name = ZINC59168437
REMARK  6 active torsions:
REMARK  status: ('A' for Active; 'I' for Inactive)
REMARK    1  A    between atoms: C_1  and  C_2
REMARK    2  A    between atoms: C_2  and  C_3
REMARK    3  A    between atoms: C_2  and  C_4
REMARK    4  A    between atoms: C_2  and  C_5
REMARK    5  A    between atoms: C_8  and  C_11
REMARK    6  A    between atoms: C_17  and  C_20
REMARK                            x       y       z     vdW  Elec       q    Type
REMARK                         _______ _______ _______ _____ _____    ______ ____
ROOT
ATOM      1  C   UNL     1       2.696  -1.861  -4.732  0.00  0.00    +0.182 A 
ATOM      2  N   UNL     1       2.288  -2.818  -5.527  0.00  0.00    -0.127 NA
ATOM      3  N   UNL     1       3.133  -2.985  -6.483  0.00  0.00    -0.120 NA
ATOM      4  C   UNL     1       4.125  -2.160  -6.338  0.00  0.00    +0.211 A 
ATOM      5  N   UNL     1       3.895  -1.370  -5.240  0.00  0.00    -0.220 N 
ATOM      6  N   UNL     1       4.780  -0.379  -4.936  0.00  0.00    -0.263 N 
ATOM      7  C   UNL     1       6.141  -0.556  -5.509  0.00  0.00    +0.185 C 
ATOM      8  S   UNL     1       5.693  -1.595  -6.965  0.00  0.00    -0.056 S 
ATOM      9  H   UNL     1       4.404   0.527  -5.170  0.00  0.00    +0.168 HD
ENDROOT
BRANCH   7  10
ATOM     10  C   UNL     1       7.050  -1.299  -4.563  0.00  0.00    +0.009 A 
ATOM     11  C   UNL     1       6.674  -2.010  -3.489  0.00  0.00    +0.090 A 
ATOM     12  N   UNL     1       7.774  -2.542  -2.873  0.00  0.00    -0.360 N 
ATOM     13  H   UNL     1       7.754  -3.094  -2.076  0.00  0.00    +0.165 HD
ATOM     14  C   UNL     1       8.914  -2.177  -3.554  0.00  0.00    +0.047 A 
ATOM     15  C   UNL     1       8.509  -1.387  -4.646  0.00  0.00    +0.005 A 
ATOM     16  C   UNL     1       9.464  -0.875  -5.526  0.00  0.00    +0.010 A 
ATOM     17  C   UNL     1      10.788  -1.146  -5.324  0.00  0.00    +0.001 A 
ATOM     18  C   UNL     1      11.192  -1.928  -4.250  0.00  0.00    +0.002 A 
ATOM     19  C   UNL     1      10.267  -2.436  -3.364  0.00  0.00    +0.026 A 
ENDBRANCH   7  10
BRANCH   1  23
ATOM     20  C   UNL     1       0.707  -0.490  -1.238  0.00  0.00    -0.042 A 
ATOM     21  C   UNL     1       0.033  -1.285  -2.147  0.00  0.00    +0.005 A 
ATOM     22  C   UNL     1       0.673  -1.734  -3.284  0.00  0.00    +0.012 A 
ATOM     23  C   UNL     1       2.004  -1.383  -3.516  0.00  0.00    +0.021 A 
ATOM     24  C   UNL     1       2.679  -0.581  -2.595  0.00  0.00    +0.012 A 
ATOM     25  C   UNL     1       2.025  -0.135  -1.464  0.00  0.00    +0.005 A 
BRANCH  20  27
ATOM     26  C   UNL     1      -0.019   1.526   0.010  0.00  0.00    +0.015 C 
ATOM     27  C   UNL     1       0.002  -0.004   0.002  0.00  0.00    -0.013 C 
ATOM     28  C   UNL     1       0.742  -0.511   1.242  0.00  0.00    +0.015 C 
ATOM     29  C   UNL     1      -1.433  -0.534   0.013  0.00  0.00    +0.015 C 
ENDBRANCH  20  27
ENDBRANCH   1  23
TORSDOF 3
