REMARK  Name = ZINC44447274
REMARK  8 active torsions:
REMARK  status: ('A' for Active; 'I' for Inactive)
REMARK    1  A    between atoms: C_1  and  C_2
REMARK    2  A    between atoms: C_2  and  C_3
REMARK    3  A    between atoms: C_3  and  N_4
REMARK    4  A    between atoms: N_4  and  C_5
REMARK    5  A    between atoms: N_4  and  S_11
REMARK    6  A    between atoms: C_5  and  C_6
REMARK    7  A    between atoms: S_11  and  C_14
REMARK    8  A    between atoms: C_18  and  C_20
REMARK                            x       y       z     vdW  Elec       q    Type
REMARK                         _______ _______ _______ _____ _____    ______ ____
ROOT
ATOM      1  N   UNL     1       0.738  -1.962  -1.265  0.00  0.00    -0.172 NA
ENDROOT
BRANCH   1   2
ATOM      2  S   UNL     1       2.055  -2.776  -0.676  0.00  0.00    +0.061 S 
ATOM      3  O   UNL     1       2.053  -4.054  -1.296  0.00  0.00    -0.153 OA
ATOM      4  O   UNL     1       3.158  -1.885  -0.769  0.00  0.00    -0.153 OA
BRANCH   2   5
ATOM      5  C   UNL     1       1.772  -3.050   1.042  0.00  0.00    +0.106 A 
ATOM      6  C   UNL     1       2.187  -2.111   1.969  0.00  0.00    +0.028 A 
ATOM      7  C   UNL     1       1.966  -2.326   3.316  0.00  0.00    +0.002 A 
ATOM      8  C   UNL     1       1.329  -3.479   3.737  0.00  0.00    +0.003 A 
ATOM      9  C   UNL     1       0.913  -4.416   2.810  0.00  0.00    -0.049 A 
ATOM     10  C   UNL     1       1.131  -4.199   1.462  0.00  0.00    +0.032 A 
ATOM     11  C   UNL     1       0.219  -5.673   3.268  0.00  0.00    +0.044 C 
ENDBRANCH   2   5
ENDBRANCH   1   2
BRANCH   1  12
ATOM     12  C   UNL     1       0.718  -0.497  -1.257  0.00  0.00    +0.109 C 
BRANCH  12  14
ATOM     13  C   UNL     1      -0.019   1.526   0.010  0.00  0.00    +0.005 C 
ATOM     14  C   UNL     1       0.002  -0.004   0.002  0.00  0.00    +0.014 C 
ENDBRANCH  12  14
ENDBRANCH   1  12
BRANCH   1  15
ATOM     15  C   UNL     1      -0.407  -2.708  -1.794  0.00  0.00    +0.145 C 
BRANCH  15  16
ATOM     16  C   UNL     1      -0.271  -2.841  -3.289  0.00  0.00    -0.025 A 
ATOM     17  C   UNL     1      -0.801  -1.881  -4.130  0.00  0.00    +0.012 A 
ATOM     18  C   UNL     1      -0.661  -2.031  -5.470  0.00  0.00    +0.045 A 
ATOM     19  S   UNL     1       0.241  -3.568  -5.577  0.00  0.00    -0.105 S 
ATOM     20  C   UNL     1       0.376  -3.903  -3.829  0.00  0.00    +0.050 A 
ENDBRANCH  15  16
ENDBRANCH   1  15
TORSDOF 6
