REMARK  Name = ZINC51646735
REMARK  12 active torsions:
REMARK  status: ('A' for Active; 'I' for Inactive)
REMARK    1  A    between atoms: C_1  and  C_2
REMARK    2  A    between atoms: C_4  and  C_22
REMARK    3  A    between atoms: C_7  and  N_8
REMARK    4  A    between atoms: N_11  and  C_12
REMARK    5  A    between atoms: C_12  and  C_13
REMARK    6  A    between atoms: C_13  and  C_14
REMARK    7  A    between atoms: C_13  and  C_15
REMARK    8  A    between atoms: C_13  and  N_16
REMARK    9  A    between atoms: N_24  and  C_25
REMARK   10  A    between atoms: C_25  and  C_26
REMARK   11  A    between atoms: C_26  and  C_27
REMARK   12  A    between atoms: C_26  and  C_28
REMARK                            x       y       z     vdW  Elec       q    Type
REMARK                         _______ _______ _______ _____ _____    ______ ____
ROOT
ATOM      1  N   UNL     1       0.037   0.035   2.412  0.00  0.00    -0.269 N 
ATOM      2  C   UNL     1      -0.056  -0.652   3.568  0.00  0.00    +0.304 C 
ATOM      3  O   UNL     1      -0.055  -1.868   3.554  0.00  0.00    -0.253 OA
ATOM      4  N   UNL     1      -0.152   0.008   4.739  0.00  0.00    -0.300 N 
ATOM      5  H   UNL     1       0.095   1.004   2.427  0.00  0.00    +0.156 HD
ATOM      6  H   UNL     1      -0.153   0.978   4.750  0.00  0.00    +0.150 HD
ENDROOT
BRANCH   1  13
ATOM      7  C   UNL     1      -1.229   1.264   0.185  0.00  0.00    +0.045 C 
ATOM      8  C   UNL     1      -0.558  -0.081   0.078  0.00  0.00    -0.028 A 
ATOM      9  C   UNL     1      -0.542  -0.748  -1.126  0.00  0.00    +0.018 A 
ATOM     10  C   UNL     1       0.081  -1.995  -1.225  0.00  0.00    +0.037 A 
ATOM     11  C   UNL     1       0.686  -2.561  -0.099  0.00  0.00    +0.015 A 
ATOM     12  C   UNL     1       0.666  -1.889   1.102  0.00  0.00    +0.024 A 
ATOM     13  C   UNL     1       0.050  -0.645   1.195  0.00  0.00    +0.038 A 
BRANCH  10  14
ATOM     14  C   UNL     1       0.100  -2.712  -2.514  0.00  0.00    +0.244 C 
ATOM     15  O   UNL     1      -0.427  -2.219  -3.492  0.00  0.00    -0.270 OA
ATOM     16  N   UNL     1       0.701  -3.915  -2.607  0.00  0.00    -0.311 N 
ATOM     17  H   UNL     1       1.121  -4.309  -1.827  0.00  0.00    +0.149 HD
BRANCH  16  18
ATOM     18  C   UNL     1       0.720  -4.628  -3.887  0.00  0.00    +0.107 C 
BRANCH  18  19
ATOM     19  C   UNL     1       1.458  -5.957  -3.720  0.00  0.00    -0.000 C 
ATOM     20  C   UNL     1       0.674  -6.860  -2.766  0.00  0.00    +0.009 C 
ATOM     21  C   UNL     1       1.587  -6.643  -5.081  0.00  0.00    +0.009 C 
ENDBRANCH  18  19
ENDBRANCH  16  18
ENDBRANCH  10  14
ENDBRANCH   1  13
BRANCH   4  22
ATOM     22  C   UNL     1      -0.253  -0.739   5.995  0.00  0.00    +0.093 C 
BRANCH  22  23
ATOM     23  C   UNL     1      -0.473   0.237   7.152  0.00  0.00    -0.055 C 
ATOM     24  C   UNL     1      -1.779   1.004   6.931  0.00  0.00    -0.008 C 
ATOM     25  C   UNL     1      -0.556  -0.542   8.467  0.00  0.00    -0.008 C 
BRANCH  23  26
ATOM     26  N   UNL     1       0.647   1.185   7.214  0.00  0.00    +0.384 N 
ATOM     27  C   UNL     1       1.909   0.442   7.313  0.00  0.00    -0.078 C 
ATOM     28  C   UNL     1       3.084   1.422   7.296  0.00  0.00    -0.019 C 
ATOM     29  C   UNL     1       2.960   2.381   8.483  0.00  0.00    -0.004 C 
ATOM     30  C   UNL     1       1.607   3.095   8.410  0.00  0.00    -0.019 C 
ATOM     31  C   UNL     1       0.487   2.054   8.386  0.00  0.00    -0.078 C 
ATOM     32  H   UNL     1       0.656   1.748   6.377  0.00  0.00    -0.081 HD
ENDBRANCH  23  26
ENDBRANCH  22  23
ENDBRANCH   4  22
TORSDOF 7
