REMARK  Name = ZINC65319663
REMARK  10 active torsions:
REMARK  status: ('A' for Active; 'I' for Inactive)
REMARK    1  A    between atoms: C_1  and  C_2
REMARK    2  A    between atoms: C_2  and  C_3
REMARK    3  A    between atoms: C_3  and  N_4
REMARK    4  A    between atoms: C_10  and  S_11
REMARK    5  A    between atoms: S_11  and  C_12
REMARK    6  A    between atoms: C_12  and  C_13
REMARK    7  A    between atoms: N_15  and  C_16
REMARK    8  A    between atoms: C_20  and  C_22
REMARK    9  A    between atoms: C_22  and  C_24
REMARK   10  A    between atoms: C_31  and  C_34
REMARK                            x       y       z     vdW  Elec       q    Type
REMARK                         _______ _______ _______ _____ _____    ______ ____
ROOT
ATOM      1  N   UNL     1       0.767  -1.976   1.243  0.00  0.00    -0.287 N 
ATOM      2  C   UNL     1      -0.229  -2.679   1.836  0.00  0.00    +0.271 A 
ATOM      3  O   UNL     1      -1.162  -2.108   2.378  0.00  0.00    -0.266 OA
ATOM      4  C   UNL     1      -0.159  -4.062   1.810  0.00  0.00    +0.124 A 
ATOM      5  C   UNL     1       0.910  -4.736   1.188  0.00  0.00    +0.177 A 
ATOM      6  N   UNL     1       1.867  -3.955   0.618  0.00  0.00    -0.203 NA
ATOM      7  C   UNL     1       1.792  -2.649   0.642  0.00  0.00    +0.174 A 
ATOM      8  N   UNL     1       0.819  -6.065   1.256  0.00  0.00    -0.205 NA
ATOM      9  C   UNL     1      -0.186  -6.668   1.853  0.00  0.00    +0.164 A 
ATOM     10  S   UNL     1      -1.151  -5.404   2.407  0.00  0.00    -0.045 S 
ATOM     11  N   UNL     1      -0.400  -8.022   1.993  0.00  0.00    -0.310 N 
ATOM     12  C   UNL     1      -1.591  -8.523   2.692  0.00  0.00    +0.107 C 
ATOM     13  C   UNL     1      -2.320  -9.512   1.776  0.00  0.00    +0.022 C 
ATOM     14  C   UNL     1      -1.344 -10.605   1.333  0.00  0.00    -0.011 C 
ATOM     15  C   UNL     1      -0.193  -9.975   0.545  0.00  0.00    +0.022 C 
ATOM     16  C   UNL     1       0.556  -8.992   1.442  0.00  0.00    +0.107 C 
ATOM     17  C   UNL     1      -2.077 -11.613   0.446  0.00  0.00    +0.007 C 
ENDROOT
BRANCH   1  18
ATOM     18  C   UNL     1       0.742  -0.512   1.242  0.00  0.00    +0.127 C 
BRANCH  18  20
ATOM     19  C   UNL     1      -0.030   1.514   0.001  0.00  0.00    +0.005 C 
ATOM     20  C   UNL     1      -0.004  -0.015   0.002  0.00  0.00    +0.018 C 
ENDBRANCH  18  20
ENDBRANCH   1  18
BRANCH   7  21
ATOM     21  S   UNL     1       3.074  -1.717  -0.129  0.00  0.00    -0.078 S 
BRANCH  21  22
ATOM     22  C   UNL     1       4.200  -2.979  -0.784  0.00  0.00    +0.173 C 
BRANCH  22  23
ATOM     23  C   UNL     1       5.357  -2.308  -1.478  0.00  0.00    +0.227 C 
ATOM     24  O   UNL     1       5.416  -1.098  -1.526  0.00  0.00    -0.275 OA
ATOM     25  N   UNL     1       6.326  -3.053  -2.046  0.00  0.00    -0.285 N 
ATOM     26  H   UNL     1       6.315  -4.018  -1.951  0.00  0.00    +0.155 HD
BRANCH  25  27
ATOM     27  C   UNL     1       7.349  -2.434  -2.773  0.00  0.00    +0.034 A 
ATOM     28  C   UNL     1       7.877  -3.057  -3.899  0.00  0.00    +0.023 A 
ATOM     29  C   UNL     1       8.887  -2.451  -4.622  0.00  0.00    +0.002 A 
ATOM     30  C   UNL     1       9.380  -1.223  -4.232  0.00  0.00    +0.011 A 
ATOM     31  C   UNL     1       8.857  -0.587  -3.102  0.00  0.00    +0.019 A 
ATOM     32  C   UNL     1       7.832  -1.198  -2.375  0.00  0.00    +0.034 A 
BRANCH  31  33
ATOM     33  C   UNL     1       9.381   0.724  -2.682  0.00  0.00    +0.160 C 
ATOM     34  O   UNL     1       8.925   1.273  -1.702  0.00  0.00    -0.292 OA
ATOM     35  C   UNL     1      10.483   1.382  -3.471  0.00  0.00    +0.091 C 
ENDBRANCH  31  33
ENDBRANCH  25  27
ENDBRANCH  22  23
ENDBRANCH  21  22
ENDBRANCH   7  21
TORSDOF 7
