REMARK  Name = ZINC63865033
REMARK  14 active torsions:
REMARK  status: ('A' for Active; 'I' for Inactive)
REMARK    1  A    between atoms: C_1  and  C_2
REMARK    2  A    between atoms: C_7  and  C_8
REMARK    3  A    between atoms: N_10  and  C_11
REMARK    4  A    between atoms: C_11  and  C_12
REMARK    5  A    between atoms: C_11  and  C_16
REMARK    6  A    between atoms: C_12  and  C_13
REMARK    7  A    between atoms: C_13  and  C_14
REMARK    8  A    between atoms: C_13  and  C_15
REMARK    9  A    between atoms: N_18  and  N_19
REMARK   10  A    between atoms: N_19  and  C_20
REMARK   11  A    between atoms: C_21  and  C_28
REMARK   12  A    between atoms: C_23  and  C_25
REMARK   13  A    between atoms: C_25  and  C_26
REMARK   14  A    between atoms: C_25  and  C_27
REMARK                            x       y       z     vdW  Elec       q    Type
REMARK                         _______ _______ _______ _____ _____    ______ ____
ROOT
ATOM      1  C   UNL     1       0.578   0.067   4.894  0.00  0.00    +0.161 C 
ENDROOT
BRANCH   1   4
ATOM      2  C   UNL     1       0.242   0.021   2.481  0.00  0.00    +0.245 C 
ATOM      3  O   UNL     1       0.135   1.232   2.503  0.00  0.00    -0.270 OA
ATOM      4  N   UNL     1       0.465  -0.656   3.625  0.00  0.00    -0.300 N 
ATOM      5  H   UNL     1       0.551  -1.622   3.607  0.00  0.00    +0.150 HD
BRANCH   2  12
ATOM      6  C   UNL     1      -0.511   1.452   0.082  0.00  0.00    +0.044 C 
ATOM      7  C   UNL     1      -0.234  -0.028   0.036  0.00  0.00    -0.038 A 
ATOM      8  C   UNL     1      -0.334  -0.714  -1.157  0.00  0.00    +0.004 A 
ATOM      9  C   UNL     1      -0.080  -2.073  -1.200  0.00  0.00    +0.000 A 
ATOM     10  C   UNL     1       0.275  -2.754  -0.049  0.00  0.00    +0.001 A 
ATOM     11  C   UNL     1       0.378  -2.081   1.150  0.00  0.00    +0.013 A 
ATOM     12  C   UNL     1       0.128  -0.708   1.200  0.00  0.00    +0.040 A 
ENDBRANCH   2  12
ENDBRANCH   1   4
BRANCH   1  13
ATOM     13  C   UNL     1       1.397  -0.746   5.863  0.00  0.00    +0.249 C 
ATOM     14  O   UNL     1       1.843  -1.822   5.527  0.00  0.00    -0.272 OA
ATOM     15  N   UNL     1       1.635  -0.276   7.104  0.00  0.00    -0.233 N 
ATOM     16  H   UNL     1       1.279   0.585   7.373  0.00  0.00    +0.173 HD
BRANCH  15  17
ATOM     17  N   UNL     1       2.397  -1.031   8.005  0.00  0.00    -0.232 N 
ATOM     18  H   UNL     1       2.753  -1.892   7.736  0.00  0.00    +0.173 HD
BRANCH  17  19
ATOM     19  C   UNL     1       2.640  -0.550   9.275  0.00  0.00    +0.241 A 
ATOM     20  C   UNL     1       3.374  -1.173  10.270  0.00  0.00    +0.202 A 
ATOM     21  N   UNL     1       3.353  -0.344  11.351  0.00  0.00    -0.200 NA
ATOM     22  C   UNL     1       2.660   0.712  11.051  0.00  0.00    +0.202 A 
ATOM     23  O   UNL     1       2.215   0.619   9.788  0.00  0.00    -0.423 OA
BRANCH  22  24
ATOM     24  C   UNL     1       2.399   1.870  11.979  0.00  0.00    +0.069 C 
ATOM     25  C   UNL     1       1.658   1.371  13.222  0.00  0.00    +0.017 C 
ATOM     26  C   UNL     1       3.729   2.499  12.397  0.00  0.00    +0.017 C 
ENDBRANCH  22  24
BRANCH  20  27
ATOM     27  C   UNL     1       4.029  -2.443  10.180  0.00  0.00    +0.124 C 
ATOM     28  N   UNL     1       4.548  -3.451  10.109  0.00  0.00    -0.189 NA
ENDBRANCH  20  27
ENDBRANCH  17  19
ENDBRANCH  15  17
ENDBRANCH   1  13
BRANCH   1  29
ATOM     29  C   UNL     1      -0.818   0.298   5.475  0.00  0.00    +0.034 C 
BRANCH  29  30
ATOM     30  C   UNL     1      -1.608   1.226   4.550  0.00  0.00    -0.015 C 
ATOM     31  C   UNL     1      -3.043   1.358   5.064  0.00  0.00    +0.007 C 
ATOM     32  C   UNL     1      -0.947   2.605   4.525  0.00  0.00    +0.007 C 
ENDBRANCH  29  30
ENDBRANCH   1  29
TORSDOF 9
