REMARK  Name = ZINC09803841
REMARK  9 active torsions:
REMARK  status: ('A' for Active; 'I' for Inactive)
REMARK    1  A    between atoms: C_1  and  O_2
REMARK    2  A    between atoms: O_2  and  C_3
REMARK    3  A    between atoms: C_6  and  C_9
REMARK    4  A    between atoms: C_12  and  S_20
REMARK    5  A    between atoms: N_13  and  C_14
REMARK    6  A    between atoms: S_20  and  C_21
REMARK    7  A    between atoms: C_21  and  C_22
REMARK    8  A    between atoms: N_24  and  C_25
REMARK    9  A    between atoms: C_30  and  N_31
REMARK                            x       y       z     vdW  Elec       q    Type
REMARK                         _______ _______ _______ _____ _____    ______ ____
ROOT
ATOM      1  C   UNL     1       2.047   0.588  -0.073  0.00  0.00    +0.169 A 
ATOM      2  N   UNL     1       1.214  -0.427  -0.066  0.00  0.00    -0.128 NA
ATOM      3  N   UNL     1       0.002  -0.002  -0.042  0.00  0.00    -0.122 NA
ATOM      4  C   UNL     1      -0.016   1.312  -0.031  0.00  0.00    +0.197 A 
ATOM      5  N   UNL     1       1.285   1.736  -0.051  0.00  0.00    -0.270 N 
ENDROOT
BRANCH   1   9
ATOM      6  C   UNL     1       6.290   0.373  -0.147  0.00  0.00    +0.120 A 
ATOM      7  C   UNL     1       5.534  -0.750  -0.455  0.00  0.00    +0.046 A 
ATOM      8  C   UNL     1       4.157  -0.685  -0.432  0.00  0.00    +0.015 A 
ATOM      9  C   UNL     1       3.523   0.513  -0.099  0.00  0.00    +0.020 A 
ATOM     10  C   UNL     1       4.286   1.642   0.204  0.00  0.00    +0.015 A 
ATOM     11  C   UNL     1       5.663   1.567   0.184  0.00  0.00    +0.046 A 
BRANCH   6  13
ATOM     12  C   UNL     1       8.362   1.498   0.156  0.00  0.00    +0.277 C 
ATOM     13  O   UNL     1       7.647   0.305  -0.171  0.00  0.00    -0.495 OA
ENDBRANCH   6  13
ENDBRANCH   1   9
BRANCH   5  14
ATOM     14  C   UNL     1       1.746   3.059  -0.049  0.00  0.00    +0.051 A 
ATOM     15  C   UNL     1       2.440   3.556  -1.144  0.00  0.00    +0.026 A 
ATOM     16  C   UNL     1       2.888   4.862  -1.141  0.00  0.00    +0.002 A 
ATOM     17  C   UNL     1       2.656   5.672  -0.044  0.00  0.00    +0.000 A 
ATOM     18  C   UNL     1       1.971   5.178   1.050  0.00  0.00    +0.002 A 
ATOM     19  C   UNL     1       1.515   3.875   1.051  0.00  0.00    +0.026 A 
ENDBRANCH   5  14
BRANCH   4  20
ATOM     20  S   UNL     1      -1.449   2.338  -0.005  0.00  0.00    -0.076 S 
BRANCH  20  21
ATOM     21  C   UNL     1      -2.742   1.071   0.003  0.00  0.00    +0.173 C 
BRANCH  21  22
ATOM     22  C   UNL     1      -4.095   1.735   0.025  0.00  0.00    +0.228 C 
ATOM     23  O   UNL     1      -4.177   2.945   0.035  0.00  0.00    -0.275 OA
ATOM     24  N   UNL     1      -5.214   0.983   0.035  0.00  0.00    -0.283 N 
ATOM     25  H   UNL     1      -5.150   0.018  -0.039  0.00  0.00    +0.155 HD
BRANCH  24  26
ATOM     26  C   UNL     1      -6.468   1.596   0.150  0.00  0.00    +0.055 A 
ATOM     27  C   UNL     1      -6.693   2.835  -0.433  0.00  0.00    +0.025 A 
ATOM     28  C   UNL     1      -7.933   3.435  -0.322  0.00  0.00    +0.002 A 
ATOM     29  C   UNL     1      -8.948   2.810   0.378  0.00  0.00    +0.002 A 
ATOM     30  C   UNL     1      -8.731   1.579   0.967  0.00  0.00    +0.025 A 
ATOM     31  C   UNL     1      -7.492   0.966   0.856  0.00  0.00    +0.057 A 
BRANCH  31  32
ATOM     32  N   UNL     1      -7.269  -0.282   1.452  0.00  0.00    -0.270 N 
ATOM     33  C   UNL     1      -6.770  -0.469   2.819  0.00  0.00    +0.114 C 
ATOM     34  C   UNL     1      -7.101  -1.937   3.179  0.00  0.00    +0.029 C 
ATOM     35  C   UNL     1      -7.146  -2.599   1.783  0.00  0.00    +0.098 C 
ATOM     36  C   UNL     1      -7.480  -1.462   0.843  0.00  0.00    +0.220 C 
ATOM     37  O   UNL     1      -7.881  -1.595  -0.294  0.00  0.00    -0.275 OA
ENDBRANCH  31  32
ENDBRANCH  24  26
ENDBRANCH  21  22
ENDBRANCH  20  21
ENDBRANCH   4  20
TORSDOF 8
