REMARK  Name = ZINC66906922
REMARK  5 active torsions:
REMARK  status: ('A' for Active; 'I' for Inactive)
REMARK    1  A    between atoms: C_10  and  C_11
REMARK    2  A    between atoms: C_10  and  O_28
REMARK    3  A    between atoms: C_11  and  N_12
REMARK    4  A    between atoms: N_15  and  C_16
REMARK    5  A    between atoms: C_20  and  N_22
REMARK                            x       y       z     vdW  Elec       q    Type
REMARK                         _______ _______ _______ _____ _____    ______ ____
ROOT
ATOM      1  N   UNL     1       4.733   1.486   0.592  0.00  0.00    -0.296 N 
ATOM      2  C   UNL     1       5.601   2.306   1.219  0.00  0.00    +0.304 C 
ATOM      3  O   UNL     1       6.161   1.937   2.233  0.00  0.00    -0.253 OA
ATOM      4  N   UNL     1       5.846   3.534   0.723  0.00  0.00    -0.269 N 
ATOM      5  H   UNL     1       4.286   1.781  -0.216  0.00  0.00    +0.150 HD
ATOM      6  H   UNL     1       5.344   3.858  -0.042  0.00  0.00    +0.156 HD
ENDROOT
BRANCH   4   7
ATOM      7  C   UNL     1       6.825   4.344   1.310  0.00  0.00    +0.037 A 
ATOM      8  C   UNL     1       7.960   3.768   1.868  0.00  0.00    +0.023 A 
ATOM      9  C   UNL     1       8.927   4.566   2.447  0.00  0.00    +0.004 A 
ATOM     10  C   UNL     1       8.769   5.939   2.475  0.00  0.00    +0.024 A 
ATOM     11  C   UNL     1       7.637   6.520   1.919  0.00  0.00    +0.041 A 
ATOM     12  C   UNL     1       6.666   5.722   1.331  0.00  0.00    +0.047 A 
BRANCH  11  13
ATOM     13  N   UNL     1       7.477   7.910   1.949  0.00  0.00    -0.234 N 
ATOM     14  C   UNL     1       8.425   8.883   2.526  0.00  0.00    +0.158 C 
ATOM     15  C   UNL     1       7.920  10.222   1.936  0.00  0.00    +0.253 C 
ATOM     16  O   UNL     1       6.538   9.924   1.655  0.00  0.00    -0.448 OA
ATOM     17  C   UNL     1       6.434   8.600   1.450  0.00  0.00    +0.407 C 
ATOM     18  O   UNL     1       5.497   8.080   0.877  0.00  0.00    -0.226 OA
ENDBRANCH  11  13
ENDBRANCH   4   7
BRANCH   1  19
ATOM     19  C   UNL     1       4.466   0.151   1.132  0.00  0.00    +0.145 C 
BRANCH  19  29
ATOM     20  C   UNL     1       2.885  -4.513   1.798  0.00  0.00    +0.000 A 
ATOM     21  C   UNL     1       2.877  -3.394   2.611  0.00  0.00    +0.000 A 
ATOM     22  C   UNL     1       3.099  -2.148   2.062  0.00  0.00    +0.007 A 
ATOM     23  C   UNL     1       3.334  -2.008   0.700  0.00  0.00    -0.011 A 
ATOM     24  C   UNL     1       3.347  -3.122  -0.108  0.00  0.00    -0.041 A 
ATOM     25  C   UNL     1       3.119  -4.376   0.446  0.00  0.00    +0.004 A 
ATOM     26  C   UNL     1       3.610  -3.047  -1.589  0.00  0.00    +0.035 C 
ATOM     27  C   UNL     1       3.411  -1.621  -2.098  0.00  0.00    +0.008 C 
ATOM     28  C   UNL     1       4.222  -0.671  -1.209  0.00  0.00    +0.041 C 
ATOM     29  C   UNL     1       3.561  -0.618   0.167  0.00  0.00    +0.107 C 
BRANCH  29  30
ATOM     30  O   UNL     1       2.306   0.058   0.061  0.00  0.00    -0.382 OA
ATOM     31  H   UNL     1       1.835   0.145   0.901  0.00  0.00    +0.211 HD
ENDBRANCH  29  30
ENDBRANCH  19  29
ENDBRANCH   1  19
TORSDOF 5
