REMARK  Name = ZINC36560252
REMARK  14 active torsions:
REMARK  status: ('A' for Active; 'I' for Inactive)
REMARK    1  A    between atoms: C_1  and  C_2
REMARK    2  A    between atoms: C_2  and  C_3
REMARK    3  A    between atoms: C_3  and  N_4
REMARK    4  A    between atoms: N_4  and  C_5
REMARK    5  A    between atoms: C_5  and  C_7
REMARK    6  A    between atoms: C_5  and  C_14
REMARK    7  A    between atoms: C_12  and  C_13
REMARK    8  A    between atoms: N_16  and  C_17
REMARK    9  A    between atoms: C_17  and  S_18
REMARK   10  A    between atoms: S_18  and  C_21
REMARK   11  A    between atoms: C_24  and  C_27
REMARK   12  A    between atoms: C_28  and  C_30
REMARK   13  A    between atoms: C_35  and  O_36
REMARK   14  A    between atoms: O_36  and  C_37
REMARK                            x       y       z     vdW  Elec       q    Type
REMARK                         _______ _______ _______ _____ _____    ______ ____
ROOT
ATOM      1  C   UNL     1      -0.765  -2.366   1.060  0.00  0.00    +0.193 C 
ENDROOT
BRANCH   1   2
ATOM      2  C   UNL     1      -1.506  -1.373   1.917  0.00  0.00    -0.015 A 
ATOM      3  C   UNL     1      -0.812  -0.374   2.575  0.00  0.00    +0.006 A 
ATOM      4  C   UNL     1      -1.492   0.537   3.362  0.00  0.00    +0.000 A 
ATOM      5  C   UNL     1      -2.865   0.449   3.491  0.00  0.00    +0.000 A 
ATOM      6  C   UNL     1      -3.559  -0.548   2.832  0.00  0.00    +0.004 A 
ATOM      7  C   UNL     1      -2.880  -1.457   2.042  0.00  0.00    -0.045 A 
ATOM      8  C   UNL     1      -3.637  -2.542   1.320  0.00  0.00    +0.044 C 
ENDBRANCH   1   2
BRANCH   1   9
ATOM      9  C   UNL     1       0.653  -2.497   1.554  0.00  0.00    +0.239 C 
ATOM     10  O   UNL     1       1.524  -1.792   1.091  0.00  0.00    -0.273 OA
ATOM     11  N   UNL     1       0.952  -3.399   2.510  0.00  0.00    -0.294 N 
ATOM     12  H   UNL     1       0.253  -3.954   2.889  0.00  0.00    +0.150 HD
BRANCH  11  13
ATOM     13  C   UNL     1       2.333  -3.539   2.978  0.00  0.00    +0.278 C 
BRANCH  13  14
ATOM     14  S   UNL     1       2.574  -2.527   4.464  0.00  0.00    +0.013 S 
ATOM     15  O   UNL     1       3.892  -2.702   4.967  0.00  0.00    -0.168 OA
ATOM     16  O   UNL     1       2.043  -1.225   4.261  0.00  0.00    -0.168 OA
BRANCH  14  17
ATOM     17  C   UNL     1       1.528  -3.255   5.682  0.00  0.00    +0.090 A 
ATOM     18  C   UNL     1       0.220  -2.828   5.813  0.00  0.00    +0.027 A 
ATOM     19  C   UNL     1      -0.600  -3.399   6.768  0.00  0.00    +0.005 A 
ATOM     20  C   UNL     1      -0.113  -4.397   7.591  0.00  0.00    -0.050 A 
ATOM     21  C   UNL     1       1.195  -4.824   7.459  0.00  0.00    +0.005 A 
ATOM     22  C   UNL     1       2.014  -4.256   6.501  0.00  0.00    +0.027 A 
ATOM     23  C   UNL     1      -1.007  -5.018   8.633  0.00  0.00    +0.044 C 
ENDBRANCH  14  17
ENDBRANCH  13  14
ENDBRANCH  11  13
ENDBRANCH   1   9
BRANCH   1  24
ATOM     24  N   UNL     1      -0.756  -1.901  -0.330  0.00  0.00    -0.282 N 
ATOM     25  C   UNL     1      -0.251  -2.687  -1.301  0.00  0.00    +0.251 C 
ATOM     26  O   UNL     1      -0.581  -2.512  -2.458  0.00  0.00    -0.270 OA
BRANCH  25  27
ATOM     27  C   UNL     1       0.702  -3.760  -0.960  0.00  0.00    +0.078 A 
ATOM     28  C   UNL     1       0.642  -4.383   0.290  0.00  0.00    +0.017 A 
ATOM     29  C   UNL     1       1.534  -5.385   0.602  0.00  0.00    +0.001 A 
ATOM     30  C   UNL     1       2.493  -5.779  -0.318  0.00  0.00    +0.004 A 
ATOM     31  C   UNL     1       2.563  -5.173  -1.556  0.00  0.00    +0.046 A 
ATOM     32  C   UNL     1       1.669  -4.166  -1.889  0.00  0.00    +0.132 A 
BRANCH  32  33
ATOM     33  O   UNL     1       1.734  -3.573  -3.107  0.00  0.00    -0.494 OA
ATOM     34  C   UNL     1       2.746  -4.038  -4.003  0.00  0.00    +0.277 C 
ENDBRANCH  32  33
ENDBRANCH  25  27
BRANCH  24  35
ATOM     35  C   UNL     1      -1.296  -0.580  -0.663  0.00  0.00    +0.109 C 
BRANCH  35  37
ATOM     36  C   UNL     1      -0.704   1.799  -1.143  0.00  0.00    +0.005 C 
ATOM     37  C   UNL     1      -0.162   0.447  -0.676  0.00  0.00    +0.016 C 
ENDBRANCH  35  37
ENDBRANCH  24  35
ENDBRANCH   1  24
TORSDOF 10
