REMARK  Name = ZINC37694600
REMARK  4 active torsions:
REMARK  status: ('A' for Active; 'I' for Inactive)
REMARK    1  A    between atoms: C_5  and  O_10
REMARK    2  A    between atoms: C_6  and  N_7
REMARK    3  A    between atoms: O_10  and  C_11
REMARK    4  A    between atoms: C_17  and  O_19
REMARK                            x       y       z     vdW  Elec       q    Type
REMARK                         _______ _______ _______ _____ _____    ______ ____
ROOT
ATOM      1  C   UNL     1      -0.575   1.013  -0.414  0.00  0.00    +0.056 A 
ATOM      2  C   UNL     1       0.423   1.971  -0.366  0.00  0.00    +0.044 A 
ATOM      3  C   UNL     1       1.716   1.609  -0.034  0.00  0.00    +0.039 A 
ATOM      4  C   UNL     1       2.015   0.290   0.251  0.00  0.00    +0.063 A 
ATOM      5  C   UNL     1       1.015  -0.672   0.204  0.00  0.00    +0.165 A 
ATOM      6  C   UNL     1      -0.281  -0.307  -0.130  0.00  0.00    +0.170 A 
ATOM      7 BR   UNL     1       3.783  -0.204   0.704  0.00  0.00    -0.046 Br
ATOM      8 CL   UNL     1       0.051   3.628  -0.724  0.00  0.00    -0.083 Cl
ENDROOT
BRANCH   6   9
ATOM      9  N   UNL     1      -1.349  -1.331  -0.181  0.00  0.00    +0.060 N 
ATOM     10  O   UNL     1      -2.498  -0.997  -0.354  0.00  0.00    -0.126 OA
ATOM     11  O   UNL     1      -1.072  -2.500  -0.050  0.00  0.00    -0.126 OA
ENDBRANCH   6   9
BRANCH   5  12
ATOM     12  O   UNL     1       1.306  -1.970   0.483  0.00  0.00    -0.483 OA
BRANCH  12  13
ATOM     13  C   UNL     1       1.347  -2.344   1.861  0.00  0.00    +0.202 C 
ATOM     14  C   UNL     1      -0.072  -2.645   2.350  0.00  0.00    +0.047 C 
ATOM     15  C   UNL     1      -0.028  -3.045   3.826  0.00  0.00    +0.004 C 
ATOM     16  C   UNL     1       0.843  -4.291   3.991  0.00  0.00    +0.003 C 
ATOM     17  C   UNL     1       2.261  -3.990   3.503  0.00  0.00    +0.035 C 
ATOM     18  C   UNL     1       2.218  -3.591   2.027  0.00  0.00    +0.155 C 
BRANCH  18  19
ATOM     19  O   UNL     1       3.543  -3.309   1.570  0.00  0.00    -0.388 OA
ATOM     20  H   UNL     1       4.151  -4.057   1.645  0.00  0.00    +0.210 HD
ENDBRANCH  18  19
ENDBRANCH  12  13
ENDBRANCH   5  12
TORSDOF 4
