REMARK  Name = ZINC00565681
REMARK  5 active torsions:
REMARK  status: ('A' for Active; 'I' for Inactive)
REMARK    1  A    between atoms: C_1  and  O_2
REMARK    2  A    between atoms: O_2  and  C_3
REMARK    3  A    between atoms: C_6  and  O_24
REMARK    4  A    between atoms: C_7  and  C_9
REMARK    5  A    between atoms: O_24  and  C_25
REMARK                            x       y       z     vdW  Elec       q    Type
REMARK                         _______ _______ _______ _____ _____    ______ ____
ROOT
ATOM      1  C   UNL     1       0.002  -0.004   0.002  0.00  0.00    +0.194 C 
ATOM      2  N   UNL     1       1.157  -0.519  -0.755  0.00  0.00    -0.316 N 
ATOM      3  C   UNL     1       2.332   0.178  -0.637  0.00  0.00    +0.080 A 
ATOM      4  C   UNL     1       2.382   1.532  -0.273  0.00  0.00    +0.068 A 
ATOM      5  C   UNL     1       3.710   2.120  -0.201  0.00  0.00    -0.023 A 
ATOM      6  C   UNL     1       4.734   1.288  -0.489  0.00  0.00    -0.005 A 
ATOM      7  S   UNL     1       3.969  -0.269  -0.860  0.00  0.00    -0.078 S 
ATOM      8  C   UNL     1       6.195   1.618  -0.493  0.00  0.00    +0.043 C 
ATOM      9  C   UNL     1       6.346   3.146  -0.482  0.00  0.00    +0.005 C 
ATOM     10  C   UNL     1       5.428   3.724   0.599  0.00  0.00    +0.005 C 
ATOM     11  C   UNL     1       3.967   3.575   0.174  0.00  0.00    +0.037 C 
ATOM     12  C   UNL     1       1.097   2.215   0.004  0.00  0.00    +0.248 C 
ATOM     13  O   UNL     1       1.049   3.413   0.216  0.00  0.00    -0.270 OA
ATOM     14  N   UNL     1      -0.018   1.455   0.010  0.00  0.00    -0.289 N 
ATOM     15  H   UNL     1       1.050  -1.421  -1.376  0.00  0.00    +0.149 HD
ATOM     16  H   UNL     1      -0.978   1.992   0.022  0.00  0.00    +0.151 HD
ENDROOT
BRANCH   1  21
ATOM     17  C   UNL     1       0.869  -2.109   3.018  0.00  0.00    +0.121 A 
ATOM     18  C   UNL     1       0.220  -1.421   4.033  0.00  0.00    +0.049 A 
ATOM     19  C   UNL     1      -0.498  -0.277   3.742  0.00  0.00    +0.049 A 
ATOM     20  C   UNL     1      -0.569   0.184   2.436  0.00  0.00    +0.127 A 
ATOM     21  C   UNL     1       0.080  -0.504   1.421  0.00  0.00    +0.036 A 
ATOM     22  C   UNL     1       0.792  -1.652   1.711  0.00  0.00    +0.056 A 
BRANCH  17  24
ATOM     23  C   UNL     1       1.606  -3.652   4.671  0.00  0.00    +0.277 C 
ATOM     24  O   UNL     1       1.575  -3.235   3.305  0.00  0.00    -0.495 OA
ENDBRANCH  17  24
BRANCH  20  25
ATOM     25  O   UNL     1      -1.275   1.310   2.149  0.00  0.00    -0.495 OA
ATOM     26  C   UNL     1      -1.918   1.968   3.243  0.00  0.00    +0.277 C 
ENDBRANCH  20  25
ENDBRANCH   1  21
TORSDOF 3
