REMARK  Name = ZINC11590280
REMARK  12 active torsions:
REMARK  status: ('A' for Active; 'I' for Inactive)
REMARK    1  A    between atoms: C_1  and  C_2
REMARK    2  A    between atoms: C_2  and  C_3
REMARK    3  A    between atoms: C_3  and  C_4
REMARK    4  A    between atoms: C_4  and  N_5
REMARK    5  A    between atoms: C_13  and  C_16
REMARK    6  A    between atoms: C_16  and  C_17
REMARK    7  A    between atoms: C_17  and  C_18
REMARK    8  A    between atoms: C_18  and  O_20
REMARK    9  A    between atoms: O_20  and  C_21
REMARK   10  A    between atoms: C_21  and  C_22
REMARK   11  A    between atoms: N_27  and  C_28
REMARK   12  A    between atoms: C_34  and  C_36
REMARK                            x       y       z     vdW  Elec       q    Type
REMARK                         _______ _______ _______ _____ _____    ______ ____
ROOT
ATOM      1  C   UNL     1      -0.625   9.348   0.057  0.00  0.00    +0.308 C 
ATOM      2  O   UNL     1       0.391  10.002   0.051  0.00  0.00    -0.251 OA
ENDROOT
BRANCH   1   3
ATOM      3  C   UNL     1      -0.552   7.843   0.048  0.00  0.00    +0.127 C 
BRANCH   3   4
ATOM      4  C   UNL     1       0.913   7.403   0.033  0.00  0.00    +0.072 C 
BRANCH   4  13
ATOM      5  N   UNL     1       2.340   3.879   0.001  0.00  0.00    -0.305 N 
ATOM      6  C   UNL     1       1.157   3.167   0.008  0.00  0.00    +0.070 A 
ATOM      7  C   UNL     1       1.174   1.776   0.000  0.00  0.00    +0.028 A 
ATOM      8  C   UNL     1      -0.013   1.076   0.008  0.00  0.00    +0.002 A 
ATOM      9  C   UNL     1      -1.228   1.748   0.017  0.00  0.00    +0.002 A 
ATOM     10  C   UNL     1      -1.268   3.112   0.030  0.00  0.00    +0.030 A 
ATOM     11  C   UNL     1      -0.074   3.849   0.022  0.00  0.00    +0.088 A 
ATOM     12  N   UNL     1      -0.111   5.195   0.030  0.00  0.00    -0.245 NA
ATOM     13  C   UNL     1       0.986   5.898   0.024  0.00  0.00    +0.107 A 
ATOM     14  C   UNL     1       2.291   5.229   0.008  0.00  0.00    +0.273 A 
ATOM     15  O   UNL     1       3.318   5.883   0.002  0.00  0.00    -0.266 OA
BRANCH   5  16
ATOM     16  C   UNL     1       3.628   3.181  -0.015  0.00  0.00    +0.125 C 
BRANCH  16  17
ATOM     17  C   UNL     1       4.064   2.945  -1.462  0.00  0.00    +0.021 C 
BRANCH  17  19
ATOM     18  C   UNL     1       5.844   1.981  -2.926  0.00  0.00    +0.004 C 
ATOM     19  C   UNL     1       5.409   2.216  -1.478  0.00  0.00    -0.002 C 
ENDBRANCH  17  19
ENDBRANCH  16  17
ENDBRANCH   5  16
ENDBRANCH   4  13
ENDBRANCH   3   4
ENDBRANCH   1   3
BRANCH   1  20
ATOM     20  O   UNL     1      -1.818   9.962   0.071  0.00  0.00    -0.455 OA
BRANCH  20  21
ATOM     21  C   UNL     1      -1.812  11.414   0.079  0.00  0.00    +0.328 C 
BRANCH  21  22
ATOM     22  C   UNL     1      -3.231  11.923   0.095  0.00  0.00    +0.258 C 
ATOM     23  O   UNL     1      -4.155  11.139   0.099  0.00  0.00    -0.272 OA
ATOM     24  N   UNL     1      -3.471  13.249   0.104  0.00  0.00    -0.237 N 
ATOM     25  C   UNL     1      -4.740  13.703   0.118  0.00  0.00    +0.306 C 
ATOM     26  O   UNL     1      -5.667  12.917   0.123  0.00  0.00    -0.252 OA
ATOM     27  N   UNL     1      -4.981  15.029   0.128  0.00  0.00    -0.296 N 
ATOM     28  H   UNL     1      -2.731  13.876   0.101  0.00  0.00    +0.159 HD
ATOM     29  H   UNL     1      -4.241  15.656   0.124  0.00  0.00    +0.151 HD
BRANCH  27  30
ATOM     30  C   UNL     1      -6.360  15.523   0.143  0.00  0.00    +0.077 C 
ATOM     31  C   UNL     1      -6.895  15.585  -1.289  0.00  0.00    +0.022 C 
ATOM     32  C   UNL     1      -6.024  16.530  -2.119  0.00  0.00    +0.002 C 
ATOM     33  C   UNL     1      -6.058  17.929  -1.502  0.00  0.00    +0.000 C 
ATOM     34  C   UNL     1      -5.522  17.868  -0.070  0.00  0.00    +0.005 C 
ATOM     35  C   UNL     1      -6.393  16.923   0.760  0.00  0.00    +0.006 C 
ATOM     36  C   UNL     1      -5.857  16.861   2.192  0.00  0.00    +0.009 C 
ENDBRANCH  27  30
ENDBRANCH  21  22
ENDBRANCH  20  21
ENDBRANCH   1  20
TORSDOF 10
