REMARK  Name = ZINC24089792
REMARK  10 active torsions:
REMARK  status: ('A' for Active; 'I' for Inactive)
REMARK    1  A    between atoms: C_1  and  C_2
REMARK    2  A    between atoms: C_2  and  C_3
REMARK    3  A    between atoms: C_2  and  C_4
REMARK    4  A    between atoms: C_2  and  C_10
REMARK    5  A    between atoms: C_13  and  O_16
REMARK    6  A    between atoms: O_16  and  C_17
REMARK    7  A    between atoms: C_17  and  C_18
REMARK    8  A    between atoms: C_18  and  C_20
REMARK    9  A    between atoms: C_18  and  O_34
REMARK   10  A    between atoms: C_20  and  N_21
REMARK                            x       y       z     vdW  Elec       q    Type
REMARK                         _______ _______ _______ _____ _____    ______ ____
ROOT
ATOM      1  C   UNL     1       4.642  -2.074  -6.010  0.00  0.00    +0.170 C 
ENDROOT
BRANCH   1   2
ATOM      2  O   UNL     1       4.022  -1.419  -7.119  0.00  0.00    -0.387 OA
ATOM      3  H   UNL     1       4.166  -0.463  -7.141  0.00  0.00    +0.210 HD
ENDBRANCH   1   2
BRANCH   1   4
ATOM      4  C   UNL     1       4.087  -1.502  -4.704  0.00  0.00    +0.261 C 
BRANCH   4   5
ATOM      5  O   UNL     1       2.697  -1.817  -4.600  0.00  0.00    -0.489 OA
BRANCH   5   9
ATOM      6  C   UNL     1       0.723  -0.489  -1.229  0.00  0.00    -0.037 A 
ATOM      7  C   UNL     1       0.037  -1.204  -2.194  0.00  0.00    +0.008 A 
ATOM      8  C   UNL     1       0.696  -1.649  -3.324  0.00  0.00    +0.046 A 
ATOM      9  C   UNL     1       2.046  -1.379  -3.490  0.00  0.00    +0.121 A 
ATOM     10  C   UNL     1       2.732  -0.661  -2.521  0.00  0.00    +0.046 A 
ATOM     11  C   UNL     1       2.068  -0.213  -1.395  0.00  0.00    +0.008 A 
BRANCH   6  13
ATOM     12  C   UNL     1      -1.120   0.953  -0.407  0.00  0.00    +0.021 C 
ATOM     13  C   UNL     1       0.002  -0.004   0.002  0.00  0.00    +0.015 C 
ATOM     14  C   UNL     1       0.988   0.727   0.915  0.00  0.00    +0.021 C 
BRANCH  13  15
ATOM     15  C   UNL     1      -0.585  -1.182   0.737  0.00  0.00    -0.037 A 
ATOM     16  C   UNL     1       0.225  -2.238   1.108  0.00  0.00    +0.004 A 
ATOM     17  C   UNL     1      -0.313  -3.318   1.782  0.00  0.00    +0.000 A 
ATOM     18  C   UNL     1      -1.662  -3.342   2.085  0.00  0.00    +0.000 A 
ATOM     19  C   UNL     1      -2.472  -2.285   1.714  0.00  0.00    +0.000 A 
ATOM     20  C   UNL     1      -1.933  -1.202   1.044  0.00  0.00    +0.004 A 
ENDBRANCH  13  15
ENDBRANCH   6  13
ENDBRANCH   5   9
ENDBRANCH   4   5
ENDBRANCH   1   4
BRANCH   1  21
ATOM     21  C   UNL     1       6.154  -1.845  -6.064  0.00  0.00    +0.152 C 
BRANCH  21  22
ATOM     22  N   UNL     1       6.686  -2.393  -7.314  0.00  0.00    -0.222 N 
ATOM     23  C   UNL     1       7.123  -3.661  -7.462  0.00  0.00    +0.247 C 
ATOM     24  O   UNL     1       7.150  -4.531  -6.619  0.00  0.00    -0.273 OA
ATOM     25  C   UNL     1       7.572  -3.766  -8.901  0.00  0.00    +0.113 C 
ATOM     26  C   UNL     1       9.020  -4.152  -9.007  0.00  0.00    +0.035 C 
ATOM     27  C   UNL     1       9.725  -3.466 -10.197  0.00  0.00    +0.003 C 
ATOM     28  C   UNL     1       8.854  -3.435 -11.468  0.00  0.00    +0.000 C 
ATOM     29  C   UNL     1       8.119  -4.728 -11.692  0.00  0.00    +0.000 C 
ATOM     30  C   UNL     1       6.712  -4.601 -11.078  0.00  0.00    +0.003 C 
ATOM     31  C   UNL     1       6.711  -4.812  -9.636  0.00  0.00    +0.035 C 
ATOM     32  N   UNL     1       7.316  -2.432  -9.455  0.00  0.00    -0.285 N 
ATOM     33  C   UNL     1       6.795  -1.698  -8.454  0.00  0.00    +0.309 C 
ATOM     34  O   UNL     1       6.463  -0.535  -8.570  0.00  0.00    -0.252 OA
ATOM     35  H   UNL     1       7.485  -2.139 -10.364  0.00  0.00    +0.151 HD
ENDBRANCH  21  22
ENDBRANCH   1  21
TORSDOF 8
