REMARK  Name = ZINC06078355
REMARK  14 active torsions:
REMARK  status: ('A' for Active; 'I' for Inactive)
REMARK    1  A    between atoms: C_1  and  C_2
REMARK    2  A    between atoms: C_2  and  N_69
REMARK    3  A    between atoms: C_3  and  C_4
REMARK    4  A    between atoms: C_3  and  N_69
REMARK    5  A    between atoms: C_5  and  C_6
REMARK    6  A    between atoms: C_5  and  N_69
REMARK    7  A    between atoms: C_6  and  N_7
REMARK    8  A    between atoms: N_7  and  C_8
REMARK    9  A    between atoms: N_7  and  C_25
REMARK   10  A    between atoms: C_8  and  C_9
REMARK   11  A    between atoms: C_25  and  N_27
REMARK   12  A    between atoms: N_27  and  C_28
REMARK   13  A    between atoms: C_31  and  C_35
REMARK   14  A    between atoms: C_33  and  C_34
REMARK                            x       y       z     vdW  Elec       q    Type
REMARK                         _______ _______ _______ _____ _____    ______ ____
ROOT
ATOM      1  N   UNL     1      -3.827   2.176  -0.140  0.00  0.00    -0.310 N 
ENDROOT
BRANCH   1   2
ATOM      2  C   UNL     1      -2.691   1.492   0.103  0.00  0.00    +0.137 C 
ATOM      3  S   UNL     1      -2.742  -0.207   0.310  0.00  0.00    -0.018 S 
BRANCH   2   4
ATOM      4  N   UNL     1      -1.515   2.146   0.183  0.00  0.00    -0.297 N 
ATOM      5  H   UNL     1      -1.493   3.114   0.129  0.00  0.00    +0.154 HD
BRANCH   4   6
ATOM      6  C   UNL     1      -0.325   1.427   0.345  0.00  0.00    +0.036 A 
ATOM      7  C   UNL     1      -0.237   0.437   1.314  0.00  0.00    +0.024 A 
ATOM      8  C   UNL     1       0.937  -0.274   1.468  0.00  0.00    +0.005 A 
ATOM      9  C   UNL     1       2.024  -0.001   0.657  0.00  0.00    -0.050 A 
ATOM     10  C   UNL     1       1.939   0.985  -0.309  0.00  0.00    +0.008 A 
ATOM     11  C   UNL     1       0.768   1.700  -0.467  0.00  0.00    -0.029 A 
ATOM     12  C   UNL     1       0.676   2.773  -1.521  0.00  0.00    +0.045 C 
ATOM     13  C   UNL     1       3.303  -0.779   0.827  0.00  0.00    +0.044 C 
ENDBRANCH   4   6
ENDBRANCH   2   4
ENDBRANCH   1   2
BRANCH   1  14
ATOM     14  C   UNL     1      -3.799   3.639  -0.216  0.00  0.00    +0.088 C 
BRANCH  14  15
ATOM     15  C   UNL     1      -3.657   4.070  -1.677  0.00  0.00    -0.060 C 
BRANCH  15  16
ATOM     16  N   UNL     1      -3.615   5.546  -1.733  0.00  0.00    +0.380 N 
ATOM     17  H   UNL     1      -4.333   5.925  -1.105  0.00  0.00    -0.082 HD
BRANCH  16  19
ATOM     18  C   UNL     1      -1.202   5.578  -2.272  0.00  0.00    -0.017 C 
ATOM     19  C   UNL     1      -2.289   6.031  -1.295  0.00  0.00    -0.082 C 
ENDBRANCH  16  19
BRANCH  16  20
ATOM     20  C   UNL     1      -3.891   6.008  -3.110  0.00  0.00    -0.082 C 
ATOM     21  C   UNL     1      -3.980   7.535  -3.112  0.00  0.00    -0.017 C 
ENDBRANCH  16  20
ENDBRANCH  15  16
ENDBRANCH  14  15
ENDBRANCH   1  14
BRANCH   1  22
ATOM     22  C   UNL     1      -5.089   1.456  -0.327  0.00  0.00    +0.147 C 
BRANCH  22  23
ATOM     23  C   UNL     1      -5.828   1.388   0.985  0.00  0.00    +0.035 A 
ATOM     24  C   UNL     1      -5.705   0.290   1.773  0.00  0.00    +0.020 A 
ATOM     25  C   UNL     1      -6.430   0.256   3.043  0.00  0.00    +0.003 A 
ATOM     26  C   UNL     1      -6.338  -0.849   3.898  0.00  0.00    +0.059 A 
ATOM     27  C   UNL     1      -7.037  -0.855   5.087  0.00  0.00    +0.163 A 
ATOM     28  C   UNL     1      -7.836   0.238   5.439  0.00  0.00    +0.164 A 
ATOM     29  C   UNL     1      -7.933   1.334   4.599  0.00  0.00    +0.075 A 
ATOM     30  C   UNL     1      -7.236   1.355   3.398  0.00  0.00    +0.053 A 
ATOM     31  N   UNL     1      -7.322   2.439   2.549  0.00  0.00    -0.322 N 
ATOM     32  H   UNL     1      -7.895   3.219   2.801  0.00  0.00    +0.169 HD
ATOM     33  C   UNL     1      -6.647   2.462   1.386  0.00  0.00    +0.254 A 
ATOM     34  O   UNL     1      -6.747   3.437   0.660  0.00  0.00    -0.268 OA
ATOM     35  O   UNL     1      -8.525   0.242   6.612  0.00  0.00    -0.485 OA
ATOM     36  C   UNL     1      -8.706  -1.023   7.258  0.00  0.00    +0.270 C 
ATOM     37  C   UNL     1      -7.358  -1.757   7.264  0.00  0.00    +0.270 C 
ATOM     38  O   UNL     1      -6.940  -1.938   5.907  0.00  0.00    -0.485 OA
ENDBRANCH  22  23
ENDBRANCH   1  22
TORSDOF 10
