REMARK  Name = ZINC34734901
REMARK  8 active torsions:
REMARK  status: ('A' for Active; 'I' for Inactive)
REMARK    1  A    between atoms: C_1  and  C_2
REMARK    2  A    between atoms: C_5  and  C_38
REMARK    3  A    between atoms: C_6  and  C_8
REMARK    4  A    between atoms: C_8  and  N_9
REMARK    5  A    between atoms: C_24  and  C_26
REMARK    6  A    between atoms: C_24  and  C_27
REMARK    7  A    between atoms: N_30  and  C_31
REMARK    8  A    between atoms: C_31  and  C_32
REMARK                            x       y       z     vdW  Elec       q    Type
REMARK                         _______ _______ _______ _____ _____    ______ ____
ROOT
ATOM      1  N   UNL     1       2.979  -2.677   2.095  0.00  0.00    +0.384 N 
ATOM      2  C   UNL     1       4.427  -2.465   2.218  0.00  0.00    -0.059 C 
ATOM      3  C   UNL     1       5.025  -3.544   3.127  0.00  0.00    +0.089 C 
ATOM      4  N   UNL     1       4.299  -3.531   4.406  0.00  0.00    -0.304 N 
ATOM      5  C   UNL     1       2.829  -3.575   4.370  0.00  0.00    +0.089 C 
ATOM      6  C   UNL     1       2.334  -2.495   3.402  0.00  0.00    -0.059 C 
ATOM      7  C   UNL     1       4.974  -3.479   5.601  0.00  0.00    +0.202 A 
ATOM      8  N   UNL     1       5.917  -2.577   5.775  0.00  0.00    -0.208 NA
ATOM      9  C   UNL     1       6.587  -2.504   6.920  0.00  0.00    +0.118 A 
ATOM     10  C   UNL     1       6.328  -3.375   7.993  0.00  0.00    +0.076 A 
ATOM     11  C   UNL     1       7.147  -3.172   9.186  0.00  0.00    -0.018 A 
ATOM     12  C   UNL     1       8.062  -2.180   9.143  0.00  0.00    +0.021 A 
ATOM     13  S   UNL     1       7.890  -1.466   7.533  0.00  0.00    -0.071 S 
ATOM     14  C   UNL     1       9.003  -1.794  10.243  0.00  0.00    +0.203 C 
ATOM     15  O   UNL     1       8.560  -2.437  11.449  0.00  0.00    -0.368 OA
ATOM     16  C   UNL     1       8.283  -3.830  11.284  0.00  0.00    +0.068 C 
ATOM     17  C   UNL     1       7.013  -4.020  10.449  0.00  0.00    +0.071 C 
ATOM     18  C   UNL     1       9.461  -4.502  10.576  0.00  0.00    +0.041 C 
ATOM     19  C   UNL     1       8.087  -4.474  12.658  0.00  0.00    +0.041 C 
ATOM     20  C   UNL     1       5.298  -4.343   7.774  0.00  0.00    +0.264 A 
ATOM     21  O   UNL     1       5.003  -5.141   8.648  0.00  0.00    -0.267 OA
ATOM     22  N   UNL     1       4.655  -4.359   6.592  0.00  0.00    -0.276 N 
ATOM     23  H   UNL     1       2.806  -3.615   1.764  0.00  0.00    -0.081 HD
ENDROOT
BRANCH   1  24
ATOM     24  C   UNL     1       2.424  -1.711   1.138  0.00  0.00    -0.043 C 
BRANCH  24  30
ATOM     25  C   UNL     1       5.690  -0.600  -2.487  0.00  0.00    +0.044 C 
ATOM     26  C   UNL     1       4.556  -1.444  -1.966  0.00  0.00    -0.050 A 
ATOM     27  C   UNL     1       4.038  -2.463  -2.744  0.00  0.00    +0.003 A 
ATOM     28  C   UNL     1       2.998  -3.237  -2.267  0.00  0.00    +0.004 A 
ATOM     29  C   UNL     1       2.475  -2.994  -1.010  0.00  0.00    -0.049 A 
ATOM     30  C   UNL     1       2.993  -1.977  -0.231  0.00  0.00    -0.061 A 
ATOM     31  C   UNL     1       4.037  -1.205  -0.707  0.00  0.00    +0.005 A 
ATOM     32  C   UNL     1       1.340  -3.838  -0.490  0.00  0.00    +0.044 C 
ENDBRANCH  24  30
ENDBRANCH   1  24
BRANCH  22  33
ATOM     33  C   UNL     1       3.596  -5.345   6.364  0.00  0.00    +0.163 C 
BRANCH  33  34
ATOM     34  C   UNL     1       4.197  -6.608   5.803  0.00  0.00    -0.028 A 
ATOM     35  C   UNL     1       4.229  -6.811   4.436  0.00  0.00    +0.005 A 
ATOM     36  C   UNL     1       4.781  -7.970   3.922  0.00  0.00    +0.000 A 
ATOM     37  C   UNL     1       5.301  -8.925   4.776  0.00  0.00    +0.000 A 
ATOM     38  C   UNL     1       5.269  -8.722   6.143  0.00  0.00    +0.000 A 
ATOM     39  C   UNL     1       4.721  -7.562   6.656  0.00  0.00    +0.005 A 
ENDBRANCH  33  34
ENDBRANCH  22  33
TORSDOF 4
