REMARK  Name = ZINC07006084
REMARK  6 active torsions:
REMARK  status: ('A' for Active; 'I' for Inactive)
REMARK    1  A    between atoms: C_1  and  N_58
REMARK    2  A    between atoms: C_2  and  C_3
REMARK    3  A    between atoms: C_2  and  N_58
REMARK    4  A    between atoms: C_3  and  N_4
REMARK    5  A    between atoms: C_5  and  C_7
REMARK    6  A    between atoms: C_22  and  N_58
REMARK                            x       y       z     vdW  Elec       q    Type
REMARK                         _______ _______ _______ _____ _____    ______ ____
ROOT
ATOM      1  N   UNL     1      -1.848   4.918   0.051  0.00  0.00    -0.312 N 
ATOM      2  C   UNL     1      -2.616   5.530  -0.873  0.00  0.00    +0.261 C 
ATOM      3  O   UNL     1      -3.123   4.881  -1.769  0.00  0.00    -0.269 OA
ATOM      4  H   UNL     1      -1.385   5.444   0.722  0.00  0.00    +0.149 HD
ENDROOT
BRANCH   2   5
ATOM      5  C   UNL     1      -2.840   6.977  -0.798  0.00  0.00    +0.110 A 
ATOM      6  C   UNL     1      -2.242   7.850   0.088  0.00  0.00    +0.033 A 
ATOM      7  C   UNL     1      -2.741   9.126  -0.192  0.00  0.00    +0.020 A 
ATOM      8  C   UNL     1      -3.616   9.015  -1.220  0.00  0.00    +0.094 A 
ATOM      9  N   UNL     1      -3.682   7.714  -1.603  0.00  0.00    -0.290 N 
ATOM     10  C   UNL     1      -4.470   7.208  -2.635  0.00  0.00    +0.202 A 
ATOM     11  N   UNL     1      -4.675   5.957  -3.013  0.00  0.00    -0.121 NA
ATOM     12  N   UNL     1      -5.433   5.666  -3.979  0.00  0.00    -0.124 NA
ATOM     13  C   UNL     1      -6.062   6.597  -4.681  0.00  0.00    +0.186 A 
ATOM     14  S   UNL     1      -5.489   8.066  -3.832  0.00  0.00    -0.013 S 
ATOM     15  N   UNL     1      -6.919   6.471  -5.766  0.00  0.00    -0.308 N 
ATOM     16  C   UNL     1      -6.352   7.126  -6.972  0.00  0.00    +0.107 C 
ATOM     17  C   UNL     1      -7.125   6.456  -8.136  0.00  0.00    +0.020 C 
ATOM     18  C   UNL     1      -7.266   4.992  -7.660  0.00  0.00    +0.020 C 
ATOM     19  C   UNL     1      -7.107   5.050  -6.129  0.00  0.00    +0.107 C 
ENDBRANCH   2   5
BRANCH   1  20
ATOM     20  C   UNL     1      -1.714   3.459   0.042  0.00  0.00    +0.086 C 
BRANCH  20  21
ATOM     21  C   UNL     1      -0.795   3.025   1.186  0.00  0.00    -0.060 C 
BRANCH  21  23
ATOM     22  C   UNL     1       0.042   1.105  -0.029  0.00  0.00    -0.096 C 
ATOM     23  N   UNL     1      -0.687   1.551   1.177  0.00  0.00    +0.381 N 
ATOM     24  H   UNL     1      -1.631   1.147   1.163  0.00  0.00    -0.082 HD
BRANCH  23  25
ATOM     25  C   UNL     1       0.015   1.088   2.392  0.00  0.00    -0.069 C 
ATOM     26  C   UNL     1       1.454   1.608   2.410  0.00  0.00    -0.015 C 
ATOM     27  C   UNL     1       2.159   1.115   3.676  0.00  0.00    -0.002 C 
ATOM     28  C   UNL     1       2.169  -0.415   3.689  0.00  0.00    -0.000 C 
ATOM     29  C   UNL     1       0.731  -0.935   3.671  0.00  0.00    -0.002 C 
ATOM     30  C   UNL     1       0.026  -0.442   2.406  0.00  0.00    -0.015 C 
ENDBRANCH  23  25
ENDBRANCH  21  23
ENDBRANCH  20  21
ENDBRANCH   1  20
TORSDOF 5
