REMARK  Name = ZINC60343128
REMARK  12 active torsions:
REMARK  status: ('A' for Active; 'I' for Inactive)
REMARK    1  A    between atoms: C_1  and  C_2
REMARK    2  A    between atoms: C_2  and  C_4
REMARK    3  A    between atoms: C_2  and  N_27
REMARK    4  A    between atoms: N_10  and  C_11
REMARK    5  A    between atoms: C_11  and  C_12
REMARK    6  A    between atoms: C_21  and  S_23
REMARK    7  A    between atoms: S_23  and  N_26
REMARK    8  A    between atoms: C_28  and  O_30
REMARK    9  A    between atoms: O_30  and  C_31
REMARK   10  A    between atoms: C_31  and  C_32
REMARK   11  A    between atoms: C_31  and  C_33
REMARK   12  A    between atoms: C_31  and  C_34
REMARK                            x       y       z     vdW  Elec       q    Type
REMARK                         _______ _______ _______ _____ _____    ______ ____
ROOT
ATOM      1  C   UNL     1       0.742  -0.511   1.242  0.00  0.00    -0.047 C 
ATOM      2  C   UNL     1       2.210  -0.087   1.167  0.00  0.00    -0.014 C 
ATOM      3  C   UNL     1       2.947  -0.596   2.409  0.00  0.00    -0.003 C 
ATOM      4  C   UNL     1       2.249  -0.057   3.662  0.00  0.00    -0.019 C 
ATOM      5  C   UNL     1       0.780  -0.482   3.643  0.00  0.00    -0.078 C 
ATOM      6  N   UNL     1       0.126   0.059   2.446  0.00  0.00    +0.388 N 
ATOM      7  H   UNL     1       0.227   1.062   2.432  0.00  0.00    -0.081 HD
ENDROOT
BRANCH   1   9
ATOM      8  C   UNL     1      -0.019   1.526   0.010  0.00  0.00    +0.026 C 
ATOM      9  C   UNL     1       0.002  -0.004   0.002  0.00  0.00    +0.060 C 
BRANCH   9  10
ATOM     10  N   UNL     1       0.688  -0.476  -1.203  0.00  0.00    -0.280 N 
ATOM     11  C   UNL     1       0.006  -0.608  -2.358  0.00  0.00    +0.401 C 
ATOM     12  O   UNL     1      -1.177  -0.335  -2.400  0.00  0.00    -0.226 OA
ATOM     13  H   UNL     1       1.632  -0.695  -1.170  0.00  0.00    +0.152 HD
BRANCH  11  14
ATOM     14  O   UNL     1       0.636  -1.042  -3.466  0.00  0.00    -0.445 OA
BRANCH  14  15
ATOM     15  C   UNL     1      -0.148  -1.158  -4.655  0.00  0.00    +0.107 C 
ATOM     16  C   UNL     1      -0.725   0.211  -5.021  0.00  0.00    +0.055 C 
ATOM     17  C   UNL     1       0.734  -1.662  -5.800  0.00  0.00    +0.055 C 
ATOM     18  C   UNL     1      -1.291  -2.147  -4.418  0.00  0.00    +0.055 C 
ENDBRANCH  14  15
ENDBRANCH  11  14
ENDBRANCH   9  10
ENDBRANCH   1   9
BRANCH   6  19
ATOM     19  C   UNL     1      -1.302  -0.286   2.473  0.00  0.00    +0.020 C 
BRANCH  19  20
ATOM     20  C   UNL     1      -1.962   0.399   3.641  0.00  0.00    +0.203 C 
ATOM     21  O   UNL     1      -1.308   1.105   4.379  0.00  0.00    -0.277 OA
ATOM     22  N   UNL     1      -3.280   0.228   3.866  0.00  0.00    -0.272 N 
ATOM     23  C   UNL     1      -4.171  -0.602   3.051  0.00  0.00    +0.118 C 
ATOM     24  C   UNL     1      -5.555  -0.473   3.707  0.00  0.00    +0.056 C 
ATOM     25  C   UNL     1      -5.335   0.452   4.883  0.00  0.00    -0.023 A 
ATOM     26  C   UNL     1      -3.997   0.812   4.916  0.00  0.00    +0.040 A 
ATOM     27  C   UNL     1      -3.549   1.664   5.927  0.00  0.00    +0.026 A 
ATOM     28  C   UNL     1      -4.428   2.136   6.878  0.00  0.00    +0.030 A 
ATOM     29  C   UNL     1      -5.760   1.767   6.839  0.00  0.00    +0.105 A 
ATOM     30  C   UNL     1      -6.213   0.930   5.836  0.00  0.00    +0.034 A 
BRANCH  29  31
ATOM     31  S   UNL     1      -6.880   2.372   8.058  0.00  0.00    +0.056 S 
ATOM     32  O   UNL     1      -7.955   1.444   8.117  0.00  0.00    -0.153 OA
ATOM     33  O   UNL     1      -6.099   2.706   9.197  0.00  0.00    -0.153 OA
BRANCH  31  34
ATOM     34  N   UNL     1      -7.510   3.791   7.483  0.00  0.00    -0.204 NA
ATOM     35  H   UNL     1      -8.406   4.062   7.737  0.00  0.00    +0.144 HD
ATOM     36  H   UNL     1      -6.983   4.351   6.892  0.00  0.00    +0.144 HD
ENDBRANCH  31  34
ENDBRANCH  29  31
ENDBRANCH  19  20
ENDBRANCH   6  19
TORSDOF 8
