REMARK  Name = ZINC36214799
REMARK  13 active torsions:
REMARK  status: ('A' for Active; 'I' for Inactive)
REMARK    1  A    between atoms: C_1  and  C_2
REMARK    2  A    between atoms: C_2  and  C_4
REMARK    3  A    between atoms: C_2  and  N_7
REMARK    4  A    between atoms: C_4  and  C_5
REMARK    5  A    between atoms: C_4  and  C_6
REMARK    6  A    between atoms: C_8  and  C_10
REMARK    7  A    between atoms: C_10  and  C_12
REMARK    8  A    between atoms: C_10  and  N_29
REMARK    9  A    between atoms: N_15  and  S_18
REMARK   10  A    between atoms: S_18  and  C_21
REMARK   11  A    between atoms: C_24  and  O_27
REMARK   12  A    between atoms: O_27  and  C_28
REMARK   13  A    between atoms: C_30  and  C_32
REMARK                            x       y       z     vdW  Elec       q    Type
REMARK                         _______ _______ _______ _____ _____    ______ ____
ROOT
ATOM      1  C   UNL     1      -3.465  -1.164  -1.134  0.00  0.00    +0.162 C 
ENDROOT
BRANCH   1   2
ATOM      2  C   UNL     1      -4.422  -0.036  -0.745  0.00  0.00    +0.021 C 
ATOM      3  C   UNL     1      -4.058   0.485   0.647  0.00  0.00    +0.023 C 
ATOM      4  C   UNL     1      -4.996   1.637   1.018  0.00  0.00    +0.110 C 
ATOM      5  N   UNL     1      -6.385   1.177   0.890  0.00  0.00    -0.177 NA
ATOM      6  C   UNL     1      -6.816   0.575  -0.379  0.00  0.00    +0.110 C 
ATOM      7  C   UNL     1      -5.857  -0.566  -0.735  0.00  0.00    +0.023 C 
BRANCH   5   8
ATOM      8  S   UNL     1      -7.445   1.331   2.153  0.00  0.00    +0.061 S 
ATOM      9  O   UNL     1      -8.454   0.349   1.960  0.00  0.00    -0.153 OA
ATOM     10  O   UNL     1      -6.661   1.395   3.337  0.00  0.00    -0.153 OA
BRANCH   8  11
ATOM     11  C   UNL     1      -8.231   2.899   1.985  0.00  0.00    +0.106 A 
ATOM     12  C   UNL     1      -7.673   4.018   2.577  0.00  0.00    +0.032 A 
ATOM     13  C   UNL     1      -8.287   5.248   2.446  0.00  0.00    +0.047 A 
ATOM     14  C   UNL     1      -9.464   5.361   1.721  0.00  0.00    +0.120 A 
ATOM     15  C   UNL     1     -10.022   4.238   1.128  0.00  0.00    +0.047 A 
ATOM     16  C   UNL     1      -9.401   3.010   1.257  0.00  0.00    +0.032 A 
BRANCH  14  17
ATOM     17  O   UNL     1     -10.071   6.571   1.592  0.00  0.00    -0.495 OA
ATOM     18  C   UNL     1     -11.280   6.612   0.831  0.00  0.00    +0.277 C 
ENDBRANCH  14  17
ENDBRANCH   8  11
ENDBRANCH   5   8
ENDBRANCH   1   2
BRANCH   1  20
ATOM     19  N   UNL     1      -1.372  -0.511   0.012  0.00  0.00    -0.311 N 
ATOM     20  C   UNL     1      -2.051  -0.643  -1.145  0.00  0.00    +0.234 C 
ATOM     21  O   UNL     1      -1.524  -0.341  -2.194  0.00  0.00    -0.274 OA
ATOM     22  H   UNL     1      -1.794  -0.752   0.852  0.00  0.00    +0.149 HD
BRANCH  19  24
ATOM     23  C   UNL     1      -0.019   1.526   0.010  0.00  0.00    +0.028 C 
ATOM     24  C   UNL     1       0.002  -0.004   0.002  0.00  0.00    +0.072 C 
BRANCH  24  25
ATOM     25  C   UNL     1       0.742  -0.511   1.242  0.00  0.00    +0.003 C 
ATOM     26  C   UNL     1       0.763  -2.041   1.233  0.00  0.00    +0.009 C 
ATOM     27  C   UNL     1       2.178   0.019   1.231  0.00  0.00    +0.009 C 
ENDBRANCH  24  25
ENDBRANCH  19  24
ENDBRANCH   1  20
BRANCH   1  28
ATOM     28  N   UNL     1      -3.812  -1.662  -2.467  0.00  0.00    -0.299 N 
ATOM     29  C   UNL     1      -3.780  -0.829  -3.527  0.00  0.00    +0.251 C 
ATOM     30  O   UNL     1      -3.463   0.337  -3.375  0.00  0.00    -0.270 OA
ATOM     31  H   UNL     1      -4.064  -2.590  -2.588  0.00  0.00    +0.150 HD
BRANCH  29  32
ATOM     32  C   UNL     1      -4.127  -1.326  -4.861  0.00  0.00    +0.074 A 
ATOM     33  C   UNL     1      -4.153  -0.645  -6.069  0.00  0.00    +0.021 A 
ATOM     34  C   UNL     1      -4.523  -1.387  -7.165  0.00  0.00    +0.008 A 
ATOM     35  C   UNL     1      -4.831  -2.697  -7.000  0.00  0.00    +0.046 A 
ATOM     36  S   UNL     1      -4.620  -2.966  -5.356  0.00  0.00    -0.092 S 
ENDBRANCH  29  32
ENDBRANCH   1  28
TORSDOF 9
