REMARK  Name = ZINC12601429
REMARK  15 active torsions:
REMARK  status: ('A' for Active; 'I' for Inactive)
REMARK    1  A    between atoms: C_1  and  C_2
REMARK    2  A    between atoms: C_2  and  N_3
REMARK    3  A    between atoms: C_11  and  S_12
REMARK    4  A    between atoms: S_12  and  C_13
REMARK    5  A    between atoms: C_13  and  C_14
REMARK    6  A    between atoms: N_16  and  C_17
REMARK    7  A    between atoms: N_16  and  C_21
REMARK    8  A    between atoms: C_17  and  C_18
REMARK    9  A    between atoms: C_18  and  C_19
REMARK   10  A    between atoms: C_18  and  C_20
REMARK   11  A    between atoms: C_22  and  N_34
REMARK   12  A    between atoms: N_23  and  C_30
REMARK   13  A    between atoms: C_30  and  C_31
REMARK   14  A    between atoms: C_31  and  C_32
REMARK   15  A    between atoms: C_31  and  C_33
REMARK                            x       y       z     vdW  Elec       q    Type
REMARK                         _______ _______ _______ _____ _____    ______ ____
ROOT
ATOM      1  C   UNL     1       4.023   5.077   4.662  0.00  0.00    +0.230 C 
ATOM      2  O   UNL     1       3.616   6.093   4.138  0.00  0.00    -0.274 OA
ATOM      3  N   UNL     1       5.143   5.108   5.414  0.00  0.00    -0.263 N 
ENDROOT
BRANCH   3   4
ATOM      4  C   UNL     1       5.896   6.298   5.510  0.00  0.00    +0.140 A 
ATOM      5  C   UNL     1       6.463   6.861   4.385  0.00  0.00    +0.127 A 
ATOM      6  N   UNL     1       7.192   8.021   4.511  0.00  0.00    -0.280 N 
ATOM      7  C   UNL     1       7.349   8.599   5.715  0.00  0.00    +0.331 A 
ATOM      8  O   UNL     1       7.997   9.624   5.805  0.00  0.00    -0.246 OA
ATOM      9  N   UNL     1       6.804   8.064   6.822  0.00  0.00    -0.273 N 
ATOM     10  H   UNL     1       6.939   8.512   7.706  0.00  0.00    +0.173 HD
ATOM     11  C   UNL     1       6.076   6.933   6.753  0.00  0.00    +0.277 A 
ATOM     12  O   UNL     1       5.581   6.459   7.762  0.00  0.00    -0.266 OA
BRANCH   5  13
ATOM     13  N   UNL     1       6.303   6.271   3.155  0.00  0.00    -0.343 N 
ATOM     14  H   UNL     1       5.781   5.457   3.072  0.00  0.00    +0.144 HD
ATOM     15  H   UNL     1       6.711   6.667   2.369  0.00  0.00    +0.144 HD
ENDBRANCH   5  13
BRANCH   6  16
ATOM     16  C   UNL     1       7.799   8.631   3.325  0.00  0.00    +0.131 C 
BRANCH  16  17
ATOM     17  C   UNL     1       6.814   9.618   2.697  0.00  0.00    +0.003 C 
ATOM     18  C   UNL     1       7.492  10.346   1.535  0.00  0.00    +0.009 C 
ATOM     19  C   UNL     1       5.591   8.859   2.180  0.00  0.00    +0.009 C 
ENDBRANCH  16  17
ENDBRANCH   6  16
ENDBRANCH   3   4
BRANCH   1  20
ATOM     20  C   UNL     1       3.277   3.781   4.473  0.00  0.00    +0.173 C 
BRANCH  20  21
ATOM     21  S   UNL     1       1.831   4.064   3.422  0.00  0.00    -0.078 S 
BRANCH  21  30
ATOM     22  N   UNL     1       0.037   2.067   2.694  0.00  0.00    -0.319 N 
ATOM     23  C   UNL     1      -0.147   0.711   2.907  0.00  0.00    +0.069 A 
ATOM     24  C   UNL     1      -1.101  -0.207   2.493  0.00  0.00    +0.028 A 
ATOM     25  C   UNL     1      -1.002  -1.525   2.887  0.00  0.00    +0.002 A 
ATOM     26  C   UNL     1       0.046  -1.940   3.696  0.00  0.00    +0.002 A 
ATOM     27  C   UNL     1       1.006  -1.045   4.110  0.00  0.00    +0.030 A 
ATOM     28  C   UNL     1       0.918   0.295   3.723  0.00  0.00    +0.090 A 
ATOM     29  N   UNL     1       1.682   1.391   3.974  0.00  0.00    -0.222 NA
ATOM     30  C   UNL     1       1.166   2.433   3.370  0.00  0.00    +0.170 A 
BRANCH  22  32
ATOM     31  C   UNL     1      -0.328   2.966   0.449  0.00  0.00    +0.027 C 
ATOM     32  C   UNL     1      -0.822   2.946   1.897  0.00  0.00    +0.121 C 
ENDBRANCH  22  32
ENDBRANCH  21  30
ENDBRANCH  20  21
ENDBRANCH   1  20
BRANCH   3  33
ATOM     33  C   UNL     1       5.577   3.907   6.131  0.00  0.00    +0.117 C 
BRANCH  33  34
ATOM     34  C   UNL     1       6.425   3.036   5.202  0.00  0.00    +0.001 C 
ATOM     35  C   UNL     1       7.725   3.768   4.862  0.00  0.00    +0.009 C 
ATOM     36  C   UNL     1       6.751   1.714   5.898  0.00  0.00    +0.009 C 
ENDBRANCH  33  34
ENDBRANCH   3  33
TORSDOF 10
