REMARK  Name = ZINC39686268
REMARK  10 active torsions:
REMARK  status: ('A' for Active; 'I' for Inactive)
REMARK    1  A    between atoms: C_1  and  C_2
REMARK    2  A    between atoms: C_2  and  C_3
REMARK    3  A    between atoms: C_3  and  C_5
REMARK    4  A    between atoms: C_3  and  C_11
REMARK    5  A    between atoms: C_15  and  C_24
REMARK    6  A    between atoms: N_26  and  C_27
REMARK    7  A    between atoms: C_33  and  C_35
REMARK    8  A    between atoms: C_35  and  C_36
REMARK    9  A    between atoms: C_36  and  C_37
REMARK   10  A    between atoms: C_36  and  C_38
REMARK                            x       y       z     vdW  Elec       q    Type
REMARK                         _______ _______ _______ _____ _____    ______ ____
ROOT
ATOM      1  C   UNL     1       0.838  -2.160   1.176  0.00  0.00    +0.223 C 
ATOM      2  O   UNL     1       0.403  -2.871   2.057  0.00  0.00    -0.275 OA
ATOM      3  N   UNL     1       1.528  -2.701   0.152  0.00  0.00    -0.300 N 
ATOM      4  C   UNL     1       2.136  -2.001  -1.003  0.00  0.00    +0.121 C 
ATOM      5  C   UNL     1       3.483  -2.723  -1.232  0.00  0.00    +0.100 C 
ATOM      6  C   UNL     1       3.287  -4.121  -0.621  0.00  0.00    -0.004 C 
ATOM      7  C   UNL     1       1.854  -4.130  -0.069  0.00  0.00    +0.115 C 
ATOM      8  C   UNL     1       3.448  -5.194  -1.693  0.00  0.00    -0.010 C 
ATOM      9  C   UNL     1       3.307  -6.577  -1.050  0.00  0.00    -0.082 C 
ATOM     10  N   UNL     1       4.328  -6.741  -0.009  0.00  0.00    +0.379 N 
ATOM     11  C   UNL     1       4.109  -5.763   1.065  0.00  0.00    -0.082 C 
ATOM     12  C   UNL     1       4.284  -4.346   0.512  0.00  0.00    -0.010 C 
ATOM     13  H   UNL     1       4.272  -7.674   0.371  0.00  0.00    -0.086 HD
ATOM     14  H   UNL     1       5.242  -6.598  -0.410  0.00  0.00    -0.086 HD
ENDROOT
BRANCH   5  15
ATOM     15  C   UNL     1       3.777  -2.829  -2.706  0.00  0.00    +0.218 C 
ATOM     16  O   UNL     1       2.866  -2.920  -3.502  0.00  0.00    -0.275 OA
ATOM     17  N   UNL     1       5.053  -2.823  -3.140  0.00  0.00    -0.312 N 
ATOM     18  H   UNL     1       5.782  -2.750  -2.504  0.00  0.00    +0.149 HD
BRANCH  17  19
ATOM     19  C   UNL     1       5.340  -2.925  -4.574  0.00  0.00    +0.076 C 
ATOM     20  C   UNL     1       5.360  -4.399  -4.985  0.00  0.00    +0.041 C 
ATOM     21  C   UNL     1       5.625  -4.502  -6.490  0.00  0.00    +0.109 C 
ATOM     22  N   UNL     1       6.861  -3.771  -6.803  0.00  0.00    -0.301 N 
ATOM     23  C   UNL     1       6.982  -2.372  -6.372  0.00  0.00    +0.109 C 
ATOM     24  C   UNL     1       6.702  -2.293  -4.868  0.00  0.00    +0.041 C 
ATOM     25  C   UNL     1       7.863  -4.373  -7.473  0.00  0.00    +0.216 C 
ATOM     26  O   UNL     1       7.751  -5.529  -7.824  0.00  0.00    -0.276 OA
BRANCH  25  27
ATOM     27  C   UNL     1       9.124  -3.610  -7.787  0.00  0.00    +0.099 C 
BRANCH  27  28
ATOM     28  C   UNL     1      10.094  -4.517  -8.548  0.00  0.00    -0.008 C 
ATOM     29  C   UNL     1       9.492  -4.881  -9.906  0.00  0.00    +0.008 C 
ATOM     30  C   UNL     1      11.420  -3.785  -8.757  0.00  0.00    +0.008 C 
ENDBRANCH  27  28
ENDBRANCH  25  27
ENDBRANCH  17  19
ENDBRANCH   5  15
BRANCH   1  31
ATOM     31  C   UNL     1       0.606  -0.672   1.226  0.00  0.00    +0.105 C 
BRANCH  31  32
ATOM     32  C   UNL     1      -0.184  -0.327   2.462  0.00  0.00    -0.036 A 
ATOM     33  C   UNL     1      -1.441  -0.872   2.652  0.00  0.00    +0.004 A 
ATOM     34  C   UNL     1      -2.166  -0.556   3.786  0.00  0.00    +0.000 A 
ATOM     35  C   UNL     1      -1.635   0.304   4.729  0.00  0.00    +0.000 A 
ATOM     36  C   UNL     1      -0.379   0.848   4.539  0.00  0.00    +0.000 A 
ATOM     37  C   UNL     1       0.348   0.529   3.407  0.00  0.00    +0.004 A 
ENDBRANCH  31  32
BRANCH  31  39
ATOM     38  C   UNL     1      -0.299   1.290  -0.029  0.00  0.00    +0.005 C 
ATOM     39  C   UNL     1      -0.173  -0.235  -0.016  0.00  0.00    +0.014 C 
ENDBRANCH  31  39
ENDBRANCH   1  31
TORSDOF 7
