REMARK  Name = ZINC01686521
REMARK  4 active torsions:
REMARK  status: ('A' for Active; 'I' for Inactive)
REMARK    1  A    between atoms: C_3  and  N_14
REMARK    2  A    between atoms: C_6  and  C_7
REMARK    3  A    between atoms: N_14  and  C_15
REMARK    4  A    between atoms: C_15  and  C_20
REMARK                            x       y       z     vdW  Elec       q    Type
REMARK                         _______ _______ _______ _____ _____    ______ ____
ROOT
ATOM      1  C   UNL     1       5.199   3.278   2.918  0.00  0.00    +0.010 A 
ATOM      2  C   UNL     1       3.905   2.827   2.765  0.00  0.00    +0.023 A 
ATOM      3  C   UNL     1       3.402   2.575   1.494  0.00  0.00    +0.028 A 
ATOM      4  C   UNL     1       4.202   2.774   0.375  0.00  0.00    +0.023 A 
ATOM      5  C   UNL     1       5.495   3.231   0.524  0.00  0.00    +0.010 A 
ATOM      6  C   UNL     1       6.002   3.483   1.798  0.00  0.00    -0.018 A 
ENDROOT
BRANCH   6   7
ATOM      7  C   UNL     1       7.394   3.968   1.960  0.00  0.00    -0.018 A 
ATOM      8  C   UNL     1       7.901   4.226   3.232  0.00  0.00    +0.009 A 
ATOM      9  C   UNL     1       9.199   4.672   3.378  0.00  0.00    +0.015 A 
ATOM     10  C   UNL     1       9.993   4.874   2.263  0.00  0.00    +0.013 A 
ATOM     11  C   UNL     1       9.493   4.625   0.997  0.00  0.00    +0.015 A 
ATOM     12  C   UNL     1       8.198   4.174   0.840  0.00  0.00    +0.009 A 
ATOM     13  I   UNL     1      11.960   5.559   2.492  0.00  0.00    -0.044 I 
ENDBRANCH   6   7
BRANCH   3  14
ATOM     14  N   UNL     1       2.092   2.118   1.342  0.00  0.00    -0.330 N 
ATOM     15  H   UNL     1       1.565   1.886   2.122  0.00  0.00    +0.147 HD
BRANCH  14  16
ATOM     16  C   UNL     1       1.513   1.987   0.002  0.00  0.00    +0.108 C 
ATOM     17  C   UNL     1       1.554   3.346  -0.726  0.00  0.00    +0.035 C 
ATOM     18  C   UNL     1       0.152   3.954  -0.475  0.00  0.00    +0.003 C 
ATOM     19  C   UNL     1      -0.777   2.718  -0.564  0.00  0.00    +0.003 C 
ATOM     20  C   UNL     1       0.031   1.587   0.105  0.00  0.00    +0.035 C 
BRANCH  16  21
ATOM     21  C   UNL     1       2.272   0.953  -0.790  0.00  0.00    +0.234 C 
ATOM     22  O   UNL     1       2.397   1.080  -1.990  0.00  0.00    -0.274 OA
ATOM     23  N   UNL     1       2.813  -0.111  -0.165  0.00  0.00    -0.328 N 
ATOM     24  H   UNL     1       2.655  -0.250   0.782  0.00  0.00    +0.145 HD
ATOM     25  H   UNL     1       3.361  -0.738  -0.662  0.00  0.00    +0.145 HD
ENDBRANCH  16  21
ENDBRANCH  14  16
ENDBRANCH   3  14
TORSDOF 4
