REMARK  Name = ZINC04847955
REMARK  7 active torsions:
REMARK  status: ('A' for Active; 'I' for Inactive)
REMARK    1  A    between atoms: C_1  and  C_2
REMARK    2  A    between atoms: C_2  and  N_3
REMARK    3  A    between atoms: N_3  and  C_4
REMARK    4  A    between atoms: N_3  and  S_10
REMARK    5  A    between atoms: S_10  and  C_13
REMARK    6  A    between atoms: C_17  and  S_19
REMARK    7  A    between atoms: S_19  and  N_22
REMARK                            x       y       z     vdW  Elec       q    Type
REMARK                         _______ _______ _______ _____ _____    ______ ____
ROOT
ATOM      1  C   UNL     1      -2.471   1.302  -2.825  0.00  0.00    +0.107 A 
ATOM      2  C   UNL     1      -2.216   2.587  -3.268  0.00  0.00    +0.028 A 
ATOM      3  C   UNL     1      -1.244   3.350  -2.650  0.00  0.00    +0.004 A 
ATOM      4  C   UNL     1      -0.527   2.830  -1.588  0.00  0.00    +0.028 A 
ATOM      5  C   UNL     1      -0.782   1.545  -1.146  0.00  0.00    +0.107 A 
ATOM      6  C   UNL     1      -1.750   0.779  -1.768  0.00  0.00    +0.057 A 
ENDROOT
BRANCH   1   7
ATOM      7  S   UNL     1      -3.709   0.328  -3.614  0.00  0.00    +0.061 S 
ATOM      8  O   UNL     1      -4.131  -0.640  -2.663  0.00  0.00    -0.153 OA
ATOM      9  O   UNL     1      -4.613   1.238  -4.226  0.00  0.00    -0.153 OA
BRANCH   7  10
ATOM     10  N   UNL     1      -2.971  -0.504  -4.841  0.00  0.00    -0.174 NA
BRANCH  10  11
ATOM     11  C   UNL     1      -2.890   0.085  -6.180  0.00  0.00    +0.080 C 
ATOM     12  C   UNL     1      -3.681  -0.778  -7.165  0.00  0.00    +0.020 C 
ATOM     13  C   UNL     1      -3.596  -0.163  -8.563  0.00  0.00    +0.002 C 
ATOM     14  C   UNL     1      -2.132  -0.098  -9.004  0.00  0.00    +0.000 C 
ATOM     15  C   UNL     1      -1.341   0.764  -8.018  0.00  0.00    +0.002 C 
ATOM     16  C   UNL     1      -1.426   0.149  -6.620  0.00  0.00    +0.020 C 
ENDBRANCH  10  11
BRANCH  10  18
ATOM     17  C   UNL     1      -3.438  -2.904  -4.915  0.00  0.00    +0.022 C 
ATOM     18  C   UNL     1      -2.400  -1.829  -4.587  0.00  0.00    +0.106 C 
ENDBRANCH  10  18
ENDBRANCH   7  10
ENDBRANCH   1   7
BRANCH   5  19
ATOM     19  S   UNL     1       0.133   0.881   0.206  0.00  0.00    +0.061 S 
ATOM     20  O   UNL     1       0.082  -0.533   0.075  0.00  0.00    -0.153 OA
ATOM     21  O   UNL     1       1.359   1.598   0.258  0.00  0.00    -0.153 OA
BRANCH  19  22
ATOM     22  N   UNL     1      -0.696   1.259   1.590  0.00  0.00    -0.177 NA
ATOM     23  C   UNL     1      -0.507   2.473   2.397  0.00  0.00    +0.109 C 
ATOM     24  C   UNL     1      -1.473   2.381   3.596  0.00  0.00    +0.018 C 
ATOM     25  C   UNL     1      -1.739   0.856   3.709  0.00  0.00    +0.018 C 
ATOM     26  C   UNL     1      -1.739   0.430   2.219  0.00  0.00    +0.109 C 
ENDBRANCH  19  22
ENDBRANCH   5  19
TORSDOF 6
