REMARK  Name = ZINC00852963
REMARK  9 active torsions:
REMARK  status: ('A' for Active; 'I' for Inactive)
REMARK    1  A    between atoms: C_1  and  N_2
REMARK    2  A    between atoms: N_2  and  C_3
REMARK    3  A    between atoms: N_10  and  C_11
REMARK    4  A    between atoms: N_10  and  C_12
REMARK    5  A    between atoms: N_17  and  C_19
REMARK    6  A    between atoms: C_19  and  C_20
REMARK    7  A    between atoms: C_20  and  N_21
REMARK    8  A    between atoms: N_21  and  S_22
REMARK    9  A    between atoms: S_22  and  C_25
REMARK                            x       y       z     vdW  Elec       q    Type
REMARK                         _______ _______ _______ _____ _____    ______ ____
ROOT
ATOM      1  C   UNL     1       2.049   3.101   6.335  0.00  0.00    +0.132 C 
ATOM      2  N   UNL     1       0.725   3.466   6.847  0.00  0.00    -0.306 N 
ATOM      3  C   UNL     1       0.573   3.908   8.236  0.00  0.00    +0.132 C 
ATOM      4  C   UNL     1      -0.378   3.393   6.021  0.00  0.00    +0.223 A 
ATOM      5  N   UNL     1      -0.240   2.992   4.761  0.00  0.00    -0.180 NA
ATOM      6  C   UNL     1      -1.303   2.922   3.966  0.00  0.00    +0.230 A 
ATOM      7  N   UNL     1      -2.502   3.258   4.429  0.00  0.00    -0.180 NA
ATOM      8  C   UNL     1      -2.642   3.654   5.690  0.00  0.00    +0.223 A 
ATOM      9  N   UNL     1      -1.579   3.724   6.486  0.00  0.00    -0.181 NA
ATOM     10  N   UNL     1      -3.888   3.997   6.172  0.00  0.00    -0.306 N 
ATOM     11  C   UNL     1      -4.041   4.438   7.561  0.00  0.00    +0.132 C 
ATOM     12  C   UNL     1      -5.059   3.920   5.295  0.00  0.00    +0.132 C 
ATOM     13  N   UNL     1      -1.159   2.504   2.655  0.00  0.00    -0.234 N 
ATOM     14  C   UNL     1      -2.227   2.372   1.650  0.00  0.00    +0.212 C 
ATOM     15  C   UNL     1      -1.516   1.890   0.405  0.00  0.00    +0.240 C 
ATOM     16  O   UNL     1      -2.021   1.653  -0.672  0.00  0.00    -0.273 OA
ATOM     17  N   UNL     1      -0.214   1.772   0.726  0.00  0.00    -0.243 N 
ATOM     18  C   UNL     1       0.011   2.130   2.033  0.00  0.00    +0.170 C 
ATOM     19  H   UNL     1       1.366   2.365   3.532  0.00  0.00    +0.158 HD
ATOM     20  N   UNL     1       1.224   2.095   2.559  0.00  0.00    -0.374 N 
ATOM     21  H   UNL     1       2.023   1.795   1.988  0.00  0.00    +0.158 HD
ENDROOT
BRANCH  17  22
ATOM     22  C   UNL     1       0.829   1.327  -0.201  0.00  0.00    +0.133 C 
BRANCH  22  23
ATOM     23  C   UNL     1       0.975  -0.194  -0.113  0.00  0.00    +0.125 C 
BRANCH  23  24
ATOM     24  N   UNL     1       2.018  -0.639  -1.039  0.00  0.00    -0.188 NA
ATOM     25  H   UNL     1       2.337  -0.042  -1.734  0.00  0.00    +0.148 HD
BRANCH  24  26
ATOM     26  S   UNL     1       2.653  -2.163  -0.901  0.00  0.00    +0.058 S 
ATOM     27  O   UNL     1       3.608  -2.301  -1.944  0.00  0.00    -0.153 OA
ATOM     28  O   UNL     1       2.989  -2.340   0.468  0.00  0.00    -0.153 OA
BRANCH  26  29
ATOM     29  C   UNL     1       1.355  -3.302  -1.252  0.00  0.00    +0.105 A 
ATOM     30  C   UNL     1       0.552  -3.771  -0.229  0.00  0.00    +0.030 A 
ATOM     31  C   UNL     1      -0.469  -4.661  -0.505  0.00  0.00    +0.022 A 
ATOM     32  C   UNL     1      -0.681  -5.089  -1.803  0.00  0.00    +0.041 A 
ATOM     33  C   UNL     1       0.126  -4.623  -2.825  0.00  0.00    +0.022 A 
ATOM     34  C   UNL     1       1.144  -3.730  -2.549  0.00  0.00    +0.030 A 
ATOM     35 CL   UNL     1      -1.960  -6.211  -2.149  0.00  0.00    -0.084 Cl
ENDBRANCH  26  29
ENDBRANCH  24  26
ENDBRANCH  23  24
ENDBRANCH  22  23
ENDBRANCH  17  22
TORSDOF 5
