REMARK  Name = ZINC42906954
REMARK  7 active torsions:
REMARK  status: ('A' for Active; 'I' for Inactive)
REMARK    1  A    between atoms: C_1  and  C_2
REMARK    2  A    between atoms: C_2  and  C_3
REMARK    3  A    between atoms: C_2  and  C_4
REMARK    4  A    between atoms: C_4  and  C_5
REMARK    5  A    between atoms: C_5  and  N_6
REMARK    6  A    between atoms: N_9  and  N_10
REMARK    7  A    between atoms: C_11  and  C_13
REMARK                            x       y       z     vdW  Elec       q    Type
REMARK                         _______ _______ _______ _____ _____    ______ ____
ROOT
ATOM      1  N   UNL     1      -3.510  -0.638  -1.275  0.00  0.00    -0.298 N 
ATOM      2  C   UNL     1      -4.323  -0.403  -2.324  0.00  0.00    +0.316 C 
ATOM      3  O   UNL     1      -3.915   0.230  -3.279  0.00  0.00    -0.251 OA
ATOM      4  N   UNL     1      -5.587  -0.870  -2.315  0.00  0.00    -0.218 N 
ATOM      5  H   UNL     1      -3.834  -1.143  -0.513  0.00  0.00    +0.150 HD
ATOM      6  H   UNL     1      -6.172  -0.700  -3.070  0.00  0.00    +0.174 HD
ENDROOT
BRANCH   4   7
ATOM      7  N   UNL     1      -6.056  -1.599  -1.214  0.00  0.00    -0.233 N 
ATOM      8  C   UNL     1      -7.321  -2.066  -1.205  0.00  0.00    +0.232 C 
ATOM      9  O   UNL     1      -8.052  -1.854  -2.149  0.00  0.00    -0.274 OA
ATOM     10  H   UNL     1      -5.471  -1.768  -0.460  0.00  0.00    +0.173 HD
BRANCH   8  11
ATOM     11  C   UNL     1      -7.825  -2.850  -0.021  0.00  0.00    +0.076 C 
ATOM     12  C   UNL     1      -7.014  -4.153   0.134  0.00  0.00    +0.013 C 
ATOM     13  C   UNL     1      -8.060  -5.199   0.592  0.00  0.00    +0.001 C 
ATOM     14  C   UNL     1      -9.315  -4.810  -0.228  0.00  0.00    +0.001 C 
ATOM     15  C   UNL     1      -9.289  -3.268  -0.251  0.00  0.00    +0.013 C 
ENDBRANCH   8  11
ENDBRANCH   4   7
BRANCH   1  16
ATOM     16  C   UNL     1      -2.135  -0.131  -1.286  0.00  0.00    +0.106 C 
BRANCH  16  17
ATOM     17  C   UNL     1      -1.433  -0.534   0.013  0.00  0.00    +0.022 C 
BRANCH  17  19
ATOM     18  C   UNL     1      -0.019   1.526   0.010  0.00  0.00    +0.007 C 
ATOM     19  C   UNL     1       0.002  -0.004   0.002  0.00  0.00    -0.016 C 
ATOM     20  C   UNL     1       0.742  -0.511   1.242  0.00  0.00    +0.007 C 
ENDBRANCH  17  19
ENDBRANCH  16  17
ENDBRANCH   1  16
TORSDOF 5
