REMARK  Name = ZINC41916931
REMARK  7 active torsions:
REMARK  status: ('A' for Active; 'I' for Inactive)
REMARK    1  A    between atoms: C_1  and  C_2
REMARK    2  A    between atoms: C_4  and  C_23
REMARK    3  A    between atoms: C_6  and  N_8
REMARK    4  A    between atoms: C_9  and  C_11
REMARK    5  A    between atoms: N_13  and  C_14
REMARK    6  A    between atoms: C_14  and  C_16
REMARK    7  A    between atoms: C_14  and  C_17
REMARK                            x       y       z     vdW  Elec       q    Type
REMARK                         _______ _______ _______ _____ _____    ______ ____
ROOT
ATOM      1  N   UNL     1       0.051  -2.797   2.391  0.00  0.00    -0.278 N 
ATOM      2  C   UNL     1       0.149  -2.134   3.560  0.00  0.00    +0.303 C 
ATOM      3  O   UNL     1       0.134  -0.921   3.573  0.00  0.00    -0.265 OA
ATOM      4  H   UNL     1      -0.013  -3.765   2.386  0.00  0.00    +0.155 HD
ENDROOT
BRANCH   1  10
ATOM      5  C   UNL     1      -1.513  -2.363  -2.249  0.00  0.00    +0.044 C 
ATOM      6  C   UNL     1      -0.707  -1.857  -1.080  0.00  0.00    -0.048 A 
ATOM      7  C   UNL     1       0.026  -0.690  -1.201  0.00  0.00    +0.006 A 
ATOM      8  C   UNL     1       0.766  -0.221  -0.132  0.00  0.00    -0.048 A 
ATOM      9  C   UNL     1       0.777  -0.917   1.061  0.00  0.00    +0.026 A 
ATOM     10  C   UNL     1       0.042  -2.090   1.186  0.00  0.00    +0.034 A 
ATOM     11  C   UNL     1      -0.705  -2.555   0.111  0.00  0.00    +0.026 A 
ATOM     12  C   UNL     1       1.563   1.051  -0.268  0.00  0.00    +0.044 C 
ENDBRANCH   1  10
BRANCH   2  13
ATOM     13  C   UNL     1       0.278  -2.893   4.840  0.00  0.00    +0.300 C 
ATOM     14  O   UNL     1       0.293  -4.107   4.827  0.00  0.00    -0.265 OA
ATOM     15  N   UNL     1       0.376  -2.231   6.010  0.00  0.00    -0.303 N 
ATOM     16  H   UNL     1       0.363  -1.261   6.020  0.00  0.00    +0.150 HD
BRANCH  15  17
ATOM     17  C   UNL     1       0.502  -2.975   7.265  0.00  0.00    +0.099 C 
ATOM     18  C   UNL     1      -0.890  -3.363   7.770  0.00  0.00    +0.030 C 
BRANCH  17  19
ATOM     19  C   UNL     1       1.198  -2.100   8.309  0.00  0.00    +0.138 C 
ATOM     20  C   UNL     1       2.541  -1.564   7.753  0.00  0.00    +0.035 C 
ATOM     21  C   UNL     1       2.725  -0.282   8.611  0.00  0.00    +0.031 C 
ATOM     22  C   UNL     1       1.270   0.197   8.800  0.00  0.00    +0.160 C 
ATOM     23  O   UNL     1       0.410  -0.931   8.585  0.00  0.00    -0.375 OA
ENDBRANCH  17  19
ENDBRANCH  15  17
ENDBRANCH   2  13
TORSDOF 4
