REMARK  Name = ZINC55999078
REMARK  5 active torsions:
REMARK  status: ('A' for Active; 'I' for Inactive)
REMARK    1  A    between atoms: C_4  and  C_7
REMARK    2  A    between atoms: C_10  and  S_13
REMARK    3  A    between atoms: S_13  and  N_16
REMARK    4  A    between atoms: C_23  and  S_25
REMARK    5  A    between atoms: S_25  and  N_28
REMARK                            x       y       z     vdW  Elec       q    Type
REMARK                         _______ _______ _______ _____ _____    ______ ____
ROOT
ATOM      1  S   UNL     1       7.657  -2.892  -0.088  0.00  0.00    +0.075 S 
ATOM      2  O   UNL     1       7.402  -4.172  -0.649  0.00  0.00    -0.150 OA
ATOM      3  O   UNL     1       8.613  -1.996  -0.637  0.00  0.00    -0.150 OA
ENDROOT
BRANCH   1   4
ATOM      4  N   UNL     1       8.097  -3.145   1.489  0.00  0.00    -0.202 N 
ATOM      5  C   UNL     1       8.899  -2.222   2.295  0.00  0.00    +0.136 C 
ATOM      6  C   UNL     1       9.033  -2.898   3.669  0.00  0.00    +0.058 C 
ATOM      7  C   UNL     1       8.270  -4.196   3.529  0.00  0.00    -0.021 A 
ATOM      8  C   UNL     1       7.752  -4.267   2.245  0.00  0.00    +0.055 A 
ATOM      9  C   UNL     1       6.998  -5.383   1.878  0.00  0.00    +0.027 A 
ATOM     10  C   UNL     1       6.770  -6.396   2.786  0.00  0.00    +0.030 A 
ATOM     11  C   UNL     1       7.287  -6.314   4.065  0.00  0.00    +0.105 A 
ATOM     12  C   UNL     1       8.042  -5.216   4.433  0.00  0.00    +0.034 A 
BRANCH  11  13
ATOM     13  S   UNL     1       6.992  -7.610   5.222  0.00  0.00    +0.056 S 
ATOM     14  O   UNL     1       7.124  -7.038   6.516  0.00  0.00    -0.153 OA
ATOM     15  O   UNL     1       5.807  -8.271   4.798  0.00  0.00    -0.153 OA
BRANCH  13  16
ATOM     16  N   UNL     1       8.226  -8.702   5.059  0.00  0.00    -0.204 NA
ATOM     17  H   UNL     1       8.514  -9.226   5.822  0.00  0.00    +0.144 HD
ATOM     18  H   UNL     1       8.661  -8.818   4.199  0.00  0.00    +0.144 HD
ENDBRANCH  13  16
ENDBRANCH  11  13
ENDBRANCH   1   4
BRANCH   1  22
ATOM     19  C   UNL     1       3.699  -0.689  -0.037  0.00  0.00    -0.018 A 
ATOM     20  C   UNL     1       4.896   0.024  -0.040  0.00  0.00    +0.010 A 
ATOM     21  C   UNL     1       6.099  -0.652  -0.055  0.00  0.00    +0.029 A 
ATOM     22  C   UNL     1       6.118  -2.035  -0.068  0.00  0.00    +0.109 A 
ATOM     23  C   UNL     1       4.932  -2.748  -0.066  0.00  0.00    +0.029 A 
ATOM     24  C   UNL     1       3.724  -2.082  -0.045  0.00  0.00    +0.010 A 
BRANCH  19  28
ATOM     25  C   UNL     1      -0.017   1.379   0.010  0.00  0.00    +0.000 A 
ATOM     26  C   UNL     1       1.169   2.092   0.002  0.00  0.00    +0.001 A 
ATOM     27  C   UNL     1       2.377   1.426  -0.013  0.00  0.00    +0.008 A 
ATOM     28  C   UNL     1       2.402   0.033  -0.021  0.00  0.00    -0.018 A 
ATOM     29  C   UNL     1       1.205  -0.680  -0.013  0.00  0.00    +0.008 A 
ATOM     30  C   UNL     1       0.002  -0.004   0.002  0.00  0.00    +0.001 A 
ENDBRANCH  19  28
ENDBRANCH   1  22
TORSDOF 5
