REMARK  Name = ZINC39972358
REMARK  15 active torsions:
REMARK  status: ('A' for Active; 'I' for Inactive)
REMARK    1  A    between atoms: C_1  and  C_2
REMARK    2  A    between atoms: C_2  and  N_3
REMARK    3  A    between atoms: C_4  and  C_23
REMARK    4  A    between atoms: C_7  and  S_8
REMARK    5  A    between atoms: S_8  and  C_9
REMARK    6  A    between atoms: C_9  and  C_10
REMARK    7  A    between atoms: N_12  and  C_13
REMARK    8  A    between atoms: C_14  and  C_20
REMARK    9  A    between atoms: C_15  and  C_19
REMARK   10  A    between atoms: C_16  and  C_18
REMARK   11  A    between atoms: C_23  and  C_25
REMARK   12  A    between atoms: C_23  and  O_26
REMARK   13  A    between atoms: O_26  and  C_27
REMARK   14  A    between atoms: C_30  and  O_33
REMARK   15  A    between atoms: O_33  and  C_34
REMARK                            x       y       z     vdW  Elec       q    Type
REMARK                         _______ _______ _______ _____ _____    ______ ____
ROOT
ATOM      1  N   UNL     1       0.926  -0.122  -1.355  0.00  0.00    -0.303 N 
ATOM      2  C   UNL     1       0.246  -0.553  -2.461  0.00  0.00    +0.175 A 
ATOM      3  N   UNL     1       1.116  -1.104  -3.260  0.00  0.00    -0.130 NA
ATOM      4  N   UNL     1       2.290  -1.050  -2.739  0.00  0.00    -0.122 NA
ATOM      5  C   UNL     1       2.232  -0.453  -1.571  0.00  0.00    +0.192 A 
ENDROOT
BRANCH   1   7
ATOM      6  C   UNL     1       0.391   2.072  -0.415  0.00  0.00    +0.027 C 
ATOM      7  C   UNL     1       0.368   0.560  -0.184  0.00  0.00    +0.122 C 
ENDBRANCH   1   7
BRANCH   2   8
ATOM      8  C   UNL     1      -1.234  -0.418  -2.709  0.00  0.00    +0.238 C 
ATOM      9  C   UNL     1      -1.911  -1.775  -2.509  0.00  0.00    +0.060 C 
BRANCH   8  10
ATOM     10  O   UNL     1      -1.453   0.032  -4.048  0.00  0.00    -0.481 OA
BRANCH  10  11
ATOM     11  C   UNL     1      -2.616   0.692  -4.295  0.00  0.00    +0.122 A 
ATOM     12  C   UNL     1      -2.845   1.249  -5.544  0.00  0.00    +0.049 A 
ATOM     13  C   UNL     1      -4.026   1.920  -5.795  0.00  0.00    +0.049 A 
ATOM     14  C   UNL     1      -4.984   2.035  -4.798  0.00  0.00    +0.120 A 
ATOM     15  C   UNL     1      -4.755   1.476  -3.549  0.00  0.00    +0.049 A 
ATOM     16  C   UNL     1      -3.575   0.802  -3.300  0.00  0.00    +0.049 A 
BRANCH  14  17
ATOM     17  O   UNL     1      -6.146   2.696  -5.045  0.00  0.00    -0.495 OA
ATOM     18  C   UNL     1      -7.087   2.776  -3.972  0.00  0.00    +0.277 C 
ENDBRANCH  14  17
ENDBRANCH  10  11
ENDBRANCH   8  10
ENDBRANCH   2   8
BRANCH   5  19
ATOM     19  S   UNL     1       3.586  -0.140  -0.486  0.00  0.00    -0.077 S 
BRANCH  19  20
ATOM     20  C   UNL     1       5.018  -0.824  -1.364  0.00  0.00    +0.173 C 
BRANCH  20  21
ATOM     21  C   UNL     1       6.260  -0.620  -0.534  0.00  0.00    +0.228 C 
ATOM     22  O   UNL     1       6.185  -0.068   0.543  0.00  0.00    -0.275 OA
ATOM     23  N   UNL     1       7.453  -1.051  -0.989  0.00  0.00    -0.279 N 
ATOM     24  H   UNL     1       7.512  -1.493  -1.851  0.00  0.00    +0.155 HD
BRANCH  23  25
ATOM     25  C   UNL     1       8.595  -0.864  -0.226  0.00  0.00    +0.084 A 
ATOM     26  C   UNL     1       9.896  -1.233  -0.533  0.00  0.00    +0.068 A 
ATOM     27  C   UNL     1      10.907  -0.915   0.449  0.00  0.00    -0.027 A 
ATOM     28  C   UNL     1      10.471  -0.292   1.560  0.00  0.00    -0.008 A 
ATOM     29  S   UNL     1       8.722  -0.131   1.278  0.00  0.00    -0.078 S 
ATOM     30  C   UNL     1      11.272   0.164   2.751  0.00  0.00    +0.052 C 
ATOM     31  C   UNL     1      12.360  -1.260   0.243  0.00  0.00    +0.045 C 
BRANCH  26  32
ATOM     32  C   UNL     1      10.229  -1.911  -1.790  0.00  0.00    +0.244 C 
ATOM     33  O   UNL     1      10.523  -1.259  -2.774  0.00  0.00    -0.270 OA
ATOM     34  N   UNL     1      10.209  -3.257  -1.855  0.00  0.00    -0.325 N 
ATOM     35  H   UNL     1       9.974  -3.777  -1.070  0.00  0.00    +0.145 HD
ATOM     36  H   UNL     1      10.428  -3.706  -2.686  0.00  0.00    +0.145 HD
ENDBRANCH  26  32
ENDBRANCH  23  25
ENDBRANCH  20  21
ENDBRANCH  19  20
ENDBRANCH   5  19
TORSDOF 10
