REMARK  Name = ZINC17818016
REMARK  7 active torsions:
REMARK  status: ('A' for Active; 'I' for Inactive)
REMARK    1  A    between atoms: C_1  and  C_2
REMARK    2  A    between atoms: C_3  and  C_13
REMARK    3  A    between atoms: C_5  and  C_7
REMARK    4  A    between atoms: N_15  and  N_16
REMARK    5  A    between atoms: C_17  and  C_19
REMARK    6  A    between atoms: C_19  and  C_20
REMARK    7  A    between atoms: C_20  and  C_21
REMARK                            x       y       z     vdW  Elec       q    Type
REMARK                         _______ _______ _______ _____ _____    ______ ____
ROOT
ATOM      1  N   UNL     1      -2.552  10.530  -5.410  0.00  0.00    -0.234 N 
ATOM      2  C   UNL     1      -2.439   9.223  -5.721  0.00  0.00    +0.229 C 
ATOM      3  O   UNL     1      -2.581   8.858  -6.869  0.00  0.00    -0.274 OA
ATOM      4  H   UNL     1      -2.438  10.822  -4.492  0.00  0.00    +0.173 HD
ENDROOT
BRANCH   1   7
ATOM      5  C   UNL     1      -2.946  12.773  -6.103  0.00  0.00    +0.269 C 
ATOM      6  O   UNL     1      -2.803  13.139  -4.951  0.00  0.00    -0.268 OA
ATOM      7  N   UNL     1      -2.833  11.466  -6.413  0.00  0.00    -0.230 N 
ATOM      8  H   UNL     1      -2.947  11.175  -7.331  0.00  0.00    +0.173 HD
BRANCH   5  11
ATOM      9  C   UNL     1      -3.272  15.843  -5.740  0.00  0.00    +0.067 C 
ATOM     10  C   UNL     1      -3.398  15.130  -7.062  0.00  0.00    +0.058 A 
ATOM     11  C   UNL     1      -3.241  13.753  -7.152  0.00  0.00    +0.098 A 
ATOM     12  S   UNL     1      -3.489  13.509  -8.905  0.00  0.00    -0.062 S 
ATOM     13  C   UNL     1      -3.773  15.169  -9.327  0.00  0.00    +0.109 A 
ATOM     14  N   UNL     1      -3.660  15.787  -8.159  0.00  0.00    -0.243 NA
BRANCH  13  15
ATOM     15  C   UNL     1      -4.062  15.750 -10.655  0.00  0.00    +0.007 A 
ATOM     16  C   UNL     1      -4.263  17.125 -10.791  0.00  0.00    +0.010 A 
ATOM     17  C   UNL     1      -4.528  17.660 -12.035  0.00  0.00    +0.001 A 
ATOM     18  C   UNL     1      -4.606  16.837 -13.144  0.00  0.00    +0.000 A 
ATOM     19  C   UNL     1      -4.413  15.473 -13.015  0.00  0.00    +0.001 A 
ATOM     20  C   UNL     1      -4.143  14.925 -11.778  0.00  0.00    +0.010 A 
ENDBRANCH  13  15
ENDBRANCH   5  11
ENDBRANCH   1   7
BRANCH   2  21
ATOM     21  C   UNL     1      -2.136   8.216  -4.642  0.00  0.00    +0.105 C 
BRANCH  21  22
ATOM     22  C   UNL     1      -2.062   6.816  -5.257  0.00  0.00    +0.083 C 
BRANCH  22  23
ATOM     23  C   UNL     1      -1.759   5.809  -4.178  0.00  0.00    +0.111 A 
ATOM     24  N   UNL     1      -1.651   4.504  -4.524  0.00  0.00    -0.310 N 
ATOM     25  H   UNL     1      -1.773   4.261  -5.456  0.00  0.00    +0.170 HD
ATOM     26  C   UNL     1      -1.382   3.522  -3.632  0.00  0.00    +0.260 A 
ATOM     27  O   UNL     1      -1.288   2.352  -3.962  0.00  0.00    -0.267 OA
ATOM     28  C   UNL     1      -1.213   3.947  -2.271  0.00  0.00    +0.075 A 
ATOM     29  C   UNL     1      -0.921   3.104  -1.126  0.00  0.00    -0.023 A 
ATOM     30  C   UNL     1      -0.803   3.725   0.071  0.00  0.00    -0.004 A 
ATOM     31  S   UNL     1      -1.074   5.446  -0.270  0.00  0.00    -0.073 S 
ATOM     32  C   UNL     1      -1.343   5.329  -2.010  0.00  0.00    +0.116 A 
ATOM     33  N   UNL     1      -1.610   6.237  -2.944  0.00  0.00    -0.227 NA
ATOM     34  C   UNL     1      -0.510   3.093   1.397  0.00  0.00    +0.043 C 
ATOM     35  C   UNL     1      -0.726   1.578   1.270  0.00  0.00    +0.005 C 
ATOM     36  C   UNL     1      -0.013   1.086   0.008  0.00  0.00    +0.005 C 
ATOM     37  C   UNL     1      -0.749   1.591  -1.233  0.00  0.00    +0.037 C 
ENDBRANCH  22  23
ENDBRANCH  21  22
ENDBRANCH   2  21
TORSDOF 6
