REMARK  Name = ZINC41630041
REMARK  7 active torsions:
REMARK  status: ('A' for Active; 'I' for Inactive)
REMARK    1  A    between atoms: C_1  and  C_2
REMARK    2  A    between atoms: C_2  and  C_3
REMARK    3  A    between atoms: C_3  and  C_5
REMARK    4  A    between atoms: C_3  and  S_16
REMARK    5  A    between atoms: N_7  and  C_8
REMARK    6  A    between atoms: S_16  and  C_17
REMARK    7  A    between atoms: C_23  and  N_25
REMARK                            x       y       z     vdW  Elec       q    Type
REMARK                         _______ _______ _______ _____ _____    ______ ____
ROOT
ATOM      1  C   UNL     1       1.047  -0.588   1.654  0.00  0.00    +0.140 C 
ENDROOT
BRANCH   1   2
ATOM      2  C   UNL     1       1.082  -2.075   1.412  0.00  0.00    +0.231 C 
ATOM      3  O   UNL     1       2.142  -2.634   1.224  0.00  0.00    -0.274 OA
ATOM      4  N   UNL     1      -0.065  -2.784   1.404  0.00  0.00    -0.280 N 
ATOM      5  H   UNL     1      -0.908  -2.345   1.599  0.00  0.00    +0.155 HD
BRANCH   4   6
ATOM      6  C   UNL     1      -0.039  -4.155   1.113  0.00  0.00    +0.105 A 
ATOM      7  C   UNL     1      -0.939  -5.015   1.732  0.00  0.00    +0.147 A 
ATOM      8  C   UNL     1      -0.911  -6.367   1.442  0.00  0.00    +0.040 A 
ATOM      9  C   UNL     1       0.011  -6.864   0.539  0.00  0.00    +0.006 A 
ATOM     10  C   UNL     1       0.908  -6.011  -0.077  0.00  0.00    +0.040 A 
ATOM     11  C   UNL     1       0.882  -4.657   0.202  0.00  0.00    +0.147 A 
ATOM     12  F   UNL     1       1.756  -3.824  -0.405  0.00  0.00    -0.203 F 
ATOM     13  F   UNL     1      -1.840  -4.530   2.614  0.00  0.00    -0.203 F 
ENDBRANCH   4   6
ENDBRANCH   1   2
BRANCH   1  15
ATOM     14  C   UNL     1       0.505   1.628   0.635  0.00  0.00    +0.005 C 
ATOM     15  C   UNL     1       0.656   0.131   0.361  0.00  0.00    +0.020 C 
ENDBRANCH   1  15
BRANCH   1  16
ATOM     16  S   UNL     1       2.686  -0.024   2.189  0.00  0.00    -0.075 S 
BRANCH  16  17
ATOM     17  C   UNL     1       2.882  -0.737   3.788  0.00  0.00    +0.171 A 
ATOM     18  N   UNL     1       3.988  -0.434   4.523  0.00  0.00    -0.302 N 
ATOM     19  H   UNL     1       4.657   0.170   4.164  0.00  0.00    +0.171 HD
ATOM     20  C   UNL     1       4.154  -0.971   5.750  0.00  0.00    +0.254 A 
ATOM     21  O   UNL     1       5.142  -0.704   6.415  0.00  0.00    -0.268 OA
ATOM     22  C   UNL     1       3.176  -1.838   6.245  0.00  0.00    +0.113 A 
ATOM     23  C   UNL     1       2.068  -2.115   5.457  0.00  0.00    +0.124 A 
ATOM     24  N   UNL     1       1.953  -1.549   4.250  0.00  0.00    -0.209 NA
BRANCH  23  25
ATOM     25  N   UNL     1       1.085  -2.968   5.918  0.00  0.00    -0.343 N 
ATOM     26  H   UNL     1       1.168  -3.374   6.795  0.00  0.00    +0.144 HD
ATOM     27  H   UNL     1       0.311  -3.160   5.365  0.00  0.00    +0.144 HD
ENDBRANCH  23  25
ENDBRANCH  16  17
ENDBRANCH   1  16
TORSDOF 6
