REMARK  Name = ZINC39012663
REMARK  13 active torsions:
REMARK  status: ('A' for Active; 'I' for Inactive)
REMARK    1  A    between atoms: C_1  and  C_2
REMARK    2  A    between atoms: C_2  and  O_3
REMARK    3  A    between atoms: O_3  and  C_4
REMARK    4  A    between atoms: C_6  and  C_22
REMARK    5  A    between atoms: C_9  and  O_10
REMARK    6  A    between atoms: O_10  and  C_11
REMARK    7  A    between atoms: C_11  and  C_13
REMARK    8  A    between atoms: C_17  and  N_19
REMARK    9  A    between atoms: C_22  and  C_24
REMARK   10  A    between atoms: C_22  and  C_31
REMARK   11  A    between atoms: C_25  and  C_30
REMARK   12  A    between atoms: C_32  and  C_38
REMARK   13  A    between atoms: C_35  and  O_37
REMARK                            x       y       z     vdW  Elec       q    Type
REMARK                         _______ _______ _______ _____ _____    ______ ____
ROOT
ATOM      1  C   UNL     1      -2.209  -2.426   0.354  0.00  0.00    +0.163 A 
ATOM      2  C   UNL     1      -0.912  -2.869   0.152  0.00  0.00    +0.054 A 
ATOM      3  C   UNL     1      -0.634  -4.222   0.159  0.00  0.00    -0.032 A 
ATOM      4  C   UNL     1      -1.648  -5.139   0.369  0.00  0.00    +0.008 A 
ATOM      5  C   UNL     1      -2.945  -4.705   0.571  0.00  0.00    +0.050 A 
ATOM      6  C   UNL     1      -3.229  -3.348   0.570  0.00  0.00    +0.173 A 
ENDROOT
BRANCH   1   7
ATOM      7  O   UNL     1      -2.485  -1.095   0.348  0.00  0.00    -0.489 OA
BRANCH   7   9
ATOM      8  C   UNL     1      -1.889   1.239   0.148  0.00  0.00    +0.048 C 
ATOM      9  C   UNL     1      -1.388  -0.207   0.120  0.00  0.00    +0.226 C 
ENDBRANCH   7   9
ENDBRANCH   1   7
BRANCH   6  10
ATOM     10  O   UNL     1      -4.503  -2.920   0.775  0.00  0.00    -0.419 OA
BRANCH  10  11
ATOM     11  C   UNL     1      -5.261  -2.649  -0.305  0.00  0.00    +0.345 C 
ATOM     12  O   UNL     1      -4.834  -2.878  -1.419  0.00  0.00    -0.245 OA
BRANCH  11  13
ATOM     13  C   UNL     1      -6.611  -2.074  -0.136  0.00  0.00    +0.062 A 
ATOM     14  C   UNL     1      -7.103  -1.804   1.143  0.00  0.00    +0.015 A 
ATOM     15  C   UNL     1      -8.364  -1.267   1.294  0.00  0.00    +0.003 A 
ATOM     16  C   UNL     1      -9.142  -0.996   0.182  0.00  0.00    +0.033 A 
ATOM     17  C   UNL     1      -8.661  -1.261  -1.087  0.00  0.00    +0.127 A 
ATOM     18  C   UNL     1      -7.399  -1.792  -1.253  0.00  0.00    +0.047 A 
BRANCH  17  19
ATOM     19  N   UNL     1      -9.501  -0.968  -2.271  0.00  0.00    +0.056 N 
ATOM     20  O   UNL     1     -10.605  -0.497  -2.127  0.00  0.00    -0.126 OA
ATOM     21  O   UNL     1      -9.082  -1.199  -3.381  0.00  0.00    -0.126 OA
ENDBRANCH  17  19
ENDBRANCH  11  13
ENDBRANCH  10  11
ENDBRANCH   6  10
BRANCH   3  22
ATOM     22  C   UNL     1       0.778  -4.701  -0.062  0.00  0.00    +0.088 C 
BRANCH  22  23
ATOM     23  C   UNL     1       0.803  -5.682  -1.205  0.00  0.00    +0.052 A 
ATOM     24  C   UNL     1       0.029  -5.611  -2.368  0.00  0.00    +0.068 A 
ATOM     25  N   UNL     1       0.328  -6.637  -3.123  0.00  0.00    -0.176 NA
ATOM     26  N   UNL     1       1.304  -7.397  -2.467  0.00  0.00    -0.243 N 
ATOM     27  C   UNL     1       1.585  -6.790  -1.293  0.00  0.00    +0.271 A 
ATOM     28  O   UNL     1       2.484  -7.212  -0.367  0.00  0.00    -0.266 OA
ATOM     29  C   UNL     1      -0.978  -4.538  -2.694  0.00  0.00    +0.068 C 
ATOM     30  H   UNL     1       1.710  -8.214  -2.799  0.00  0.00    +0.192 HD
ENDBRANCH  22  23
BRANCH  22  31
ATOM     31  C   UNL     1       1.282  -5.375   1.189  0.00  0.00    +0.017 C 
ATOM     32  C   UNL     1       2.423  -5.147   1.843  0.00  0.00    +0.065 C 
ATOM     33  N   UNL     1       2.524  -5.951   2.925  0.00  0.00    -0.156 NA
ATOM     34  N   UNL     1       1.568  -6.713   3.088  0.00  0.00    -0.151 NA
ATOM     35  C   UNL     1       0.606  -6.465   2.001  0.00  0.00    +0.284 C 
ATOM     36  C   UNL     1       3.458  -4.132   1.431  0.00  0.00    +0.067 C 
BRANCH  35  37
ATOM     37  O   UNL     1       0.423  -7.643   1.213  0.00  0.00    -0.366 OA
ATOM     38  H   UNL     1      -0.005  -8.370   1.685  0.00  0.00    +0.212 HD
ENDBRANCH  35  37
ENDBRANCH  22  31
ENDBRANCH   3  22
TORSDOF 10
