REMARK  Name = ZINC18953409
REMARK  19 active torsions:
REMARK  status: ('A' for Active; 'I' for Inactive)
REMARK    1  A    between atoms: C_1  and  C_2
REMARK    2  A    between atoms: C_2  and  C_3
REMARK    3  A    between atoms: C_3  and  C_4
REMARK    4  A    between atoms: C_4  and  N_5
REMARK    5  A    between atoms: C_6  and  N_36
REMARK    6  A    between atoms: C_7  and  N_14
REMARK    7  A    between atoms: N_14  and  C_15
REMARK    8  A    between atoms: C_15  and  C_16
REMARK    9  A    between atoms: C_16  and  O_17
REMARK   10  A    between atoms: O_17  and  C_18
REMARK   11  A    between atoms: C_19  and  C_21
REMARK   12  A    between atoms: C_21  and  O_22
REMARK   13  A    between atoms: O_22  and  C_23
REMARK   14  A    between atoms: C_23  and  C_25
REMARK   15  A    between atoms: C_26  and  C_35
REMARK   16  A    between atoms: C_27  and  C_34
REMARK   17  A    between atoms: C_28  and  C_33
REMARK   18  A    between atoms: C_29  and  C_32
REMARK   19  A    between atoms: C_30  and  C_31
REMARK                            x       y       z     vdW  Elec       q    Type
REMARK                         _______ _______ _______ _____ _____    ______ ____
ROOT
ATOM      1  N   UNL     1       1.082   1.815  -0.034  0.00  0.00    -0.259 N 
ATOM      2  C   UNL     1      -0.023   1.054  -0.176  0.00  0.00    +0.258 C 
ATOM      3  O   UNL     1       0.083  -0.135  -0.392  0.00  0.00    -0.272 OA
ENDROOT
BRANCH   1   6
ATOM      4  N   UNL     1       3.962  -0.263   0.908  0.00  0.00    -0.280 N 
ATOM      5  C   UNL     1       2.710   0.307   0.940  0.00  0.00    +0.127 A 
ATOM      6  C   UNL     1       2.358   1.213  -0.039  0.00  0.00    +0.140 A 
ATOM      7  C   UNL     1       3.291   1.522  -1.046  0.00  0.00    +0.277 A 
ATOM      8  O   UNL     1       3.004   2.316  -1.926  0.00  0.00    -0.266 OA
ATOM      9  N   UNL     1       4.506   0.940  -1.028  0.00  0.00    -0.273 N 
ATOM     10  H   UNL     1       5.173   1.166  -1.738  0.00  0.00    +0.173 HD
ATOM     11  C   UNL     1       4.832   0.059  -0.065  0.00  0.00    +0.331 A 
ATOM     12  O   UNL     1       5.934  -0.455  -0.075  0.00  0.00    -0.246 OA
BRANCH   5  13
ATOM     13  N   UNL     1       1.822  -0.022   1.935  0.00  0.00    -0.343 N 
ATOM     14  H   UNL     1       0.985   0.462   2.018  0.00  0.00    +0.144 HD
ATOM     15  H   UNL     1       2.031  -0.738   2.555  0.00  0.00    +0.144 HD
ENDBRANCH   5  13
BRANCH   4  16
ATOM     16  C   UNL     1       4.349  -1.227   1.941  0.00  0.00    +0.128 C 
BRANCH  16  17
ATOM     17  C   UNL     1       3.974  -2.639   1.488  0.00  0.00    +0.021 C 
BRANCH  17  19
ATOM     18  C   UNL     1       4.002  -5.058   2.113  0.00  0.00    +0.004 C 
ATOM     19  C   UNL     1       4.378  -3.646   2.566  0.00  0.00    -0.002 C 
ENDBRANCH  17  19
ENDBRANCH  16  17
ENDBRANCH   4  16
ENDBRANCH   1   6
BRANCH   1  20
ATOM     20  C   UNL     1       0.957   3.266   0.126  0.00  0.00    +0.142 C 
BRANCH  20  21
ATOM     21  C   UNL     1       0.829   3.606   1.612  0.00  0.00    +0.178 C 
BRANCH  21  22
ATOM     22  O   UNL     1       2.038   3.255   2.287  0.00  0.00    -0.381 OA
ATOM     23  C   UNL     1       2.023   3.533   3.688  0.00  0.00    +0.194 C 
ENDBRANCH  21  22
ENDBRANCH  20  21
ENDBRANCH   1  20
BRANCH   2  24
ATOM     24  C   UNL     1      -1.389   1.682  -0.073  0.00  0.00    +0.328 C 
BRANCH  24  25
ATOM     25  O   UNL     1      -2.406   0.664  -0.267  0.00  0.00    -0.452 OA
BRANCH  25  26
ATOM     26  C   UNL     1      -3.691   1.064  -0.205  0.00  0.00    +0.340 C 
ATOM     27  O   UNL     1      -3.955   2.231   0.005  0.00  0.00    -0.245 OA
BRANCH  26  28
ATOM     28  C   UNL     1      -4.780   0.083  -0.393  0.00  0.00    +0.065 A 
ATOM     29  C   UNL     1      -5.303  -0.603   0.705  0.00  0.00    -0.033 A 
ATOM     30  C   UNL     1      -6.322  -1.515   0.523  0.00  0.00    -0.044 A 
ATOM     31  C   UNL     1      -6.819  -1.757  -0.745  0.00  0.00    -0.044 A 
ATOM     32  C   UNL     1      -6.303  -1.084  -1.838  0.00  0.00    -0.044 A 
ATOM     33  C   UNL     1      -5.287  -0.166  -1.670  0.00  0.00    -0.033 A 
ATOM     34  C   UNL     1      -4.725   0.566  -2.861  0.00  0.00    +0.045 C 
ATOM     35  C   UNL     1      -6.851  -1.354  -3.215  0.00  0.00    +0.044 C 
ATOM     36  C   UNL     1      -7.929  -2.758  -0.937  0.00  0.00    +0.044 C 
ATOM     37  C   UNL     1      -6.891  -2.252   1.708  0.00  0.00    +0.044 C 
ATOM     38  C   UNL     1      -4.758  -0.345   2.086  0.00  0.00    +0.045 C 
ENDBRANCH  26  28
ENDBRANCH  25  26
ENDBRANCH  24  25
ENDBRANCH   2  24
TORSDOF 12
