REMARK  Name = ZINC06239098
REMARK  13 active torsions:
REMARK  status: ('A' for Active; 'I' for Inactive)
REMARK    1  A    between atoms: C_1  and  O_2
REMARK    2  A    between atoms: O_2  and  C_3
REMARK    3  A    between atoms: C_3  and  C_4
REMARK    4  A    between atoms: C_4  and  N_5
REMARK    5  A    between atoms: C_6  and  C_10
REMARK    6  A    between atoms: C_10  and  C_12
REMARK    7  A    between atoms: C_10  and  N_62
REMARK    8  A    between atoms: C_16  and  O_24
REMARK    9  A    between atoms: O_24  and  C_25
REMARK   10  A    between atoms: C_26  and  C_27
REMARK   11  A    between atoms: C_26  and  N_62
REMARK   12  A    between atoms: C_32  and  C_33
REMARK   13  A    between atoms: C_32  and  N_62
REMARK                            x       y       z     vdW  Elec       q    Type
REMARK                         _______ _______ _______ _____ _____    ______ ____
ROOT
ATOM      1  C   UNL     1      -0.260   0.603   0.048  0.00  0.00    +0.040 C 
ENDROOT
BRANCH   1   2
ATOM      2  C   UNL     1      -1.715   0.415   0.392  0.00  0.00    +0.011 A 
ATOM      3  C   UNL     1      -2.513  -0.319  -0.422  0.00  0.00    +0.017 A 
ATOM      4  C   UNL     1      -3.922  -0.483  -0.060  0.00  0.00    +0.002 A 
ATOM      5  C   UNL     1      -4.791  -1.229  -0.861  0.00  0.00    +0.055 A 
ATOM      6  C   UNL     1      -6.114  -1.364  -0.490  0.00  0.00    +0.121 A 
ATOM      7  C   UNL     1      -6.582  -0.761   0.675  0.00  0.00    +0.047 A 
ATOM      8  C   UNL     1      -5.736  -0.024   1.473  0.00  0.00    +0.030 A 
ATOM      9  C   UNL     1      -4.399   0.125   1.117  0.00  0.00    +0.049 A 
ATOM     10  N   UNL     1      -3.534   0.859   1.903  0.00  0.00    -0.322 N 
ATOM     11  H   UNL     1      -3.875   1.294   2.737  0.00  0.00    +0.169 HD
ATOM     12  C   UNL     1      -2.241   0.999   1.565  0.00  0.00    +0.251 A 
ATOM     13  O   UNL     1      -1.505   1.651   2.286  0.00  0.00    -0.268 OA
BRANCH   6  14
ATOM     14  O   UNL     1      -6.964  -2.088  -1.266  0.00  0.00    -0.495 OA
ATOM     15  C   UNL     1      -8.319  -2.188  -0.824  0.00  0.00    +0.277 C 
ENDBRANCH   6  14
ENDBRANCH   1   2
BRANCH   1  17
ATOM     16  N   UNL     1       1.524  -1.043   0.830  0.00  0.00    -0.228 N 
ATOM     17  C   UNL     1       0.594  -0.101   1.071  0.00  0.00    +0.143 A 
ATOM     18  N   UNL     1       0.579   0.090   2.367  0.00  0.00    -0.115 NA
ATOM     19  N   UNL     1       1.448  -0.700   2.896  0.00  0.00    -0.023 NA
ATOM     20  N   UNL     1       2.023  -1.384   1.970  0.00  0.00    -0.044 NA
BRANCH  16  21
ATOM     21  C   UNL     1       1.898  -1.582  -0.480  0.00  0.00    +0.175 C 
BRANCH  21  22
ATOM     22  C   UNL     1       3.140  -0.852  -0.996  0.00  0.00    +0.183 C 
BRANCH  22  24
ATOM     23  C   UNL     1       4.566  -0.646  -2.911  0.00  0.00    +0.194 C 
ATOM     24  O   UNL     1       3.418  -1.272  -2.333  0.00  0.00    -0.381 OA
ENDBRANCH  22  24
ENDBRANCH  21  22
ENDBRANCH  16  21
ENDBRANCH   1  17
BRANCH   1  25
ATOM     25  N   UNL     1       0.051   2.048   0.069  0.00  0.00    +0.397 N 
ATOM     26  H   UNL     1      -0.302   2.452   0.944  0.00  0.00    -0.079 HD
BRANCH  25  27
ATOM     27  C   UNL     1       1.514   2.251   0.002  0.00  0.00    -0.001 C 
BRANCH  27  28
ATOM     28  C   UNL     1       2.088   2.077   1.385  0.00  0.00    +0.089 A 
ATOM     29  C   UNL     1       2.968   1.131   1.758  0.00  0.00    +0.042 A 
ATOM     30  C   UNL     1       3.233   1.336   3.132  0.00  0.00    +0.041 A 
ATOM     31  C   UNL     1       2.498   2.396   3.516  0.00  0.00    +0.195 A 
ATOM     32  O   UNL     1       1.811   2.844   2.452  0.00  0.00    -0.470 OA
ENDBRANCH  27  28
ENDBRANCH  25  27
BRANCH  25  33
ATOM     33  C   UNL     1      -0.604   2.723  -1.071  0.00  0.00    -0.034 C 
BRANCH  33  34
ATOM     34  C   UNL     1      -2.021   3.059  -0.680  0.00  0.00    -0.027 A 
ATOM     35  C   UNL     1      -2.483   4.124   0.020  0.00  0.00    +0.009 A 
ATOM     36  C   UNL     1      -3.840   4.229   0.263  0.00  0.00    +0.008 A 
ATOM     37  C   UNL     1      -4.668   3.263  -0.206  0.00  0.00    +0.045 A 
ATOM     38  S   UNL     1      -3.525   2.163  -1.026  0.00  0.00    -0.103 S 
ENDBRANCH  33  34
ENDBRANCH  25  33
ENDBRANCH   1  25
TORSDOF 11
