REMARK  Name = ZINC12636063
REMARK  11 active torsions:
REMARK  status: ('A' for Active; 'I' for Inactive)
REMARK    1  A    between atoms: C_1  and  C_2
REMARK    2  A    between atoms: C_6  and  N_9
REMARK    3  A    between atoms: C_7  and  C_8
REMARK    4  A    between atoms: N_9  and  C_10
REMARK    5  A    between atoms: C_10  and  C_12
REMARK    6  A    between atoms: C_10  and  C_19
REMARK    7  A    between atoms: N_21  and  C_22
REMARK    8  A    between atoms: C_27  and  C_29
REMARK    9  A    between atoms: N_34  and  C_35
REMARK   10  A    between atoms: C_35  and  C_36
REMARK   11  A    between atoms: C_35  and  C_37
REMARK                            x       y       z     vdW  Elec       q    Type
REMARK                         _______ _______ _______ _____ _____    ______ ____
ROOT
ATOM      1  N   UNL     1      -6.214   3.089   0.529  0.00  0.00    -0.251 N 
ATOM      2  C   UNL     1      -5.364   4.039   0.967  0.00  0.00    +0.253 C 
ATOM      3  O   UNL     1      -5.527   5.199   0.640  0.00  0.00    -0.270 OA
ENDROOT
BRANCH   2   4
ATOM      4  C   UNL     1      -4.237   3.672   1.844  0.00  0.00    +0.053 A 
ATOM      5  C   UNL     1      -2.983   4.282   1.685  0.00  0.00    +0.018 A 
ATOM      6  C   UNL     1      -1.966   3.914   2.524  0.00  0.00    +0.042 A 
ATOM      7  C   UNL     1      -2.200   2.945   3.498  0.00  0.00    +0.096 A 
ATOM      8  C   UNL     1      -4.401   2.712   2.844  0.00  0.00    +0.097 A 
ATOM      9  N   UNL     1      -1.173   2.567   4.345  0.00  0.00    -0.328 N 
ATOM     10  H   UNL     1      -1.329   1.895   5.028  0.00  0.00    +0.148 HD
ATOM     11  N   UNL     1      -3.406   2.329   3.683  0.00  0.00    -0.349 N 
ATOM     12  H   UNL     1      -3.550   1.620   4.412  0.00  0.00    +0.167 HD
BRANCH   9  13
ATOM     13  C   UNL     1       0.152   3.176   4.207  0.00  0.00    +0.065 C 
ATOM     14  C   UNL     1       0.194   4.489   4.991  0.00  0.00    +0.027 C 
ATOM     15  C   UNL     1       1.213   2.220   4.757  0.00  0.00    +0.027 C 
ENDBRANCH   9  13
ENDBRANCH   2   4
BRANCH   1  21
ATOM     16  C   UNL     1      -3.774  -1.178   0.479  0.00  0.00    +0.044 C 
ATOM     17  C   UNL     1      -4.910  -0.319   0.972  0.00  0.00    -0.046 A 
ATOM     18  C   UNL     1      -5.825  -0.834   1.873  0.00  0.00    +0.004 A 
ATOM     19  C   UNL     1      -6.868  -0.049   2.328  0.00  0.00    +0.002 A 
ATOM     20  C   UNL     1      -6.997   1.254   1.888  0.00  0.00    +0.024 A 
ATOM     21  C   UNL     1      -6.084   1.772   0.980  0.00  0.00    +0.041 A 
ATOM     22  C   UNL     1      -5.036   0.981   0.524  0.00  0.00    -0.026 A 
ATOM     23  C   UNL     1      -4.040   1.541  -0.457  0.00  0.00    +0.046 C 
ENDBRANCH   1  21
BRANCH   1  24
ATOM     24  C   UNL     1      -7.275   3.437  -0.420  0.00  0.00    +0.197 C 
BRANCH  24  25
ATOM     25  C   UNL     1      -8.114   2.218  -0.705  0.00  0.00    -0.018 A 
ATOM     26  C   UNL     1      -7.517   1.065  -1.180  0.00  0.00    +0.009 A 
ATOM     27  C   UNL     1      -8.285  -0.056  -1.436  0.00  0.00    +0.038 A 
ATOM     28  C   UNL     1      -9.653  -0.019  -1.228  0.00  0.00    +0.123 A 
ATOM     29  C   UNL     1     -10.250   1.138  -0.757  0.00  0.00    +0.038 A 
ATOM     30  C   UNL     1      -9.480   2.255  -0.496  0.00  0.00    +0.009 A 
ATOM     31  F   UNL     1     -10.405  -1.112  -1.484  0.00  0.00    -0.205 F 
ENDBRANCH  24  25
BRANCH  24  32
ATOM     32  C   UNL     1      -6.659   3.933  -1.703  0.00  0.00    +0.239 C 
ATOM     33  O   UNL     1      -5.465   3.822  -1.885  0.00  0.00    -0.273 OA
ATOM     34  N   UNL     1      -7.434   4.501  -2.648  0.00  0.00    -0.311 N 
ATOM     35  H   UNL     1      -8.389   4.590  -2.502  0.00  0.00    +0.149 HD
BRANCH  34  36
ATOM     36  C   UNL     1      -6.835   4.984  -3.894  0.00  0.00    +0.073 C 
ATOM     37  C   UNL     1      -6.356   6.440  -3.722  0.00  0.00    +0.022 C 
ATOM     38  C   UNL     1      -6.662   7.105  -5.087  0.00  0.00    +0.002 C 
ATOM     39  C   UNL     1      -8.014   6.462  -5.484  0.00  0.00    +0.002 C 
ATOM     40  C   UNL     1      -7.889   4.998  -5.015  0.00  0.00    +0.022 C 
ENDBRANCH  34  36
ENDBRANCH  24  32
ENDBRANCH   1  24
TORSDOF 7
