REMARK  Name = ZINC63376097
REMARK  8 active torsions:
REMARK  status: ('A' for Active; 'I' for Inactive)
REMARK    1  A    between atoms: C_1  and  O_2
REMARK    2  A    between atoms: O_2  and  C_3
REMARK    3  A    between atoms: C_5  and  N_13
REMARK    4  A    between atoms: C_7  and  O_11
REMARK    5  A    between atoms: C_8  and  O_9
REMARK    6  A    between atoms: O_9  and  C_10
REMARK    7  A    between atoms: O_11  and  C_12
REMARK    8  A    between atoms: C_16  and  C_23
REMARK                            x       y       z     vdW  Elec       q    Type
REMARK                         _______ _______ _______ _____ _____    ______ ____
ROOT
ATOM      1  N   UNL     1      -4.788   0.203   0.037  0.00  0.00    -0.228 N 
ATOM      2  C   UNL     1      -5.977  -0.426  -0.051  0.00  0.00    +0.270 A 
ATOM      3  O   UNL     1      -6.023  -1.641  -0.139  0.00  0.00    -0.267 OA
ATOM      4  C   UNL     1      -7.163   0.328  -0.041  0.00  0.00    +0.101 A 
ATOM      5  C   UNL     1      -7.084   1.686   0.059  0.00  0.00    +0.263 A 
ATOM      6  N   UNL     1      -5.853   2.286   0.147  0.00  0.00    -0.274 N 
ATOM      7  H   UNL     1      -5.792   3.251   0.218  0.00  0.00    +0.173 HD
ATOM      8  C   UNL     1      -4.731   1.543   0.140  0.00  0.00    +0.337 A 
ATOM      9  O   UNL     1      -3.649   2.092   0.224  0.00  0.00    -0.246 OA
ATOM     10  O   UNL     1      -8.208   2.434   0.071  0.00  0.00    -0.267 OA
ENDROOT
BRANCH   4  11
ATOM     11  C   UNL     1      -8.503  -0.354  -0.139  0.00  0.00    +0.121 C 
ATOM     12  C   UNL     1      -8.726  -1.232   1.094  0.00  0.00    +0.128 C 
ATOM     13  C   UNL     1     -10.012  -2.010   0.837  0.00  0.00    -0.035 C 
ATOM     14  C   UNL     1     -10.803  -1.783   1.876  0.00  0.00    -0.001 A 
ATOM     15  C   UNL     1     -12.125  -2.318   2.239  0.00  0.00    +0.010 A 
ATOM     16  C   UNL     1     -12.666  -1.847   3.394  0.00  0.00    +0.001 A 
ATOM     17  C   UNL     1     -12.032  -0.908   4.213  0.00  0.00    +0.002 A 
ATOM     18  C   UNL     1     -10.814  -0.367   3.960  0.00  0.00    +0.026 A 
ATOM     19  C   UNL     1     -10.142  -0.789   2.776  0.00  0.00    +0.043 A 
ATOM     20  N   UNL     1      -8.956  -0.451   2.308  0.00  0.00    -0.376 N 
ATOM     21  C   UNL     1     -10.235  -2.766  -0.451  0.00  0.00    +0.048 C 
ATOM     22  C   UNL     1      -9.854  -1.800  -1.588  0.00  0.00    +0.086 C 
ATOM     23  N   UNL     1      -8.536  -1.214  -1.333  0.00  0.00    -0.307 NA
ATOM     24  H   UNL     1      -8.196  -0.719  -2.144  0.00  0.00    +0.123 HD
ATOM     25  H   UNL     1      -8.344   0.199   2.689  0.00  0.00    +0.160 HD
ENDBRANCH   4  11
BRANCH   1  28
ATOM     26  C   UNL     1      -1.889  -1.743   1.213  0.00  0.00    +0.167 A 
ATOM     27  C   UNL     1      -3.061  -1.004   1.221  0.00  0.00    +0.076 A 
ATOM     28  C   UNL     1      -3.602  -0.546   0.028  0.00  0.00    +0.062 A 
ATOM     29  C   UNL     1      -2.970  -0.829  -1.175  0.00  0.00    +0.076 A 
ATOM     30  C   UNL     1      -1.798  -1.569  -1.186  0.00  0.00    +0.167 A 
ATOM     31  C   UNL     1      -1.252  -2.022   0.009  0.00  0.00    +0.204 A 
BRANCH  26  33
ATOM     32  C   UNL     1      -2.067  -1.869   3.581  0.00  0.00    +0.277 C 
ATOM     33  O   UNL     1      -1.359  -2.192   2.382  0.00  0.00    -0.491 OA
ENDBRANCH  26  33
BRANCH  31  34
ATOM     34  O   UNL     1      -0.098  -2.743   0.001  0.00  0.00    -0.488 OA
ATOM     35  C   UNL     1      -0.221  -4.163  -0.111  0.00  0.00    +0.277 C 
ENDBRANCH  31  34
BRANCH  30  36
ATOM     36  O   UNL     1      -1.179  -1.846  -2.365  0.00  0.00    -0.491 OA
ATOM     37  C   UNL     1      -1.793  -1.343  -3.553  0.00  0.00    +0.277 C 
ENDBRANCH  30  36
ENDBRANCH   1  28
TORSDOF 5
