REMARK  Name = ZINC19221074
REMARK  9 active torsions:
REMARK  status: ('A' for Active; 'I' for Inactive)
REMARK    1  A    between atoms: C_1  and  C_2
REMARK    2  A    between atoms: C_9  and  C_14
REMARK    3  A    between atoms: C_14  and  N_15
REMARK    4  A    between atoms: N_15  and  C_16
REMARK    5  A    between atoms: N_15  and  C_26
REMARK    6  A    between atoms: C_16  and  C_17
REMARK    7  A    between atoms: C_26  and  C_27
REMARK    8  A    between atoms: N_31  and  C_32
REMARK    9  A    between atoms: C_32  and  C_33
REMARK                            x       y       z     vdW  Elec       q    Type
REMARK                         _______ _______ _______ _____ _____    ______ ____
ROOT
ATOM      1  N   UNL     1      -1.379  -5.202   3.769  0.00  0.00    +0.390 N 
ATOM      2  H   UNL     1      -2.096  -4.492   3.745  0.00  0.00    -0.080 HD
ENDROOT
BRANCH   1   3
ATOM      3  C   UNL     1      -0.101  -4.623   3.335  0.00  0.00    -0.036 C 
BRANCH   3  12
ATOM      4  C   UNL     1      -1.411   1.270  -1.044  0.00  0.00    +0.044 C 
ATOM      5  C   UNL     1      -1.116  -0.197  -0.869  0.00  0.00    -0.050 A 
ATOM      6  C   UNL     1      -0.994  -1.013  -1.986  0.00  0.00    +0.005 A 
ATOM      7  C   UNL     1      -0.725  -2.357  -1.849  0.00  0.00    +0.026 A 
ATOM      8  C   UNL     1      -0.574  -2.905  -0.580  0.00  0.00    +0.049 A 
ATOM      9  C   UNL     1      -0.698  -2.075   0.550  0.00  0.00    -0.001 A 
ATOM     10  C   UNL     1      -0.966  -0.712   0.387  0.00  0.00    +0.013 A 
ATOM     11  C   UNL     1      -0.537  -2.662   1.882  0.00  0.00    +0.017 A 
ATOM     12  C   UNL     1      -0.273  -3.988   1.979  0.00  0.00    +0.001 A 
ATOM     13  C   UNL     1      -0.158  -4.776   0.814  0.00  0.00    +0.251 A 
ATOM     14  O   UNL     1       0.080  -5.967   0.923  0.00  0.00    -0.268 OA
ATOM     15  N   UNL     1      -0.304  -4.247  -0.414  0.00  0.00    -0.322 N 
ATOM     16  H   UNL     1      -0.219  -4.818  -1.193  0.00  0.00    +0.169 HD
ENDBRANCH   3  12
ENDBRANCH   1   3
BRANCH   1  17
ATOM     17  C   UNL     1      -1.750  -6.302   2.869  0.00  0.00    -0.042 C 
BRANCH  17  18
ATOM     18  C   UNL     1      -3.116  -6.817   3.242  0.00  0.00    -0.060 A 
ATOM     19  C   UNL     1      -3.236  -7.915   4.074  0.00  0.00    +0.005 A 
ATOM     20  C   UNL     1      -4.487  -8.391   4.419  0.00  0.00    +0.050 A 
ATOM     21  C   UNL     1      -5.625  -7.769   3.930  0.00  0.00    +0.166 A 
ATOM     22  C   UNL     1      -5.504  -6.664   3.092  0.00  0.00    +0.166 A 
ATOM     23  C   UNL     1      -4.247  -6.189   2.755  0.00  0.00    +0.051 A 
ATOM     24  O   UNL     1      -6.754  -6.237   2.750  0.00  0.00    -0.453 OA
ATOM     25  C   UNL     1      -7.633  -7.337   3.055  0.00  0.00    +0.466 C 
ATOM     26  O   UNL     1      -6.951  -8.035   4.114  0.00  0.00    -0.453 OA
ENDBRANCH  17  18
ENDBRANCH   1  17
BRANCH   1  27
ATOM     27  C   UNL     1      -1.244  -5.715   5.139  0.00  0.00    +0.001 C 
BRANCH  27  28
ATOM     28  C   UNL     1      -0.992  -4.567   6.083  0.00  0.00    +0.136 A 
ATOM     29  N   UNL     1       0.175  -4.139   6.501  0.00  0.00    -0.115 NA
ATOM     30  N   UNL     1      -0.027  -3.143   7.293  0.00  0.00    -0.023 NA
ATOM     31  N   UNL     1      -1.292  -2.924   7.391  0.00  0.00    -0.044 NA
ATOM     32  N   UNL     1      -1.920  -3.778   6.655  0.00  0.00    -0.224 N 
BRANCH  32  33
ATOM     33  C   UNL     1      -3.371  -3.874   6.479  0.00  0.00    +0.221 C 
BRANCH  33  34
ATOM     34  C   UNL     1      -3.961  -4.692   7.599  0.00  0.00    +0.126 A 
ATOM     35  C   UNL     1      -4.405  -4.211   8.774  0.00  0.00    +0.046 A 
ATOM     36  C   UNL     1      -4.870  -5.319   9.520  0.00  0.00    +0.041 A 
ATOM     37  C   UNL     1      -4.683  -6.410   8.756  0.00  0.00    +0.195 A 
ATOM     38  O   UNL     1      -4.137  -6.023   7.591  0.00  0.00    -0.466 OA
ENDBRANCH  33  34
ENDBRANCH  32  33
ENDBRANCH  27  28
ENDBRANCH   1  27
TORSDOF 8
