REMARK  Name = ZINC04171697
REMARK  8 active torsions:
REMARK  status: ('A' for Active; 'I' for Inactive)
REMARK    1  A    between atoms: C_1  and  C_2
REMARK    2  A    between atoms: C_3  and  C_12
REMARK    3  A    between atoms: C_12  and  C_13
REMARK    4  A    between atoms: C_13  and  N_14
REMARK    5  A    between atoms: C_15  and  C_16
REMARK    6  A    between atoms: C_20  and  C_24
REMARK    7  A    between atoms: C_27  and  O_30
REMARK    8  A    between atoms: O_30  and  C_31
REMARK                            x       y       z     vdW  Elec       q    Type
REMARK                         _______ _______ _______ _____ _____    ______ ____
ROOT
ATOM      1  C   UNL     1       1.861   2.023  -6.087  0.00  0.00    +0.077 C 
ATOM      2  C   UNL     1       1.348   1.196  -7.086  0.00  0.00    +0.169 C 
ATOM      3  O   UNL     1       0.916   0.092  -6.795  0.00  0.00    -0.292 OA
ATOM      4  C   UNL     1       1.322   1.653  -8.521  0.00  0.00    +0.088 C 
ATOM      5  C   UNL     1       1.191   3.178  -8.566  0.00  0.00    +0.034 C 
ATOM      6  C   UNL     1       2.361   3.802  -7.801  0.00  0.00    +0.088 C 
ATOM      7  C   UNL     1       2.355   3.293  -6.383  0.00  0.00    +0.169 C 
ATOM      8  O   UNL     1       2.792   3.997  -5.486  0.00  0.00    -0.292 OA
ENDROOT
BRANCH   5   9
ATOM      9  C   UNL     1       1.220   3.644  -9.999  0.00  0.00    -0.043 A 
ATOM     10  C   UNL     1       2.321   3.376 -10.790  0.00  0.00    +0.007 A 
ATOM     11  C   UNL     1       2.350   3.803 -12.104  0.00  0.00    +0.046 A 
ATOM     12  C   UNL     1       1.272   4.501 -12.629  0.00  0.00    +0.120 A 
ATOM     13  C   UNL     1       0.168   4.769 -11.832  0.00  0.00    +0.046 A 
ATOM     14  C   UNL     1       0.142   4.335 -10.521  0.00  0.00    +0.007 A 
BRANCH  12  15
ATOM     15  O   UNL     1       1.298   4.923 -13.920  0.00  0.00    -0.495 OA
ATOM     16  C   UNL     1       0.153   5.635 -14.393  0.00  0.00    +0.277 C 
ENDBRANCH  12  15
ENDBRANCH   5   9
BRANCH   1  18
ATOM     17  N   UNL     1       1.418   0.372  -4.405  0.00  0.00    -0.290 NA
ATOM     18  C   UNL     1       1.874   1.550  -4.694  0.00  0.00    +0.119 C 
BRANCH  17  19
ATOM     19  C   UNL     1       1.431  -0.100  -3.018  0.00  0.00    +0.146 C 
BRANCH  19  20
ATOM     20  C   UNL     1      -0.006  -0.284  -2.528  0.00  0.00    +0.060 C 
BRANCH  20  23
ATOM     21  C   UNL     1      -0.018   1.503   0.010  0.00  0.00    +0.063 C 
ATOM     22  C   UNL     1       0.002  -0.004   0.002  0.00  0.00    +0.017 A 
ATOM     23  C   UNL     1       0.007  -0.769  -1.101  0.00  0.00    -0.018 A 
ATOM     24  C   UNL     1       0.029  -2.164  -0.655  0.00  0.00    +0.003 A 
ATOM     25  C   UNL     1       0.043  -3.394  -1.316  0.00  0.00    +0.010 A 
ATOM     26  C   UNL     1       0.063  -4.552  -0.593  0.00  0.00    +0.001 A 
ATOM     27  C   UNL     1       0.070  -4.517   0.795  0.00  0.00    +0.002 A 
ATOM     28  C   UNL     1       0.056  -3.315   1.468  0.00  0.00    +0.026 A 
ATOM     29  C   UNL     1       0.036  -2.122   0.751  0.00  0.00    +0.047 A 
ATOM     30  N   UNL     1       0.024  -0.795   1.118  0.00  0.00    -0.358 N 
ATOM     31  H   UNL     1       0.029  -0.470   2.032  0.00  0.00    +0.166 HD
ENDBRANCH  20  23
ENDBRANCH  19  20
ENDBRANCH  17  19
ENDBRANCH   1  18
TORSDOF 6
