REMARK  Name = ZINC63513867
REMARK  8 active torsions:
REMARK  status: ('A' for Active; 'I' for Inactive)
REMARK    1  A    between atoms: C_7  and  C_10
REMARK    2  A    between atoms: C_10  and  C_11
REMARK    3  A    between atoms: C_11  and  N_12
REMARK    4  A    between atoms: N_12  and  C_13
REMARK    5  A    between atoms: C_13  and  C_14
REMARK    6  A    between atoms: C_13  and  C_18
REMARK    7  A    between atoms: C_13  and  N_22
REMARK    8  A    between atoms: C_23  and  C_25
REMARK                            x       y       z     vdW  Elec       q    Type
REMARK                         _______ _______ _______ _____ _____    ______ ____
ROOT
ATOM      1  C   UNL     1      -0.764  -5.159  -2.840  0.00  0.00    +0.279 C 
ENDROOT
BRANCH   1   2
ATOM      2  C   UNL     1      -1.216  -3.998  -3.727  0.00  0.00    +0.433 C 
ATOM      3  F   UNL     1      -0.192  -3.048  -3.809  0.00  0.00    -0.167 F 
ATOM      4  F   UNL     1      -1.511  -4.477  -5.008  0.00  0.00    -0.167 F 
ATOM      5  F   UNL     1      -2.358  -3.406  -3.176  0.00  0.00    -0.167 F 
ENDBRANCH   1   2
BRANCH   1   6
ATOM      6  C   UNL     1       0.571  -5.703  -3.351  0.00  0.00    +0.433 C 
ATOM      7  F   UNL     1       1.057  -6.663  -2.457  0.00  0.00    -0.167 F 
ATOM      8  F   UNL     1       0.386  -6.288  -4.608  0.00  0.00    -0.167 F 
ATOM      9  F   UNL     1       1.492  -4.654  -3.456  0.00  0.00    -0.167 F 
ENDBRANCH   1   6
BRANCH   1  10
ATOM     10  N   UNL     1      -1.771  -6.223  -2.877  0.00  0.00    -0.279 N 
ATOM     11  C   UNL     1      -2.920  -6.088  -2.187  0.00  0.00    +0.246 C 
ATOM     12  O   UNL     1      -3.158  -5.051  -1.600  0.00  0.00    -0.270 OA
ATOM     13  H   UNL     1      -1.610  -7.025  -3.400  0.00  0.00    +0.151 HD
BRANCH  11  14
ATOM     14  C   UNL     1      -3.892  -7.202  -2.144  0.00  0.00    +0.038 A 
ATOM     15  C   UNL     1      -3.619  -8.396  -2.812  0.00  0.00    +0.013 A 
ATOM     16  C   UNL     1      -4.529  -9.432  -2.768  0.00  0.00    +0.002 A 
ATOM     17  C   UNL     1      -5.711  -9.289  -2.063  0.00  0.00    +0.020 A 
ATOM     18  C   UNL     1      -5.989  -8.107  -1.397  0.00  0.00    +0.042 A 
ATOM     19  C   UNL     1      -5.083  -7.065  -1.430  0.00  0.00    +0.033 A 
ATOM     20 CL   UNL     1      -7.474  -7.937  -0.515  0.00  0.00    -0.084 Cl
ENDBRANCH  11  14
ENDBRANCH   1  10
BRANCH   1  21
ATOM     21  N   UNL     1      -0.604  -4.686  -1.458  0.00  0.00    -0.281 NA
ATOM     22  H   UNL     1      -0.291  -5.432  -0.855  0.00  0.00    +0.124 HD
BRANCH  21  23
ATOM     23  C   UNL     1       0.313  -3.540  -1.398  0.00  0.00    +0.088 C 
BRANCH  23  24
ATOM     24  C   UNL     1       0.429  -3.056   0.049  0.00  0.00    +0.048 C 
BRANCH  24  31
ATOM     25  C   UNL     1      -0.268   1.479  -0.027  0.00  0.00    +0.001 A 
ATOM     26  C   UNL     1       0.912   2.230   0.054  0.00  0.00    +0.002 A 
ATOM     27  C   UNL     1       2.133   1.663   0.146  0.00  0.00    +0.026 A 
ATOM     28  C   UNL     1       2.268   0.247   0.164  0.00  0.00    +0.043 A 
ATOM     29  N   UNL     1       3.322  -0.528   0.245  0.00  0.00    -0.380 N 
ATOM     30  C   UNL     1       2.878  -1.926   0.220  0.00  0.00    +0.144 C 
ATOM     31  C   UNL     1       1.370  -1.880   0.111  0.00  0.00    -0.040 C 
ATOM     32  C   UNL     1       1.036  -0.570   0.080  0.00  0.00    -0.001 A 
ATOM     33  C   UNL     1      -0.252   0.126  -0.017  0.00  0.00    +0.010 A 
ATOM     34  H   UNL     1       4.242  -0.228   0.309  0.00  0.00    +0.160 HD
ENDBRANCH  24  31
ENDBRANCH  23  24
ENDBRANCH  21  23
ENDBRANCH   1  21
TORSDOF 8
