REMARK  Name = ZINC23244681
REMARK  9 active torsions:
REMARK  status: ('A' for Active; 'I' for Inactive)
REMARK    1  A    between atoms: C_1  and  C_2
REMARK    2  A    between atoms: C_5  and  C_8
REMARK    3  A    between atoms: N_13  and  C_15
REMARK    4  A    between atoms: C_15  and  C_16
REMARK    5  A    between atoms: C_16  and  N_17
REMARK    6  A    between atoms: N_20  and  S_23
REMARK    7  A    between atoms: S_23  and  C_26
REMARK    8  A    between atoms: C_29  and  O_32
REMARK    9  A    between atoms: O_32  and  C_33
REMARK                            x       y       z     vdW  Elec       q    Type
REMARK                         _______ _______ _______ _____ _____    ______ ____
ROOT
ATOM      1  N   UNL     1      -0.018   1.465   0.010  0.00  0.00    +0.383 N 
ATOM      2  C   UNL     1      -0.809   1.987  -1.113  0.00  0.00    -0.061 C 
ATOM      3  C   UNL     1      -0.956   3.505  -0.967  0.00  0.00    +0.091 C 
ATOM      4  N   UNL     1       0.385   4.093  -0.824  0.00  0.00    -0.180 NA
ATOM      5  C   UNL     1       1.287   3.529   0.191  0.00  0.00    +0.091 C 
ATOM      6  C   UNL     1       1.346   2.010   0.000  0.00  0.00    -0.061 C 
ATOM      7  H   UNL     1      -0.502   1.793   0.942  0.00  0.00    -0.082 HD
ENDROOT
BRANCH   4   8
ATOM      8  S   UNL     1       0.865   5.356  -1.781  0.00  0.00    +0.061 S 
ATOM      9  O   UNL     1      -0.319   6.010  -2.215  0.00  0.00    -0.153 OA
ATOM     10  O   UNL     1       1.894   6.034  -1.073  0.00  0.00    -0.153 OA
BRANCH   8  11
ATOM     11  C   UNL     1       1.614   4.665  -3.218  0.00  0.00    +0.106 A 
ATOM     12  C   UNL     1       2.973   4.411  -3.234  0.00  0.00    +0.032 A 
ATOM     13  C   UNL     1       3.562   3.864  -4.357  0.00  0.00    +0.048 A 
ATOM     14  C   UNL     1       2.790   3.580  -5.475  0.00  0.00    +0.130 A 
ATOM     15  C   UNL     1       1.428   3.841  -5.459  0.00  0.00    +0.048 A 
ATOM     16  C   UNL     1       0.843   4.383  -4.331  0.00  0.00    +0.032 A 
BRANCH  14  17
ATOM     17  O   UNL     1       3.368   3.047  -6.583  0.00  0.00    -0.406 OA
BRANCH  17  18
ATOM     18  C   UNL     1       4.775   2.804  -6.529  0.00  0.00    +0.575 C 
ATOM     19  F   UNL     1       5.054   1.908  -5.491  0.00  0.00    -0.133 F 
ATOM     20  F   UNL     1       5.202   2.258  -7.744  0.00  0.00    -0.133 F 
ATOM     21  F   UNL     1       5.447   4.009  -6.297  0.00  0.00    -0.133 F 
ENDBRANCH  17  18
ENDBRANCH  14  17
ENDBRANCH   8  11
ENDBRANCH   4   8
BRANCH   1  22
ATOM     22  C   UNL     1       0.002  -0.004   0.002  0.00  0.00    -0.055 C 
BRANCH  22  23
ATOM     23  C   UNL     1      -1.409  -0.535   0.263  0.00  0.00    +0.129 C 
BRANCH  23  29
ATOM     24  C   UNL     1      -1.581  -3.930  -0.930  0.00  0.00    +0.092 A 
ATOM     25  C   UNL     1      -1.354  -4.713   0.226  0.00  0.00    +0.035 A 
ATOM     26  C   UNL     1      -1.143  -4.070   1.410  0.00  0.00    +0.074 A 
ATOM     27  C   UNL     1      -1.159  -2.658   1.407  0.00  0.00    +0.267 A 
ATOM     28  O   UNL     1      -0.971  -2.039   2.442  0.00  0.00    -0.266 OA
ATOM     29  N   UNL     1      -1.389  -2.000   0.255  0.00  0.00    -0.231 N 
ATOM     30  N   UNL     1      -1.586  -2.621  -0.851  0.00  0.00    -0.168 NA
BRANCH  24  35
ATOM     31  C   UNL     1      -2.490  -6.502  -6.003  0.00  0.00    +0.044 C 
ATOM     32  C   UNL     1      -2.252  -5.829  -4.675  0.00  0.00    -0.050 A 
ATOM     33  C   UNL     1      -2.257  -4.448  -4.592  0.00  0.00    +0.004 A 
ATOM     34  C   UNL     1      -2.040  -3.827  -3.379  0.00  0.00    +0.010 A 
ATOM     35  C   UNL     1      -1.815  -4.593  -2.237  0.00  0.00    +0.002 A 
ATOM     36  C   UNL     1      -1.806  -5.983  -2.328  0.00  0.00    +0.010 A 
ATOM     37  C   UNL     1      -2.030  -6.594  -3.545  0.00  0.00    +0.004 A 
ENDBRANCH  24  35
ENDBRANCH  23  29
ENDBRANCH  22  23
ENDBRANCH   1  22
TORSDOF 8
