REMARK  Name = ZINC20558709
REMARK  8 active torsions:
REMARK  status: ('A' for Active; 'I' for Inactive)
REMARK    1  A    between atoms: C_1  and  C_2
REMARK    2  A    between atoms: C_2  and  C_3
REMARK    3  A    between atoms: C_6  and  C_9
REMARK    4  A    between atoms: C_11  and  C_35
REMARK    5  A    between atoms: C_12  and  N_34
REMARK    6  A    between atoms: N_19  and  C_26
REMARK    7  A    between atoms: C_26  and  C_27
REMARK    8  A    between atoms: C_32  and  C_33
REMARK                            x       y       z     vdW  Elec       q    Type
REMARK                         _______ _______ _______ _____ _____    ______ ____
ROOT
ATOM      1  C   UNL     1      -0.642   1.734   0.059  0.00  0.00    +0.118 C 
ATOM      2  C   UNL     1      -0.680   0.231   0.028  0.00  0.00    +0.099 C 
ATOM      3  C   UNL     1       0.442  -0.486   0.290  0.00  0.00    +0.199 C 
ATOM      4  O   UNL     1       1.603   0.121   0.583  0.00  0.00    -0.439 OA
ATOM      5  C   UNL     1       1.808   1.418   0.230  0.00  0.00    +0.162 C 
ATOM      6  C   UNL     1       0.778   2.219  -0.026  0.00  0.00    +0.141 C 
ATOM      7  S   UNL     1       1.096   3.900  -0.478  0.00  0.00    +0.076 S 
ATOM      8  O   UNL     1       1.271   3.925  -1.888  0.00  0.00    -0.150 OA
ATOM      9  O   UNL     1       0.132   4.700   0.193  0.00  0.00    -0.150 OA
ATOM     10  N   UNL     1       2.575   4.247   0.203  0.00  0.00    -0.198 N 
ATOM     11  C   UNL     1       3.555   3.248   0.137  0.00  0.00    +0.062 A 
ATOM     12  C   UNL     1       3.209   1.896   0.143  0.00  0.00    +0.042 A 
ATOM     13  C   UNL     1       4.224   0.935   0.063  0.00  0.00    +0.013 A 
ATOM     14  C   UNL     1       5.544   1.324  -0.011  0.00  0.00    +0.001 A 
ATOM     15  C   UNL     1       5.879   2.667  -0.009  0.00  0.00    +0.002 A 
ATOM     16  C   UNL     1       4.889   3.627   0.064  0.00  0.00    +0.025 A 
ENDROOT
BRANCH   1  20
ATOM     17  C   UNL     1      -2.396   3.120   3.699  0.00  0.00    -0.048 A 
ATOM     18  C   UNL     1      -2.938   3.495   2.485  0.00  0.00    +0.004 A 
ATOM     19  C   UNL     1      -2.370   3.046   1.306  0.00  0.00    +0.005 A 
ATOM     20  C   UNL     1      -1.261   2.223   1.343  0.00  0.00    -0.033 A 
ATOM     21  C   UNL     1      -0.721   1.844   2.558  0.00  0.00    +0.005 A 
ATOM     22  C   UNL     1      -1.286   2.297   3.736  0.00  0.00    +0.004 A 
BRANCH  17  24
ATOM     23  C   UNL     1      -4.083   2.615   5.445  0.00  0.00    +0.009 C 
ATOM     24  C   UNL     1      -3.014   3.608   4.984  0.00  0.00    +0.032 C 
ENDBRANCH  17  24
ENDBRANCH   1  20
BRANCH   3  25
ATOM     25  N   UNL     1       0.388  -1.857   0.255  0.00  0.00    -0.328 N 
ATOM     26  H   UNL     1       1.292  -2.448   0.465  0.00  0.00    +0.145 HD
ATOM     27  H   UNL     1      -0.558  -2.365   0.015  0.00  0.00    +0.145 HD
ENDBRANCH   3  25
BRANCH   2  28
ATOM     28  C   UNL     1      -1.905  -0.446  -0.278  0.00  0.00    +0.101 C 
ATOM     29  N   UNL     1      -2.876  -0.983  -0.521  0.00  0.00    -0.191 NA
ENDBRANCH   2  28
BRANCH  10  30
ATOM     30  C   UNL     1       2.841   5.539   0.841  0.00  0.00    +0.167 C 
BRANCH  30  31
ATOM     31  C   UNL     1       2.623   5.419   2.327  0.00  0.00    -0.025 A 
ATOM     32  C   UNL     1       2.240   4.208   2.874  0.00  0.00    +0.005 A 
ATOM     33  C   UNL     1       2.045   4.097   4.238  0.00  0.00    +0.000 A 
ATOM     34  C   UNL     1       2.222   5.199   5.054  0.00  0.00    +0.000 A 
ATOM     35  C   UNL     1       2.600   6.411   4.506  0.00  0.00    +0.003 A 
ATOM     36  C   UNL     1       2.800   6.521   3.142  0.00  0.00    -0.046 A 
ATOM     37  C   UNL     1       3.211   7.842   2.545  0.00  0.00    +0.044 C 
ENDBRANCH  30  31
ENDBRANCH  10  30
TORSDOF 6
