REMARK  Name = ZINC35972767
REMARK  10 active torsions:
REMARK  status: ('A' for Active; 'I' for Inactive)
REMARK    1  A    between atoms: C_1  and  C_2
REMARK    2  A    between atoms: C_2  and  C_3
REMARK    3  A    between atoms: C_3  and  C_4
REMARK    4  A    between atoms: C_4  and  C_5
REMARK    5  A    between atoms: C_5  and  C_7
REMARK    6  A    between atoms: C_5  and  C_9
REMARK    7  A    between atoms: C_7  and  C_8
REMARK    8  A    between atoms: N_17  and  C_22
REMARK    9  A    between atoms: C_22  and  C_23
REMARK   10  A    between atoms: C_23  and  C_24
REMARK                            x       y       z     vdW  Elec       q    Type
REMARK                         _______ _______ _______ _____ _____    ______ ____
ROOT
ATOM      1  C   UNL     1       1.401  -4.716  -2.237  0.00  0.00    +0.219 C 
ATOM      2  O   UNL     1       0.699  -5.279  -1.423  0.00  0.00    -0.275 OA
ATOM      3  N   UNL     1       1.985  -5.421  -3.225  0.00  0.00    -0.301 N 
ATOM      4  C   UNL     1       2.748  -4.740  -4.280  0.00  0.00    +0.110 C 
ATOM      5  C   UNL     1       4.152  -5.351  -4.344  0.00  0.00    +0.056 C 
ATOM      6  C   UNL     1       4.042  -6.860  -4.491  0.00  0.00    +0.087 C 
ATOM      7  C   UNL     1       3.279  -7.487  -3.336  0.00  0.00    +0.056 C 
ATOM      8  C   UNL     1       1.875  -6.886  -3.264  0.00  0.00    +0.110 C 
ATOM      9  N   UNL     1       3.465  -7.236  -5.786  0.00  0.00    -0.286 N 
ATOM     10  C   UNL     1       4.070  -8.167  -6.516  0.00  0.00    +0.227 C 
ATOM     11  O   UNL     1       3.629  -8.506  -7.595  0.00  0.00    -0.275 OA
ATOM     12  C   UNL     1       5.335  -8.793  -5.950  0.00  0.00    +0.167 C 
ATOM     13  S   UNL     1       5.724  -7.598  -4.597  0.00  0.00    -0.126 S 
ENDROOT
BRANCH   1  14
ATOM     14  C   UNL     1       1.620  -3.228  -2.142  0.00  0.00    +0.075 C 
BRANCH  14  15
ATOM     15  C   UNL     1       1.605  -2.803  -0.672  0.00  0.00    +0.009 C 
ATOM     16  C   UNL     1       2.803  -3.423   0.050  0.00  0.00    +0.004 C 
ENDBRANCH  14  15
BRANCH  14  17
ATOM     17  C   UNL     1       0.505  -2.499  -2.895  0.00  0.00    +0.013 C 
BRANCH  17  18
ATOM     18  C   UNL     1       0.794  -0.997  -2.905  0.00  0.00    +0.000 C 
BRANCH  18  20
ATOM     19  C   UNL     1      -0.031   1.234  -3.668  0.00  0.00    +0.004 C 
ATOM     20  C   UNL     1      -0.321  -0.268  -3.658  0.00  0.00    -0.003 C 
ENDBRANCH  18  20
ENDBRANCH  17  18
ENDBRANCH  14  17
ENDBRANCH   1  14
BRANCH   9  21
ATOM     21  C   UNL     1       2.239  -6.593  -6.267  0.00  0.00    +0.114 C 
BRANCH  21  22
ATOM     22  C   UNL     1       2.602  -5.423  -7.183  0.00  0.00    +0.054 C 
BRANCH  22  23
ATOM     23  C   UNL     1       1.343  -4.723  -7.626  0.00  0.00    -0.046 A 
ATOM     24  C   UNL     1       0.695  -5.129  -8.777  0.00  0.00    +0.004 A 
ATOM     25  C   UNL     1      -0.460  -4.487  -9.184  0.00  0.00    +0.000 A 
ATOM     26  C   UNL     1      -0.966  -3.439  -8.438  0.00  0.00    +0.000 A 
ATOM     27  C   UNL     1      -0.319  -3.033  -7.287  0.00  0.00    +0.000 A 
ATOM     28  C   UNL     1       0.834  -3.678  -6.878  0.00  0.00    +0.004 A 
ENDBRANCH  22  23
ENDBRANCH  21  22
ENDBRANCH   9  21
TORSDOF 8
