REMARK  Name = ZINC14995554
REMARK  12 active torsions:
REMARK  status: ('A' for Active; 'I' for Inactive)
REMARK    1  A    between atoms: C_1  and  O_2
REMARK    2  A    between atoms: O_2  and  C_3
REMARK    3  A    between atoms: C_3  and  C_5
REMARK    4  A    between atoms: C_8  and  C_11
REMARK    5  A    between atoms: C_11  and  N_12
REMARK    6  A    between atoms: N_12  and  C_13
REMARK    7  A    between atoms: C_13  and  C_14
REMARK    8  A    between atoms: C_14  and  C_15
REMARK    9  A    between atoms: N_21  and  C_22
REMARK   10  A    between atoms: C_22  and  C_23
REMARK   11  A    between atoms: C_23  and  C_25
REMARK   12  A    between atoms: C_23  and  N_31
REMARK                            x       y       z     vdW  Elec       q    Type
REMARK                         _______ _______ _______ _____ _____    ______ ____
ROOT
ATOM      1  C   UNL     1      -4.721   6.279   1.101  0.00  0.00    +0.075 C 
ATOM      2  C   UNL     1      -6.100   6.185   0.405  0.00  0.00    +0.031 C 
ATOM      3  C   UNL     1      -6.335   4.657   0.381  0.00  0.00    +0.098 C 
ATOM      4  C   UNL     1      -4.943   4.066   0.430  0.00  0.00    +0.216 C 
ATOM      5  O   UNL     1      -4.665   2.919   0.151  0.00  0.00    -0.276 OA
ATOM      6  N   UNL     1      -4.059   4.998   0.827  0.00  0.00    -0.297 N 
ENDROOT
BRANCH   1   7
ATOM      7  C   UNL     1      -4.897   6.472   2.608  0.00  0.00    +0.003 C 
BRANCH   7   8
ATOM      8  C   UNL     1      -3.525   6.478   3.285  0.00  0.00    -0.080 C 
BRANCH   8   9
ATOM      9  N   UNL     1      -3.680   6.820   4.705  0.00  0.00    +0.382 N 
ATOM     10  H   UNL     1      -4.335   6.073   5.178  0.00  0.00    -0.085 HD
ATOM     11  H   UNL     1      -4.145   7.814   4.779  0.00  0.00    -0.085 HD
BRANCH   9  12
ATOM     12  C   UNL     1      -2.380   6.835   5.388  0.00  0.00    -0.047 C 
BRANCH  12  16
ATOM     13  C   UNL     1      -2.946   7.839   9.506  0.00  0.00    +0.059 A 
ATOM     14  C   UNL     1      -2.980   6.504   9.099  0.00  0.00    +0.015 A 
ATOM     15  C   UNL     1      -2.797   6.187   7.769  0.00  0.00    +0.002 A 
ATOM     16  C   UNL     1      -2.579   7.189   6.839  0.00  0.00    -0.064 A 
ATOM     17  C   UNL     1      -2.538   8.514   7.237  0.00  0.00    +0.002 A 
ATOM     18  C   UNL     1      -2.726   8.845   8.563  0.00  0.00    +0.015 A 
BRANCH  13  19
ATOM     19  C   UNL     1      -3.141   8.186  10.929  0.00  0.00    +0.339 C 
ATOM     20  O   UNL     1      -3.332   7.309  11.747  0.00  0.00    -0.245 OA
BRANCH  19  22
ATOM     21  C   UNL     1      -3.306   9.742  12.732  0.00  0.00    +0.280 C 
ATOM     22  O   UNL     1      -3.107   9.475  11.319  0.00  0.00    -0.464 OA
ENDBRANCH  19  22
ENDBRANCH  13  19
ENDBRANCH  12  16
ENDBRANCH   9  12
ENDBRANCH   8   9
ENDBRANCH   7   8
ENDBRANCH   1   7
BRANCH   6  23
ATOM     23  C   UNL     1      -2.621   4.763   0.973  0.00  0.00    +0.131 C 
BRANCH  23  24
ATOM     24  C   UNL     1      -1.896   5.232  -0.291  0.00  0.00    +0.104 C 
BRANCH  24  25
ATOM     25  C   UNL     1      -0.431   4.896  -0.184  0.00  0.00    -0.026 A 
ATOM     26  C   UNL     1      -0.004   3.576  -0.175  0.00  0.00    +0.025 A 
ATOM     27  C   UNL     1       1.347   3.307  -0.071  0.00  0.00    +0.111 A 
ATOM     28  N   UNL     1       2.226   4.286   0.009  0.00  0.00    -0.263 NA
ATOM     29  C   UNL     1       1.857   5.552  -0.001  0.00  0.00    +0.111 A 
ATOM     30  C   UNL     1       0.523   5.898  -0.098  0.00  0.00    +0.025 A 
ENDBRANCH  24  25
BRANCH  24  31
ATOM     31  N   UNL     1      -2.469   4.556  -1.462  0.00  0.00    -0.290 NA
ATOM     32  C   UNL     1      -1.462   4.392  -2.521  0.00  0.00    +0.113 C 
ATOM     33  C   UNL     1      -2.084   3.633  -3.696  0.00  0.00    +0.175 C 
ATOM     34  O   UNL     1      -3.240   4.338  -4.154  0.00  0.00    -0.377 OA
ATOM     35  C   UNL     1      -4.242   4.516  -3.149  0.00  0.00    +0.175 C 
ATOM     36  C   UNL     1      -3.643   5.284  -1.968  0.00  0.00    +0.113 C 
ENDBRANCH  24  31
ENDBRANCH  23  24
ENDBRANCH   6  23
TORSDOF 11
