REMARK  Name = ZINC25583802
REMARK  10 active torsions:
REMARK  status: ('A' for Active; 'I' for Inactive)
REMARK    1  A    between atoms: C_1  and  N_2
REMARK    2  A    between atoms: N_2  and  C_3
REMARK    3  A    between atoms: N_2  and  C_4
REMARK    4  A    between atoms: C_7  and  C_10
REMARK    5  A    between atoms: C_14  and  C_17
REMARK    6  A    between atoms: C_17  and  S_18
REMARK    7  A    between atoms: S_18  and  C_19
REMARK    8  A    between atoms: C_20  and  C_35
REMARK    9  A    between atoms: C_21  and  C_31
REMARK   10  A    between atoms: C_23  and  C_25
REMARK                            x       y       z     vdW  Elec       q    Type
REMARK                         _______ _______ _______ _____ _____    ______ ____
ROOT
ATOM      1  S   UNL     1      -2.638  -0.355   0.066  0.00  0.00    -0.102 S 
ENDROOT
BRANCH   1   2
ATOM      2  C   UNL     1      -3.697  -1.136   1.239  0.00  0.00    +0.116 A 
ATOM      3  C   UNL     1      -5.089  -1.134   1.033  0.00  0.00    +0.095 A 
ATOM      4  C   UNL     1      -5.915  -1.760   1.975  0.00  0.00    +0.077 A 
ATOM      5  C   UNL     1      -5.327  -2.356   3.073  0.00  0.00    +0.042 A 
ATOM      6  C   UNL     1      -3.940  -2.319   3.212  0.00  0.00    +0.073 A 
ATOM      7  N   UNL     1      -3.177  -1.724   2.303  0.00  0.00    -0.239 NA
BRANCH   6   8
ATOM      8  C   UNL     1      -3.307  -2.959   4.390  0.00  0.00    +0.000 A 
ATOM      9  C   UNL     1      -4.095  -3.587   5.353  0.00  0.00    +0.010 A 
ATOM     10  C   UNL     1      -3.500  -4.186   6.444  0.00  0.00    +0.001 A 
ATOM     11  C   UNL     1      -2.125  -4.154   6.590  0.00  0.00    +0.000 A 
ATOM     12  C   UNL     1      -1.338  -3.527   5.641  0.00  0.00    +0.001 A 
ATOM     13  C   UNL     1      -1.921  -2.930   4.542  0.00  0.00    +0.010 A 
ENDBRANCH   6   8
BRANCH   4  14
ATOM     14  C   UNL     1      -7.411  -1.782   1.795  0.00  0.00    +0.419 C 
ATOM     15  F   UNL     1      -8.000  -2.463   2.866  0.00  0.00    -0.166 F 
ATOM     16  F   UNL     1      -7.896  -0.470   1.754  0.00  0.00    -0.166 F 
ATOM     17  F   UNL     1      -7.727  -2.434   0.598  0.00  0.00    -0.166 F 
ENDBRANCH   4  14
BRANCH   3  18
ATOM     18  C   UNL     1      -5.653  -0.502  -0.122  0.00  0.00    +0.102 C 
ATOM     19  N   UNL     1      -6.100  -0.001  -1.038  0.00  0.00    -0.191 NA
ENDBRANCH   3  18
ENDBRANCH   1   2
BRANCH   1  20
ATOM     20  C   UNL     1      -1.030  -0.670   0.836  0.00  0.00    +0.105 C 
BRANCH  20  24
ATOM     21  C   UNL     1       1.308   1.911  -0.002  0.00  0.00    +0.094 C 
ATOM     22  N   UNL     1       2.268   0.786   0.042  0.00  0.00    +0.401 N 
ATOM     23  C   UNL     1       1.467  -0.342   0.595  0.00  0.00    -0.046 C 
ATOM     24  C   UNL     1       0.077  -0.066  -0.030  0.00  0.00    +0.110 C 
ATOM     25  O   UNL     1      -0.018   1.371  -0.041  0.00  0.00    -0.388 OA
ATOM     26  H   UNL     1       2.636   0.578  -0.973  0.00  0.00    -0.081 HD
ATOM     27  H   UNL     1       3.115   1.052   0.691  0.00  0.00    -0.081 HD
BRANCH  21  31
ATOM     28  C   UNL     1       2.009   4.267  -3.499  0.00  0.00    +0.029 A 
ATOM     29  C   UNL     1       1.851   2.891  -3.606  0.00  0.00    +0.023 A 
ATOM     30  C   UNL     1       1.624   2.133  -2.474  0.00  0.00    +0.006 A 
ATOM     31  C   UNL     1       1.556   2.742  -1.235  0.00  0.00    -0.036 A 
ATOM     32  C   UNL     1       1.707   4.112  -1.125  0.00  0.00    +0.006 A 
ATOM     33  C   UNL     1       1.940   4.875  -2.252  0.00  0.00    +0.023 A 
BRANCH  28  35
ATOM     34  C   UNL     1       2.176   4.416  -5.967  0.00  0.00    +0.129 C 
ATOM     35  N   UNL     1       2.238   5.037  -4.641  0.00  0.00    -0.336 N 
ATOM     36  C   UNL     1       2.539   6.465  -4.514  0.00  0.00    +0.129 C 
ENDBRANCH  28  35
ENDBRANCH  21  31
ENDBRANCH  20  24
ENDBRANCH   1  20
TORSDOF 8
