REMARK  Name = ZINC04160538
REMARK  6 active torsions:
REMARK  status: ('A' for Active; 'I' for Inactive)
REMARK    1  A    between atoms: C_1  and  C_2
REMARK    2  A    between atoms: C_6  and  C_8
REMARK    3  A    between atoms: C_8  and  C_9
REMARK    4  A    between atoms: C_9  and  N_44
REMARK    5  A    between atoms: C_10  and  C_11
REMARK    6  A    between atoms: C_10  and  N_44
REMARK                            x       y       z     vdW  Elec       q    Type
REMARK                         _______ _______ _______ _____ _____    ______ ____
ROOT
ATOM      1  C   UNL     1       0.002  -0.004   0.002  0.00  0.00    +0.001 A 
ATOM      2  C   UNL     1      -0.016   1.353   0.009  0.00  0.00    +0.017 A 
ATOM      3  C   UNL     1       1.258   2.070   0.001  0.00  0.00    +0.002 A 
ATOM      4  C   UNL     1       1.300   3.470   0.006  0.00  0.00    +0.059 A 
ATOM      5  C   UNL     1       2.515   4.117   0.001  0.00  0.00    +0.167 A 
ATOM      6  C   UNL     1       3.707   3.381  -0.011  0.00  0.00    +0.168 A 
ATOM      7  C   UNL     1       3.675   1.998  -0.018  0.00  0.00    +0.075 A 
ATOM      8  C   UNL     1       2.457   1.331  -0.012  0.00  0.00    +0.053 A 
ATOM      9  N   UNL     1       2.406  -0.049  -0.020  0.00  0.00    -0.322 N 
ATOM     10  H   UNL     1       3.258  -0.573  -0.030  0.00  0.00    +0.169 HD
ATOM     11  C   UNL     1       1.229  -0.698  -0.013  0.00  0.00    +0.251 A 
ATOM     12  O   UNL     1       1.222  -1.917  -0.021  0.00  0.00    -0.268 OA
ATOM     13  O   UNL     1       4.755   4.255  -0.013  0.00  0.00    -0.453 OA
ATOM     14  C   UNL     1       4.207   5.516   0.411  0.00  0.00    +0.466 C 
ATOM     15  O   UNL     1       2.828   5.447   0.005  0.00  0.00    -0.453 OA
ENDROOT
BRANCH   1  16
ATOM     16  C   UNL     1      -1.294  -0.772   0.010  0.00  0.00    -0.041 C 
BRANCH  16  17
ATOM     17  N   UNL     1      -1.661  -1.116  -1.377  0.00  0.00    +0.382 N 
ATOM     18  H   UNL     1      -1.770  -0.253  -1.922  0.00  0.00    -0.085 HD
ATOM     19  H   UNL     1      -0.918  -1.690  -1.792  0.00  0.00    -0.085 HD
BRANCH  17  20
ATOM     20  C   UNL     1      -2.929  -1.870  -1.400  0.00  0.00    -0.077 C 
BRANCH  20  21
ATOM     21  C   UNL     1      -3.283  -2.212  -2.849  0.00  0.00    +0.016 C 
BRANCH  21  27
ATOM     22  C   UNL     1      -8.278  -2.283  -3.136  0.00  0.00    +0.044 C 
ATOM     23  C   UNL     1      -6.967  -3.016  -3.019  0.00  0.00    -0.050 A 
ATOM     24  C   UNL     1      -6.952  -4.397  -2.942  0.00  0.00    +0.003 A 
ATOM     25  C   UNL     1      -5.749  -5.069  -2.834  0.00  0.00    +0.001 A 
ATOM     26  C   UNL     1      -4.561  -4.362  -2.808  0.00  0.00    +0.003 A 
ATOM     27  C   UNL     1      -4.577  -2.982  -2.881  0.00  0.00    -0.049 A 
ATOM     28  C   UNL     1      -5.780  -2.309  -2.989  0.00  0.00    +0.007 A 
ENDBRANCH  21  27
ENDBRANCH  20  21
ENDBRANCH  17  20
ENDBRANCH  16  17
ENDBRANCH   1  16
TORSDOF 5
