REMARK  Name = ZINC09959437
REMARK  10 active torsions:
REMARK  status: ('A' for Active; 'I' for Inactive)
REMARK    1  A    between atoms: C_1  and  C_2
REMARK    2  A    between atoms: C_2  and  C_4
REMARK    3  A    between atoms: C_2  and  O_15
REMARK    4  A    between atoms: N_6  and  C_7
REMARK    5  A    between atoms: C_7  and  C_13
REMARK    6  A    between atoms: O_15  and  C_16
REMARK    7  A    between atoms: C_16  and  C_18
REMARK    8  A    between atoms: C_23  and  C_24
REMARK    9  A    between atoms: N_26  and  C_27
REMARK   10  A    between atoms: N_26  and  C_28
REMARK                            x       y       z     vdW  Elec       q    Type
REMARK                         _______ _______ _______ _____ _____    ______ ____
ROOT
ATOM      1  C   UNL     1       2.035  -0.638   1.079  0.00  0.00    +0.341 C 
ATOM      2  O   UNL     1       2.591  -0.370   0.033  0.00  0.00    -0.245 OA
ENDROOT
BRANCH   1   3
ATOM      3  C   UNL     1       2.820  -1.154   2.222  0.00  0.00    +0.071 A 
ATOM      4  C   UNL     1       2.213  -1.342   3.461  0.00  0.00    +0.016 A 
ATOM      5  C   UNL     1       2.950  -1.825   4.525  0.00  0.00    +0.001 A 
ATOM      6  C   UNL     1       4.292  -2.123   4.369  0.00  0.00    +0.001 A 
ATOM      7  C   UNL     1       4.912  -1.942   3.147  0.00  0.00    +0.014 A 
ATOM      8  C   UNL     1       4.184  -1.463   2.062  0.00  0.00    +0.051 A 
BRANCH   8   9
ATOM      9  C   UNL     1       4.841  -1.274   0.750  0.00  0.00    +0.247 C 
ATOM     10  O   UNL     1       4.394  -1.822  -0.238  0.00  0.00    -0.270 OA
ATOM     11  N   UNL     1       5.935  -0.493   0.650  0.00  0.00    -0.298 N 
ATOM     12  C   UNL     1       6.532   0.088   1.855  0.00  0.00    +0.132 C 
BRANCH  11  13
ATOM     13  C   UNL     1       6.527  -0.225  -0.662  0.00  0.00    +0.076 C 
ATOM     14  C   UNL     1       7.971  -0.732  -0.684  0.00  0.00    +0.022 C 
ATOM     15  C   UNL     1       8.589  -0.453  -2.055  0.00  0.00    +0.002 C 
ATOM     16  C   UNL     1       8.573   1.053  -2.324  0.00  0.00    +0.000 C 
ATOM     17  C   UNL     1       7.130   1.560  -2.303  0.00  0.00    +0.002 C 
ATOM     18  C   UNL     1       6.512   1.281  -0.932  0.00  0.00    +0.022 C 
ENDBRANCH  11  13
ENDBRANCH   8   9
ENDBRANCH   1   3
BRANCH   1  19
ATOM     19  O   UNL     1       0.705  -0.465   1.200  0.00  0.00    -0.449 OA
BRANCH  19  21
ATOM     20  C   UNL     1      -0.021   1.565   0.108  0.00  0.00    +0.062 C 
ATOM     21  C   UNL     1       0.010   0.036   0.056  0.00  0.00    +0.259 C 
BRANCH  21  22
ATOM     22  C   UNL     1      -1.400  -0.495   0.052  0.00  0.00    +0.255 C 
ATOM     23  O   UNL     1      -1.802  -1.156   0.986  0.00  0.00    -0.272 OA
ATOM     24  N   UNL     1      -2.215  -0.235  -0.990  0.00  0.00    -0.294 N 
ATOM     25  H   UNL     1      -1.894   0.294  -1.737  0.00  0.00    +0.150 HD
BRANCH  24  26
ATOM     26  C   UNL     1      -3.586  -0.752  -0.994  0.00  0.00    +0.121 C 
ATOM     27  C   UNL     1      -3.555  -2.280  -0.920  0.00  0.00    +0.041 C 
ATOM     28  C   UNL     1      -4.987  -2.819  -0.924  0.00  0.00    +0.003 C 
ATOM     29  C   UNL     1      -5.692  -2.385  -2.211  0.00  0.00    +0.000 C 
ATOM     30  C   UNL     1      -5.723  -0.857  -2.284  0.00  0.00    +0.003 C 
ATOM     31  C   UNL     1      -4.291  -0.317  -2.280  0.00  0.00    +0.041 C 
BRANCH  26  32
ATOM     32  C   UNL     1      -4.314  -0.219   0.169  0.00  0.00    +0.088 C 
ATOM     33  N   UNL     1      -4.877   0.192   1.067  0.00  0.00    -0.194 NA
ENDBRANCH  26  32
ENDBRANCH  24  26
ENDBRANCH  21  22
ENDBRANCH  19  21
ENDBRANCH   1  19
TORSDOF 8
