REMARK  Name = ZINC03135603
REMARK  6 active torsions:
REMARK  status: ('A' for Active; 'I' for Inactive)
REMARK    1  A    between atoms: C_1  and  C_2
REMARK    2  A    between atoms: C_10  and  C_11
REMARK    3  A    between atoms: C_10  and  S_13
REMARK    4  A    between atoms: S_13  and  C_16
REMARK    5  A    between atoms: C_19  and  O_22
REMARK    6  A    between atoms: O_22  and  C_23
REMARK                            x       y       z     vdW  Elec       q    Type
REMARK                         _______ _______ _______ _____ _____    ______ ____
ROOT
ATOM      1  C   UNL     1      -0.907   1.455   0.078  0.00  0.00    +0.044 C 
ATOM      2  C   UNL     1      -0.684  -0.035   0.055  0.00  0.00    -0.049 A 
ATOM      3  C   UNL     1      -0.562  -0.696  -1.155  0.00  0.00    +0.005 A 
ATOM      4  C   UNL     1      -0.358  -2.061  -1.186  0.00  0.00    +0.025 A 
ATOM      5  C   UNL     1      -0.274  -2.775   0.001  0.00  0.00    +0.054 A 
ATOM      6  C   UNL     1      -0.396  -2.109   1.222  0.00  0.00    +0.054 A 
ATOM      7  C   UNL     1      -0.596  -0.736   1.242  0.00  0.00    +0.028 A 
ATOM      8  N   UNL     1      -0.273  -3.062   2.230  0.00  0.00    -0.299 N 
ATOM      9  C   UNL     1      -0.079  -4.284   1.642  0.00  0.00    +0.129 C 
ATOM     10  C   UNL     1       0.086  -5.478   2.310  0.00  0.00    +0.205 C 
ATOM     11  N   UNL     1      -0.077  -4.125   0.281  0.00  0.00    -0.299 N 
ATOM     12  H   UNL     1      -0.316  -2.890   3.184  0.00  0.00    +0.153 HD
ATOM     13  H   UNL     1       0.040  -4.830  -0.373  0.00  0.00    +0.153 HD
ENDROOT
BRANCH  10  14
ATOM     14  S   UNL     1       0.227  -5.492   4.066  0.00  0.00    +0.038 S 
ATOM     15  O   UNL     1       1.331  -6.331   4.378  0.00  0.00    -0.164 OA
ATOM     16  O   UNL     1       0.156  -4.138   4.491  0.00  0.00    -0.164 OA
BRANCH  14  17
ATOM     17  C   UNL     1      -1.209  -6.294   4.697  0.00  0.00    +0.095 A 
ATOM     18  C   UNL     1      -2.339  -5.554   4.994  0.00  0.00    +0.031 A 
ATOM     19  C   UNL     1      -3.466  -6.181   5.489  0.00  0.00    +0.048 A 
ATOM     20  C   UNL     1      -3.464  -7.553   5.689  0.00  0.00    +0.130 A 
ATOM     21  C   UNL     1      -2.329  -8.294   5.391  0.00  0.00    +0.048 A 
ATOM     22  C   UNL     1      -1.206  -7.663   4.890  0.00  0.00    +0.031 A 
BRANCH  20  23
ATOM     23  O   UNL     1      -4.571  -8.172   6.177  0.00  0.00    -0.406 OA
BRANCH  23  24
ATOM     24  C   UNL     1      -4.497  -9.588   6.357  0.00  0.00    +0.575 C 
ATOM     25  F   UNL     1      -3.470  -9.890   7.258  0.00  0.00    -0.133 F 
ATOM     26  F   UNL     1      -5.714 -10.057   6.863  0.00  0.00    -0.133 F 
ATOM     27  F   UNL     1      -4.235 -10.201   5.128  0.00  0.00    -0.133 F 
ENDBRANCH  23  24
ENDBRANCH  20  23
ENDBRANCH  14  17
ENDBRANCH  10  14
BRANCH  10  28
ATOM     28  C   UNL     1       0.143  -6.706   1.576  0.00  0.00    +0.122 C 
ATOM     29  N   UNL     1       0.188  -7.681   0.995  0.00  0.00    -0.189 NA
ENDBRANCH  10  28
TORSDOF 5
