REMARK  Name = ZINC58195526
REMARK  9 active torsions:
REMARK  status: ('A' for Active; 'I' for Inactive)
REMARK    1  A    between atoms: C_1  and  C_2
REMARK    2  A    between atoms: C_2  and  C_3
REMARK    3  A    between atoms: C_2  and  N_4
REMARK    4  A    between atoms: N_4  and  C_5
REMARK    5  A    between atoms: N_4  and  C_26
REMARK    6  A    between atoms: C_5  and  C_6
REMARK    7  A    between atoms: N_8  and  C_9
REMARK    8  A    between atoms: C_13  and  S_15
REMARK    9  A    between atoms: S_15  and  N_18
REMARK                            x       y       z     vdW  Elec       q    Type
REMARK                         _______ _______ _______ _____ _____    ______ ____
ROOT
ATOM      1  C   UNL     1      -1.836   3.146  -2.045  0.00  0.00    +0.035 A 
ATOM      2  C   UNL     1      -1.983   3.596  -3.351  0.00  0.00    +0.023 A 
ATOM      3  C   UNL     1      -2.055   4.950  -3.609  0.00  0.00    +0.004 A 
ATOM      4  C   UNL     1      -1.980   5.859  -2.569  0.00  0.00    +0.029 A 
ATOM      5  C   UNL     1      -1.832   5.415  -1.268  0.00  0.00    +0.114 A 
ATOM      6  C   UNL     1      -1.766   4.061  -1.003  0.00  0.00    +0.052 A 
ENDROOT
BRANCH   1   9
ATOM      7  C   UNL     1      -0.950   1.318  -0.806  0.00  0.00    +0.201 C 
ATOM      8  O   UNL     1      -0.346   2.102  -0.104  0.00  0.00    -0.278 OA
ATOM      9  N   UNL     1      -1.763   1.774  -1.780  0.00  0.00    -0.287 N 
ATOM     10  H   UNL     1      -2.297   1.151  -2.297  0.00  0.00    +0.155 HD
BRANCH   7  11
ATOM     11  C   UNL     1      -0.792  -0.165  -0.589  0.00  0.00    +0.020 C 
BRANCH  11  12
ATOM     12  N   UNL     1       0.269  -0.405   0.398  0.00  0.00    +0.389 N 
ATOM     13  H   UNL     1       0.211   0.288   1.129  0.00  0.00    -0.080 HD
BRANCH  12  14
ATOM     14  C   UNL     1       0.105  -1.745   0.977  0.00  0.00    -0.068 C 
ATOM     15  C   UNL     1      -1.188  -1.792   1.794  0.00  0.00    -0.015 C 
ATOM     16  C   UNL     1      -1.359  -3.187   2.397  0.00  0.00    -0.002 C 
ATOM     17  C   UNL     1      -0.170  -3.499   3.308  0.00  0.00    -0.000 C 
ATOM     18  C   UNL     1       1.123  -3.451   2.491  0.00  0.00    -0.002 C 
ATOM     19  C   UNL     1       1.294  -2.056   1.887  0.00  0.00    -0.015 C 
ENDBRANCH  12  14
BRANCH  12  21
ATOM     20  C   UNL     1       1.668  -1.364  -1.369  0.00  0.00    -0.013 C 
ATOM     21  C   UNL     1       1.579  -0.313  -0.261  0.00  0.00    -0.074 C 
ATOM     22  C   UNL     1       1.750   1.082  -0.865  0.00  0.00    -0.013 C 
ENDBRANCH  12  21
ENDBRANCH  11  12
ENDBRANCH   7  11
ENDBRANCH   1   9
BRANCH   5  23
ATOM     23  S   UNL     1      -1.736   6.577   0.053  0.00  0.00    +0.100 S 
ATOM     24  O   UNL     1      -1.052   5.927   1.116  0.00  0.00    -0.146 OA
ATOM     25  O   UNL     1      -1.280   7.798  -0.512  0.00  0.00    -0.146 OA
BRANCH  23  26
ATOM     26  N   UNL     1      -3.282   6.847   0.581  0.00  0.00    -0.118 NA
ATOM     27  C   UNL     1      -3.498   7.669   1.555  0.00  0.00    +0.117 C 
ATOM     28  C   UNL     1      -4.923   7.915   2.047  0.00  0.00    +0.073 C 
ATOM     29  C   UNL     1      -5.035   7.297   3.425  0.00  0.00    +0.008 C 
ATOM     30  C   UNL     1      -4.632   8.247   4.554  0.00  0.00    +0.002 C 
ATOM     31  C   UNL     1      -3.368   9.049   4.239  0.00  0.00    +0.019 C 
ATOM     32  C   UNL     1      -2.280   8.220   3.592  0.00  0.00    +0.102 C 
ATOM     33  N   UNL     1      -2.489   8.293   2.130  0.00  0.00    -0.331 N 
ATOM     34  H   UNL     1      -1.873   8.809   1.587  0.00  0.00    +0.147 HD
ENDBRANCH  23  26
ENDBRANCH   5  23
TORSDOF 7
