REMARK  Name = ZINC06162451
REMARK  10 active torsions:
REMARK  status: ('A' for Active; 'I' for Inactive)
REMARK    1  A    between atoms: C_1  and  C_2
REMARK    2  A    between atoms: C_2  and  C_3
REMARK    3  A    between atoms: C_3  and  O_4
REMARK    4  A    between atoms: O_4  and  C_5
REMARK    5  A    between atoms: C_8  and  C_11
REMARK    6  A    between atoms: C_21  and  C_34
REMARK    7  A    between atoms: C_22  and  C_23
REMARK    8  A    between atoms: N_25  and  C_26
REMARK    9  A    between atoms: C_31  and  O_32
REMARK   10  A    between atoms: O_32  and  C_33
REMARK                            x       y       z     vdW  Elec       q    Type
REMARK                         _______ _______ _______ _____ _____    ______ ____
ROOT
ATOM      1  C   UNL     1      -6.375  -4.586   0.042  0.00  0.00    +0.090 C 
ATOM      2  C   UNL     1      -6.485  -5.432  -1.201  0.00  0.00    +0.024 C 
ATOM      3  C   UNL     1      -6.300  -6.768  -1.144  0.00  0.00    +0.015 C 
ATOM      4  C   UNL     1      -6.396  -7.620  -2.386  0.00  0.00    +0.051 C 
ATOM      5  C   UNL     1      -7.394  -6.993  -3.363  0.00  0.00    +0.014 C 
ATOM      6  C   UNL     1      -6.923  -5.573  -3.695  0.00  0.00    +0.080 C 
ATOM      7  C   UNL     1      -6.785  -4.792  -2.416  0.00  0.00    +0.162 C 
ATOM      8  O   UNL     1      -6.936  -3.587  -2.434  0.00  0.00    -0.292 OA
ATOM      9  N   UNL     1      -6.024  -7.381   0.048  0.00  0.00    -0.321 N 
ATOM     10  C   UNL     1      -6.305  -6.759   1.234  0.00  0.00    +0.014 C 
ATOM     11  C   UNL     1      -6.483  -5.430   1.278  0.00  0.00    +0.043 C 
ATOM     12  C   UNL     1      -6.416  -7.572   2.498  0.00  0.00    +0.061 C 
ATOM     13  H   UNL     1      -5.625  -8.265   0.053  0.00  0.00    +0.152 HD
ENDROOT
BRANCH   1  17
ATOM     14  C   UNL     1      -2.603  -2.577   0.043  0.00  0.00    +0.121 A 
ATOM     15  C   UNL     1      -3.780  -1.844   0.044  0.00  0.00    +0.046 A 
ATOM     16  C   UNL     1      -4.998  -2.496   0.043  0.00  0.00    +0.008 A 
ATOM     17  C   UNL     1      -5.044  -3.877   0.043  0.00  0.00    -0.035 A 
ATOM     18  C   UNL     1      -3.872  -4.611   0.042  0.00  0.00    +0.008 A 
ATOM     19  C   UNL     1      -2.651  -3.964   0.036  0.00  0.00    +0.046 A 
BRANCH  14  20
ATOM     20  O   UNL     1      -1.403  -1.938   0.043  0.00  0.00    -0.492 OA
BRANCH  20  21
ATOM     21  C   UNL     1      -1.429  -0.510   0.051  0.00  0.00    +0.229 C 
BRANCH  21  23
ATOM     22  C   UNL     1      -0.023   1.556   0.057  0.00  0.00    +0.007 C 
ATOM     23  C   UNL     1       0.004   0.026   0.050  0.00  0.00    +0.038 C 
ENDBRANCH  21  23
ENDBRANCH  20  21
ENDBRANCH  14  20
ENDBRANCH   1  17
BRANCH  11  24
ATOM     24  C   UNL     1      -6.780  -4.811   2.518  0.00  0.00    +0.247 C 
ATOM     25  O   UNL     1      -6.871  -5.485   3.528  0.00  0.00    -0.270 OA
ATOM     26  N   UNL     1      -6.962  -3.477   2.579  0.00  0.00    -0.279 N 
ATOM     27  H   UNL     1      -6.826  -2.933   1.788  0.00  0.00    +0.155 HD
BRANCH  26  28
ATOM     28  C   UNL     1      -7.347  -2.878   3.785  0.00  0.00    +0.076 A 
ATOM     29  C   UNL     1      -6.885  -3.382   4.991  0.00  0.00    +0.027 A 
ATOM     30  C   UNL     1      -7.265  -2.789   6.180  0.00  0.00    +0.002 A 
ATOM     31  C   UNL     1      -8.107  -1.692   6.170  0.00  0.00    +0.004 A 
ATOM     32  C   UNL     1      -8.572  -1.183   4.971  0.00  0.00    +0.047 A 
ATOM     33  C   UNL     1      -8.191  -1.769   3.775  0.00  0.00    +0.141 A 
BRANCH  33  34
ATOM     34  O   UNL     1      -8.643  -1.267   2.595  0.00  0.00    -0.493 OA
ATOM     35  C   UNL     1      -9.504  -0.129   2.662  0.00  0.00    +0.277 C 
ENDBRANCH  33  34
ENDBRANCH  26  28
ENDBRANCH  11  24
TORSDOF 7
