REMARK  Name = ZINC11866375
REMARK  12 active torsions:
REMARK  status: ('A' for Active; 'I' for Inactive)
REMARK    1  A    between atoms: C_1  and  C_2
REMARK    2  A    between atoms: C_2  and  C_4
REMARK    3  A    between atoms: C_4  and  O_5
REMARK    4  A    between atoms: O_5  and  C_6
REMARK    5  A    between atoms: C_9  and  C_13
REMARK    6  A    between atoms: C_10  and  O_12
REMARK    7  A    between atoms: C_14  and  C_24
REMARK    8  A    between atoms: C_15  and  C_20
REMARK    9  A    between atoms: C_27  and  O_32
REMARK   10  A    between atoms: C_28  and  O_30
REMARK   11  A    between atoms: O_30  and  C_31
REMARK   12  A    between atoms: O_32  and  C_33
REMARK                            x       y       z     vdW  Elec       q    Type
REMARK                         _______ _______ _______ _____ _____    ______ ____
ROOT
ATOM      1  C   UNL     1       1.159  -0.656  -0.185  0.00  0.00    +0.088 A 
ATOM      2  C   UNL     1       2.361   0.063  -0.023  0.00  0.00    +0.038 A 
ATOM      3  C   UNL     1       2.283   1.444   0.155  0.00  0.00    +0.157 A 
ATOM      4  N   UNL     1       1.095   2.026   0.167  0.00  0.00    -0.210 NA
ATOM      5  C   UNL     1      -0.016   1.319   0.013  0.00  0.00    +0.214 A 
ATOM      6  N   UNL     1       0.006   0.007  -0.160  0.00  0.00    -0.214 NA
ATOM      7  N   UNL     1      -1.235   1.974   0.026  0.00  0.00    -0.327 N 
ATOM      8  H   UNL     1      -2.057   1.472  -0.090  0.00  0.00    +0.145 HD
ATOM      9  H   UNL     1      -1.268   2.935   0.152  0.00  0.00    +0.145 HD
ENDROOT
BRANCH   1  13
ATOM     10  C   UNL     1       1.221  -4.873  -0.740  0.00  0.00    +0.124 A 
ATOM     11  C   UNL     1       2.035  -4.056  -1.516  0.00  0.00    +0.046 A 
ATOM     12  C   UNL     1       2.018  -2.691  -1.339  0.00  0.00    +0.017 A 
ATOM     13  C   UNL     1       1.181  -2.123  -0.378  0.00  0.00    +0.043 A 
ATOM     14  C   UNL     1       0.365  -2.946   0.408  0.00  0.00    +0.129 A 
ATOM     15  C   UNL     1       0.385  -4.318   0.218  0.00  0.00    +0.091 A 
BRANCH  14  16
ATOM     16  O   UNL     1      -0.448  -2.402   1.349  0.00  0.00    -0.506 OA
ATOM     17  H   UNL     1      -1.330  -2.174   1.023  0.00  0.00    +0.292 HD
ENDBRANCH  14  16
BRANCH  10  18
ATOM     18  O   UNL     1       1.243  -6.219  -0.920  0.00  0.00    -0.488 OA
BRANCH  18  19
ATOM     19  C   UNL     1       2.127  -6.725  -1.923  0.00  0.00    +0.259 C 
BRANCH  19  21
ATOM     20  C   UNL     1       2.850  -9.008  -2.961  0.00  0.00    +0.042 C 
ATOM     21  C   UNL     1       2.016  -8.226  -1.979  0.00  0.00    -0.043 C 
ATOM     22  C   UNL     1       1.194  -8.853  -1.174  0.00  0.00    +0.011 C 
ENDBRANCH  19  21
ENDBRANCH  18  19
ENDBRANCH  10  18
ENDBRANCH   1  13
BRANCH   2  23
ATOM     23  C   UNL     1       3.671  -0.629  -0.044  0.00  0.00    -0.010 A 
ATOM     24  C   UNL     1       4.022  -1.490   0.995  0.00  0.00    +0.012 A 
ATOM     25  C   UNL     1       5.241  -2.137   0.973  0.00  0.00    +0.050 A 
ATOM     26  C   UNL     1       6.123  -1.925  -0.076  0.00  0.00    +0.162 A 
ATOM     27  C   UNL     1       5.780  -1.062  -1.113  0.00  0.00    +0.162 A 
ATOM     28  C   UNL     1       4.557  -0.415  -1.099  0.00  0.00    +0.058 A 
BRANCH  27  29
ATOM     29  O   UNL     1       6.646  -0.857  -2.141  0.00  0.00    -0.491 OA
ATOM     30  C   UNL     1       6.229   0.041  -3.172  0.00  0.00    +0.277 C 
ENDBRANCH  27  29
BRANCH  26  31
ATOM     31  O   UNL     1       7.325  -2.561  -0.091  0.00  0.00    -0.491 OA
ATOM     32  C   UNL     1       7.612  -3.432   1.005  0.00  0.00    +0.277 C 
ENDBRANCH  26  31
ENDBRANCH   2  23
BRANCH   3  33
ATOM     33  C   UNL     1       3.535   2.263   0.332  0.00  0.00    +0.435 C 
ATOM     34  F   UNL     1       3.994   2.689  -0.919  0.00  0.00    -0.164 F 
ATOM     35  F   UNL     1       3.255   3.377   1.131  0.00  0.00    -0.164 F 
ATOM     36  F   UNL     1       4.519   1.483   0.949  0.00  0.00    -0.164 F 
ENDBRANCH   3  33
TORSDOF 9
