REMARK  Name = ZINC63182690
REMARK  9 active torsions:
REMARK  status: ('A' for Active; 'I' for Inactive)
REMARK    1  A    between atoms: C_1  and  O_2
REMARK    2  A    between atoms: O_2  and  C_3
REMARK    3  A    between atoms: C_3  and  C_5
REMARK    4  A    between atoms: C_5  and  C_7
REMARK    5  A    between atoms: C_5  and  N_17
REMARK    6  A    between atoms: C_7  and  C_8
REMARK    7  A    between atoms: C_18  and  C_20
REMARK    8  A    between atoms: N_23  and  C_29
REMARK    9  A    between atoms: C_24  and  C_25
REMARK                            x       y       z     vdW  Elec       q    Type
REMARK                         _______ _______ _______ _____ _____    ______ ____
ROOT
ATOM      1  N   UNL     1       1.354  -2.503  -2.345  0.00  0.00    -0.298 N 
ATOM      2  C   UNL     1       2.700  -2.578  -2.362  0.00  0.00    +0.248 C 
ATOM      3  O   UNL     1       3.336  -2.314  -1.359  0.00  0.00    -0.270 OA
ATOM      4  H   UNL     1       0.847  -2.713  -3.145  0.00  0.00    +0.150 HD
ENDROOT
BRANCH   2   5
ATOM      5  C   UNL     1       3.400  -2.980  -3.595  0.00  0.00    +0.086 A 
ATOM      6  C   UNL     1       2.800  -3.308  -4.832  0.00  0.00    +0.148 A 
ATOM      7  N   UNL     1       3.749  -3.609  -5.675  0.00  0.00    -0.174 NA
ATOM      8  N   UNL     1       4.985  -3.489  -5.028  0.00  0.00    -0.227 N 
ATOM      9  C   UNL     1       4.766  -3.100  -3.759  0.00  0.00    +0.159 A 
BRANCH   8  10
ATOM     10  C   UNL     1       6.239  -3.731  -5.606  0.00  0.00    +0.066 A 
ATOM     11  C   UNL     1       7.337  -2.968  -5.230  0.00  0.00    +0.029 A 
ATOM     12  C   UNL     1       8.571  -3.208  -5.801  0.00  0.00    +0.022 A 
ATOM     13  C   UNL     1       8.714  -4.206  -6.748  0.00  0.00    +0.041 A 
ATOM     14  C   UNL     1       7.622  -4.967  -7.125  0.00  0.00    +0.022 A 
ATOM     15  C   UNL     1       6.386  -4.736  -6.553  0.00  0.00    +0.029 A 
ATOM     16 CL   UNL     1      10.267  -4.504  -7.465  0.00  0.00    -0.084 Cl
ENDBRANCH   8  10
BRANCH   9  17
ATOM     17  C   UNL     1       5.817  -2.844  -2.710  0.00  0.00    +0.435 C 
ATOM     18  F   UNL     1       6.208  -1.502  -2.759  0.00  0.00    -0.164 F 
ATOM     19  F   UNL     1       5.293  -3.132  -1.445  0.00  0.00    -0.164 F 
ATOM     20  F   UNL     1       6.926  -3.662  -2.953  0.00  0.00    -0.164 F 
ENDBRANCH   9  17
ENDBRANCH   2   5
BRANCH   1  21
ATOM     21  C   UNL     1       0.657  -2.104  -1.120  0.00  0.00    +0.186 C 
BRANCH  21  22
ATOM     22  C   UNL     1       0.598  -0.600  -1.043  0.00  0.00    +0.328 C 
ATOM     23  O   UNL     1       1.088   0.070  -1.921  0.00  0.00    -0.249 OA
BRANCH  22  25
ATOM     24  C   UNL     1      -0.017   1.425   0.010  0.00  0.00    +0.280 C 
ATOM     25  O   UNL     1       0.002  -0.004   0.002  0.00  0.00    -0.467 OA
ENDBRANCH  22  25
ENDBRANCH  21  22
BRANCH  21  26
ATOM     26  C   UNL     1      -0.764  -2.670  -1.133  0.00  0.00    +0.067 C 
BRANCH  26  27
ATOM     27  C   UNL     1      -0.705  -4.175  -1.086  0.00  0.00    -0.039 C 
ATOM     28  C   UNL     1      -0.796  -4.958   0.013  0.00  0.00    -0.001 A 
ATOM     29  C   UNL     1      -0.970  -4.655   1.438  0.00  0.00    +0.010 A 
ATOM     30  C   UNL     1      -1.026  -5.676   2.324  0.00  0.00    +0.001 A 
ATOM     31  C   UNL     1      -0.923  -7.013   1.915  0.00  0.00    +0.002 A 
ATOM     32  C   UNL     1      -0.763  -7.370   0.623  0.00  0.00    +0.026 A 
ATOM     33  C   UNL     1      -0.691  -6.378  -0.393  0.00  0.00    +0.043 A 
ATOM     34  N   UNL     1      -0.540  -6.469  -1.692  0.00  0.00    -0.380 N 
ATOM     35  C   UNL     1      -0.539  -5.115  -2.259  0.00  0.00    +0.144 C 
ATOM     36  H   UNL     1      -0.449  -7.293  -2.195  0.00  0.00    +0.160 HD
ENDBRANCH  26  27
ENDBRANCH  21  26
ENDBRANCH   1  21
TORSDOF 8
