REMARK  Name = ZINC11783379
REMARK  8 active torsions:
REMARK  status: ('A' for Active; 'I' for Inactive)
REMARK    1  A    between atoms: C_1  and  C_2
REMARK    2  A    between atoms: C_7  and  N_8
REMARK    3  A    between atoms: N_8  and  S_9
REMARK    4  A    between atoms: S_9  and  C_12
REMARK    5  A    between atoms: C_13  and  C_30
REMARK    6  A    between atoms: C_21  and  C_23
REMARK    7  A    between atoms: C_30  and  O_32
REMARK    8  A    between atoms: O_32  and  C_33
REMARK                            x       y       z     vdW  Elec       q    Type
REMARK                         _______ _______ _______ _____ _____    ______ ____
ROOT
ATOM      1  C   UNL     1      -0.787   2.450   3.530  0.00  0.00    +0.160 A 
ATOM      2  C   UNL     1      -0.189   1.785   2.480  0.00  0.00    +0.096 A 
ATOM      3  C   UNL     1      -0.852   1.819   1.190  0.00  0.00    -0.018 A 
ATOM      4  C   UNL     1      -2.014   2.512   1.163  0.00  0.00    +0.013 A 
ATOM      5  S   UNL     1      -2.219   3.113   2.814  0.00  0.00    -0.071 S 
ATOM      6  C   UNL     1      -2.913   2.714  -0.019  0.00  0.00    +0.150 C 
ATOM      7  N   UNL     1      -2.190   2.215  -1.206  0.00  0.00    -0.296 N 
ATOM      8  C   UNL     1      -1.446   0.954  -1.067  0.00  0.00    +0.113 C 
ATOM      9  C   UNL     1      -0.310   1.137  -0.059  0.00  0.00    +0.056 C 
ATOM     10  C   UNL     1      -2.211   2.890  -2.372  0.00  0.00    +0.219 C 
ATOM     11  O   UNL     1      -2.923   3.864  -2.496  0.00  0.00    -0.275 OA
ENDROOT
BRANCH  10  12
ATOM     12  C   UNL     1      -1.349   2.436  -3.521  0.00  0.00    +0.079 C 
ATOM     13  C   UNL     1      -1.310   3.526  -4.599  0.00  0.00    +0.017 C 
ATOM     14  C   UNL     1      -0.292   3.116  -5.666  0.00  0.00    +0.027 C 
ATOM     15  C   UNL     1      -0.541   1.702  -6.101  0.00  0.00    -0.031 C 
ATOM     16  C   UNL     1      -1.255   0.853  -5.434  0.00  0.00    -0.030 C 
ATOM     17  C   UNL     1      -1.939   1.164  -4.134  0.00  0.00    +0.039 C 
ENDBRANCH  10  12
BRANCH   1  18
ATOM     18  S   UNL     1      -0.230   2.589   5.195  0.00  0.00    +0.079 S 
ATOM     19  O   UNL     1      -0.286   1.284   5.753  0.00  0.00    -0.149 OA
ATOM     20  O   UNL     1       0.969   3.352   5.160  0.00  0.00    -0.149 OA
BRANCH  18  21
ATOM     21  N   UNL     1      -1.347   3.501   6.010  0.00  0.00    -0.216 N 
ATOM     22  H   UNL     1      -1.076   4.325   6.445  0.00  0.00    +0.174 HD
BRANCH  21  29
ATOM     23  C   UNL     1      -3.380   5.491   5.975  0.00  0.00    +0.046 C 
ATOM     24  C   UNL     1      -3.703   4.021   6.057  0.00  0.00    -0.028 A 
ATOM     25  C   UNL     1      -5.019   3.604   6.114  0.00  0.00    +0.005 A 
ATOM     26  C   UNL     1      -5.316   2.256   6.195  0.00  0.00    +0.000 A 
ATOM     27  C   UNL     1      -4.298   1.321   6.215  0.00  0.00    +0.002 A 
ATOM     28  C   UNL     1      -2.980   1.730   6.153  0.00  0.00    +0.025 A 
ATOM     29  C   UNL     1      -2.678   3.084   6.072  0.00  0.00    +0.051 A 
ENDBRANCH  21  29
ENDBRANCH  18  21
ENDBRANCH   1  18
BRANCH   2  30
ATOM     30  C   UNL     1       1.080   1.066   2.662  0.00  0.00    +0.342 C 
ATOM     31  O   UNL     1       1.074  -0.105   2.988  0.00  0.00    -0.245 OA
BRANCH  30  32
ATOM     32  O   UNL     1       2.251   1.705   2.467  0.00  0.00    -0.464 OA
ATOM     33  C   UNL     1       3.465   0.932   2.664  0.00  0.00    +0.280 C 
ENDBRANCH  30  32
ENDBRANCH   2  30
TORSDOF 6
