REMARK  Name = ZINC17851198
REMARK  9 active torsions:
REMARK  status: ('A' for Active; 'I' for Inactive)
REMARK    1  A    between atoms: C_1  and  C_2
REMARK    2  A    between atoms: C_6  and  C_12
REMARK    3  A    between atoms: C_10  and  C_11
REMARK    4  A    between atoms: C_12  and  C_13
REMARK    5  A    between atoms: N_15  and  C_16
REMARK    6  A    between atoms: C_16  and  C_18
REMARK    7  A    between atoms: C_16  and  C_19
REMARK    8  A    between atoms: C_22  and  S_25
REMARK    9  A    between atoms: S_25  and  N_28
REMARK                            x       y       z     vdW  Elec       q    Type
REMARK                         _______ _______ _______ _____ _____    ______ ____
ROOT
ATOM      1  C   UNL     1      -2.528   3.835   7.139  0.00  0.00    +0.218 C 
ATOM      2  O   UNL     1      -3.507   3.261   7.568  0.00  0.00    -0.275 OA
ATOM      3  N   UNL     1      -2.251   3.802   5.821  0.00  0.00    -0.308 N 
ATOM      4  H   UNL     1      -1.468   4.261   5.478  0.00  0.00    +0.149 HD
ENDROOT
BRANCH   3   5
ATOM      5  C   UNL     1      -3.132   3.072   4.905  0.00  0.00    +0.100 C 
ATOM      6  C   UNL     1      -4.295   3.975   4.489  0.00  0.00    +0.033 C 
BRANCH   5   7
ATOM      7  C   UNL     1      -2.354   2.659   3.683  0.00  0.00    -0.027 A 
ATOM      8  C   UNL     1      -2.559   1.412   3.122  0.00  0.00    +0.007 A 
ATOM      9  C   UNL     1      -1.846   1.033   2.000  0.00  0.00    +0.029 A 
ATOM     10  C   UNL     1      -0.927   1.900   1.439  0.00  0.00    +0.105 A 
ATOM     11  C   UNL     1      -0.717   3.145   2.004  0.00  0.00    +0.029 A 
ATOM     12  C   UNL     1      -1.434   3.526   3.123  0.00  0.00    +0.007 A 
BRANCH  10  13
ATOM     13  S   UNL     1      -0.017   1.417   0.010  0.00  0.00    +0.056 S 
ATOM     14  O   UNL     1       0.002  -0.004   0.002  0.00  0.00    -0.153 OA
ATOM     15  O   UNL     1       1.172   2.195   0.003  0.00  0.00    -0.153 OA
BRANCH  13  16
ATOM     16  N   UNL     1      -0.897   1.885  -1.312  0.00  0.00    -0.204 NA
ATOM     17  H   UNL     1      -1.201   1.223  -1.952  0.00  0.00    +0.144 HD
ATOM     18  H   UNL     1      -1.110   2.822  -1.446  0.00  0.00    +0.144 HD
ENDBRANCH  13  16
ENDBRANCH  10  13
ENDBRANCH   5   7
ENDBRANCH   3   5
BRANCH   1  19
ATOM     19  C   UNL     1      -1.622   4.586   8.081  0.00  0.00    +0.134 C 
BRANCH  19  25
ATOM     20  C   UNL     1      -1.805   0.766  13.811  0.00  0.00    +0.044 C 
ATOM     21  C   UNL     1      -1.845   1.691  12.622  0.00  0.00    -0.044 A 
ATOM     22  C   UNL     1      -1.155   1.355  11.467  0.00  0.00    +0.004 A 
ATOM     23  C   UNL     1      -1.180   2.182  10.379  0.00  0.00    +0.012 A 
ATOM     24  C   UNL     1      -1.905   3.372  10.432  0.00  0.00    +0.024 A 
ATOM     25  C   UNL     1      -2.151   4.468   9.487  0.00  0.00    +0.007 A 
ATOM     26  C   UNL     1      -2.944   5.340  10.125  0.00  0.00    +0.200 A 
ATOM     27  O   UNL     1      -3.211   4.901  11.367  0.00  0.00    -0.462 OA
ATOM     28  C   UNL     1      -2.605   3.720  11.600  0.00  0.00    +0.138 A 
ATOM     29  C   UNL     1      -2.562   2.866  12.696  0.00  0.00    -0.005 A 
ATOM     30  C   UNL     1      -3.310   3.217  13.956  0.00  0.00    +0.048 C 
ENDBRANCH  19  25
ENDBRANCH   1  19
TORSDOF 6
