REMARK  Name = ZINC50439521
REMARK  7 active torsions:
REMARK  status: ('A' for Active; 'I' for Inactive)
REMARK    1  A    between atoms: C_1  and  C_2
REMARK    2  A    between atoms: C_4  and  N_21
REMARK    3  A    between atoms: C_5  and  N_9
REMARK    4  A    between atoms: C_7  and  C_8
REMARK    5  A    between atoms: N_9  and  S_10
REMARK    6  A    between atoms: S_10  and  N_13
REMARK    7  A    between atoms: C_18  and  C_20
REMARK                            x       y       z     vdW  Elec       q    Type
REMARK                         _______ _______ _______ _____ _____    ______ ____
ROOT
ATOM      1  N   UNL     1      -0.258  -3.361  -0.397  0.00  0.00    -0.205 N 
ATOM      2  H   UNL     1       0.303  -3.688  -1.117  0.00  0.00    +0.175 HD
ENDROOT
BRANCH   1   7
ATOM      3  C   UNL     1      -2.194   1.977  -0.501  0.00  0.00    +0.044 C 
ATOM      4  C   UNL     1      -1.680   0.560  -0.476  0.00  0.00    -0.046 A 
ATOM      5  C   UNL     1      -1.548  -0.145  -1.659  0.00  0.00    +0.028 A 
ATOM      6  C   UNL     1      -1.075  -1.449  -1.639  0.00  0.00    +0.048 A 
ATOM      7  C   UNL     1      -0.735  -2.044  -0.424  0.00  0.00    +0.070 A 
ATOM      8  C   UNL     1      -0.871  -1.330   0.756  0.00  0.00    +0.030 A 
ATOM      9  C   UNL     1      -1.339  -0.028   0.726  0.00  0.00    -0.046 A 
ATOM     10  C   UNL     1      -1.480   0.749   2.010  0.00  0.00    +0.044 C 
BRANCH   6  11
ATOM     11  N   UNL     1      -0.940  -2.165  -2.834  0.00  0.00    -0.356 N 
ATOM     12  H   UNL     1      -1.177  -1.749  -3.678  0.00  0.00    +0.142 HD
ATOM     13  H   UNL     1      -0.610  -3.077  -2.819  0.00  0.00    +0.142 HD
ENDBRANCH   6  11
ENDBRANCH   1   7
BRANCH   1  14
ATOM     14  S   UNL     1      -0.651  -4.358   0.865  0.00  0.00    +0.112 S 
ATOM     15  O   UNL     1      -0.155  -5.648   0.533  0.00  0.00    -0.138 OA
ATOM     16  O   UNL     1      -0.272  -3.678   2.054  0.00  0.00    -0.138 OA
BRANCH  14  17
ATOM     17  N   UNL     1      -2.302  -4.480   0.896  0.00  0.00    -0.161 NA
ATOM     18  C   UNL     1      -3.091  -3.715   1.872  0.00  0.00    +0.111 C 
ATOM     19  C   UNL     1      -4.159  -2.913   1.122  0.00  0.00    +0.017 C 
ATOM     20  C   UNL     1      -4.986  -3.861   0.251  0.00  0.00    +0.003 C 
ATOM     21  C   UNL     1      -4.075  -4.534  -0.779  0.00  0.00    +0.020 C 
ATOM     22  C   UNL     1      -3.007  -5.350  -0.055  0.00  0.00    +0.078 C 
ATOM     23  C   UNL     1      -2.011  -5.908  -1.074  0.00  0.00    +0.026 C 
ENDBRANCH  14  17
ENDBRANCH   1  14
TORSDOF 4
