REMARK  Name = ZINC20503225
REMARK  6 active torsions:
REMARK  status: ('A' for Active; 'I' for Inactive)
REMARK    1  A    between atoms: C_1  and  C_2
REMARK    2  A    between atoms: C_2  and  C_34
REMARK    3  A    between atoms: C_6  and  C_26
REMARK    4  A    between atoms: N_8  and  C_16
REMARK    5  A    between atoms: C_16  and  C_17
REMARK    6  A    between atoms: N_19  and  C_20
REMARK                            x       y       z     vdW  Elec       q    Type
REMARK                         _______ _______ _______ _____ _____    ______ ____
ROOT
ATOM      1  C   UNL     1      -4.659  -1.606   2.840  0.00  0.00    +0.011 C 
ATOM      2  C   UNL     1      -3.393  -1.921   3.639  0.00  0.00    -0.023 C 
ATOM      3  C   UNL     1      -2.663  -3.107   3.008  0.00  0.00    +0.058 C 
ATOM      4  C   UNL     1      -2.287  -2.772   1.577  0.00  0.00    +0.017 C 
ATOM      5  C   UNL     1      -1.944  -1.518   1.230  0.00  0.00    +0.037 C 
ATOM      6  C   UNL     1      -1.482  -1.062  -0.133  0.00  0.00    +0.146 C 
ATOM      7  N   UNL     1      -1.150  -2.122  -1.056  0.00  0.00    -0.308 N 
ATOM      8  C   UNL     1      -2.238  -2.880  -1.471  0.00  0.00    +0.052 A 
ATOM      9  C   UNL     1      -2.707  -2.793  -2.777  0.00  0.00    +0.025 A 
ATOM     10  C   UNL     1      -3.803  -3.546  -3.157  0.00  0.00    +0.002 A 
ATOM     11  C   UNL     1      -4.432  -4.378  -2.250  0.00  0.00    +0.002 A 
ATOM     12  C   UNL     1      -3.963  -4.471  -0.950  0.00  0.00    +0.025 A 
ATOM     13  C   UNL     1      -2.859  -3.724  -0.574  0.00  0.00    +0.052 A 
ATOM     14  N   UNL     1      -2.315  -3.813   0.705  0.00  0.00    -0.316 N 
ATOM     15  C   UNL     1      -2.007  -0.481   2.192  0.00  0.00    +0.163 C 
ATOM     16  O   UNL     1      -1.693   0.644   1.858  0.00  0.00    -0.292 OA
ATOM     17  C   UNL     1      -2.445  -0.717   3.606  0.00  0.00    +0.086 C 
ATOM     18  C   UNL     1      -3.761  -2.250   5.087  0.00  0.00    +0.011 C 
ATOM     19  H   UNL     1      -1.894  -4.786   0.996  0.00  0.00    +0.152 HD
ENDROOT
BRANCH   6  20
ATOM     20  C   UNL     1      -0.265  -0.191   0.047  0.00  0.00    +0.015 A 
ATOM     21  C   UNL     1      -0.188   1.159   0.142  0.00  0.00    +0.013 A 
ATOM     22  C   UNL     1       1.051   1.750   0.306  0.00  0.00    +0.008 A 
ATOM     23  C   UNL     1       2.152   0.962   0.366  0.00  0.00    +0.045 A 
ATOM     24  S   UNL     1       1.449  -0.669   0.189  0.00  0.00    -0.099 S 
ENDBRANCH   6  20
BRANCH   7  25
ATOM     25  C   UNL     1      -0.401  -1.602  -2.207  0.00  0.00    +0.202 C 
BRANCH  25  26
ATOM     26  C   UNL     1       0.138  -2.753  -3.018  0.00  0.00    +0.235 C 
ATOM     27  O   UNL     1      -0.081  -3.894  -2.670  0.00  0.00    -0.274 OA
ATOM     28  N   UNL     1       0.863  -2.514  -4.128  0.00  0.00    -0.284 N 
ATOM     29  H   UNL     1       0.989  -1.484  -4.492  0.00  0.00    +0.155 HD
BRANCH  28  30
ATOM     30  C   UNL     1       1.455  -3.577  -4.819  0.00  0.00    +0.033 A 
ATOM     31  C   UNL     1       1.918  -4.687  -4.124  0.00  0.00    +0.023 A 
ATOM     32  C   UNL     1       2.498  -5.737  -4.809  0.00  0.00    +0.002 A 
ATOM     33  C   UNL     1       2.627  -5.679  -6.184  0.00  0.00    +0.000 A 
ATOM     34  C   UNL     1       2.172  -4.573  -6.879  0.00  0.00    +0.002 A 
ATOM     35  C   UNL     1       1.587  -3.522  -6.200  0.00  0.00    +0.023 A 
ENDBRANCH  28  30
ENDBRANCH  25  26
ENDBRANCH   7  25
TORSDOF 4
