REMARK  Name = ZINC36821619
REMARK  10 active torsions:
REMARK  status: ('A' for Active; 'I' for Inactive)
REMARK    1  A    between atoms: C_4  and  N_7
REMARK    2  A    between atoms: C_8  and  C_27
REMARK    3  A    between atoms: C_11  and  S_12
REMARK    4  A    between atoms: S_12  and  C_13
REMARK    5  A    between atoms: C_13  and  C_14
REMARK    6  A    between atoms: N_16  and  C_17
REMARK    7  A    between atoms: C_22  and  S_23
REMARK    8  A    between atoms: S_23  and  C_24
REMARK    9  A    between atoms: C_24  and  C_25
REMARK   10  A    between atoms: C_27  and  N_28
REMARK                            x       y       z     vdW  Elec       q    Type
REMARK                         _______ _______ _______ _____ _____    ______ ____
ROOT
ATOM      1  N   UNL     1       3.601  -0.688  -0.015  0.00  0.00    -0.276 N 
ATOM      2  C   UNL     1       4.088  -1.492  -1.012  0.00  0.00    +0.122 A 
ATOM      3  N   UNL     1       5.253  -1.927  -0.625  0.00  0.00    -0.135 NA
ATOM      4  N   UNL     1       5.537  -1.459   0.538  0.00  0.00    -0.122 NA
ATOM      5  C   UNL     1       4.562  -0.688   0.959  0.00  0.00    +0.197 A 
ENDROOT
BRANCH   1   9
ATOM      6  C   UNL     1      -0.038   1.345   0.032  0.00  0.00    +0.000 A 
ATOM      7  C   UNL     1       1.148   2.054   0.015  0.00  0.00    +0.002 A 
ATOM      8  C   UNL     1       2.356   1.383  -0.001  0.00  0.00    +0.026 A 
ATOM      9  C   UNL     1       2.377  -0.004   0.001  0.00  0.00    +0.050 A 
ATOM     10  C   UNL     1       1.184  -0.714   0.018  0.00  0.00    +0.026 A 
ATOM     11  C   UNL     1      -0.020  -0.038   0.034  0.00  0.00    +0.002 A 
ENDBRANCH   1   9
BRANCH   5  12
ATOM     12  S   UNL     1       4.500   0.181   2.491  0.00  0.00    -0.076 S 
BRANCH  12  13
ATOM     13  C   UNL     1       6.067  -0.243   3.300  0.00  0.00    +0.173 C 
BRANCH  13  14
ATOM     14  C   UNL     1       6.144   0.444   4.639  0.00  0.00    +0.228 C 
ATOM     15  O   UNL     1       5.231   1.151   5.011  0.00  0.00    -0.275 OA
ATOM     16  N   UNL     1       7.227   0.274   5.423  0.00  0.00    -0.284 N 
ATOM     17  H   UNL     1       7.927  -0.342   5.155  0.00  0.00    +0.155 HD
BRANCH  16  18
ATOM     18  C   UNL     1       7.341   0.986   6.624  0.00  0.00    +0.047 A 
ATOM     19  C   UNL     1       6.210   1.266   7.376  0.00  0.00    +0.024 A 
ATOM     20  C   UNL     1       6.325   1.968   8.562  0.00  0.00    +0.002 A 
ATOM     21  C   UNL     1       7.565   2.393   9.002  0.00  0.00    +0.001 A 
ATOM     22  C   UNL     1       8.698   2.118   8.259  0.00  0.00    +0.016 A 
ATOM     23  C   UNL     1       8.593   1.409   7.071  0.00  0.00    +0.030 A 
BRANCH  23  24
ATOM     24  S   UNL     1      10.036   1.050   6.125  0.00  0.00    -0.108 S 
BRANCH  24  25
ATOM     25  C   UNL     1      11.386   1.786   7.088  0.00  0.00    +0.192 C 
BRANCH  25  26
ATOM     26  C   UNL     1      12.665   1.554   6.398  0.00  0.00    +0.074 C 
ATOM     27  N   UNL     1      13.652   1.374   5.864  0.00  0.00    -0.196 NA
ENDBRANCH  25  26
ENDBRANCH  24  25
ENDBRANCH  23  24
ENDBRANCH  16  18
ENDBRANCH  13  14
ENDBRANCH  12  13
ENDBRANCH   5  12
BRANCH   2  28
ATOM     28  C   UNL     1       3.402  -1.814  -2.315  0.00  0.00    -0.001 C 
BRANCH  28  29
ATOM     29  N   UNL     1       3.783  -0.820  -3.328  0.00  0.00    +0.384 N 
ATOM     30  C   UNL     1       5.216  -0.979  -3.686  0.00  0.00    -0.078 C 
ATOM     31  C   UNL     1       5.308  -0.311  -5.081  0.00  0.00    -0.020 C 
ATOM     32  C   UNL     1       3.972  -0.712  -5.746  0.00  0.00    -0.020 C 
ATOM     33  C   UNL     1       3.027  -1.050  -4.578  0.00  0.00    -0.078 C 
ATOM     34  H   UNL     1       3.611   0.112  -2.983  0.00  0.00    -0.081 HD
ENDBRANCH  28  29
ENDBRANCH   2  28
TORSDOF 10
