REMARK  Name = ZINC39671433
REMARK  6 active torsions:
REMARK  status: ('A' for Active; 'I' for Inactive)
REMARK    1  A    between atoms: C_6  and  C_11
REMARK    2  A    between atoms: C_11  and  N_12
REMARK    3  A    between atoms: C_13  and  C_15
REMARK    4  A    between atoms: C_26  and  C_28
REMARK    5  A    between atoms: C_31  and  O_34
REMARK    6  A    between atoms: O_34  and  C_35
REMARK                            x       y       z     vdW  Elec       q    Type
REMARK                         _______ _______ _______ _____ _____    ______ ____
ROOT
ATOM      1  C   UNL     1      -8.277   0.079   3.795  0.00  0.00    +0.100 C 
ATOM      2  C   UNL     1      -7.733   1.415   4.348  0.00  0.00    +0.121 C 
ATOM      3  N   UNL     1      -8.878   2.352   4.256  0.00  0.00    -0.296 N 
ATOM      4  C   UNL     1     -10.054   1.536   4.641  0.00  0.00    +0.115 C 
ATOM      5  C   UNL     1      -9.800   0.161   3.992  0.00  0.00    -0.004 C 
ATOM      6  C   UNL     1     -10.512   0.075   2.645  0.00  0.00    -0.010 C 
ATOM      7  C   UNL     1     -12.027   0.101   2.872  0.00  0.00    -0.082 C 
ATOM      8  N   UNL     1     -12.415  -1.028   3.727  0.00  0.00    +0.379 N 
ATOM      9  C   UNL     1     -11.798  -0.888   5.051  0.00  0.00    -0.082 C 
ATOM     10  C   UNL     1     -10.274  -0.955   4.917  0.00  0.00    -0.010 C 
ATOM     11  C   UNL     1      -8.854   3.653   3.903  0.00  0.00    +0.247 C 
ATOM     12  O   UNL     1      -7.826   4.152   3.491  0.00  0.00    -0.270 OA
ATOM     13  H   UNL     1     -13.419  -1.044   3.825  0.00  0.00    -0.086 HD
ATOM     14  H   UNL     1     -12.107  -1.890   3.303  0.00  0.00    -0.086 HD
ENDROOT
BRANCH  11  15
ATOM     15  C   UNL     1     -10.078   4.471   4.017  0.00  0.00    +0.037 A 
ATOM     16  C   UNL     1     -11.112   4.070   4.868  0.00  0.00    +0.016 A 
ATOM     17  C   UNL     1     -12.251   4.836   4.972  0.00  0.00    +0.047 A 
ATOM     18  C   UNL     1     -12.375   6.005   4.231  0.00  0.00    +0.130 A 
ATOM     19  C   UNL     1     -11.349   6.407   3.383  0.00  0.00    +0.047 A 
ATOM     20  C   UNL     1     -10.204   5.650   3.278  0.00  0.00    +0.016 A 
BRANCH  18  21
ATOM     21  O   UNL     1     -13.500   6.757   4.335  0.00  0.00    -0.406 OA
BRANCH  21  22
ATOM     22  C   UNL     1     -13.561   7.947   3.546  0.00  0.00    +0.575 C 
ATOM     23  F   UNL     1     -13.456   7.613   2.191  0.00  0.00    -0.133 F 
ATOM     24  F   UNL     1     -14.780   8.595   3.773  0.00  0.00    -0.133 F 
ATOM     25  F   UNL     1     -12.508   8.796   3.900  0.00  0.00    -0.133 F 
ENDBRANCH  21  22
ENDBRANCH  18  21
ENDBRANCH  11  15
BRANCH   1  27
ATOM     26  N   UNL     1      -7.880  -1.279   1.766  0.00  0.00    -0.309 N 
ATOM     27  C   UNL     1      -7.944  -0.057   2.331  0.00  0.00    +0.219 C 
ATOM     28  O   UNL     1      -7.733   0.933   1.663  0.00  0.00    -0.275 OA
ATOM     29  H   UNL     1      -8.048  -2.070   2.301  0.00  0.00    +0.149 HD
BRANCH  26  30
ATOM     30  C   UNL     1      -7.556  -1.411   0.343  0.00  0.00    +0.157 C 
BRANCH  30  36
ATOM     31  C   UNL     1      -6.962  -7.292  -1.103  0.00  0.00    +0.001 A 
ATOM     32  C   UNL     1      -8.335  -7.206  -1.291  0.00  0.00    +0.002 A 
ATOM     33  C   UNL     1      -8.999  -6.017  -1.082  0.00  0.00    +0.026 A 
ATOM     34  C   UNL     1      -8.290  -4.891  -0.679  0.00  0.00    +0.047 A 
ATOM     35  N   UNL     1      -8.653  -3.593  -0.396  0.00  0.00    -0.357 N 
ATOM     36  C   UNL     1      -7.548  -2.869  -0.037  0.00  0.00    +0.034 A 
ATOM     37  H   UNL     1      -9.556  -3.244  -0.444  0.00  0.00    +0.166 HD
ATOM     38  C   UNL     1      -6.457  -3.651  -0.073  0.00  0.00    +0.032 A 
ATOM     39  C   UNL     1      -6.899  -4.984  -0.489  0.00  0.00    -0.000 A 
ATOM     40  C   UNL     1      -6.247  -6.200  -0.701  0.00  0.00    +0.010 A 
ENDBRANCH  30  36
ENDBRANCH  26  30
ENDBRANCH   1  27
TORSDOF 6
