REMARK  Name = ZINC64208371
REMARK  8 active torsions:
REMARK  status: ('A' for Active; 'I' for Inactive)
REMARK    1  A    between atoms: C_4  and  C_7
REMARK    2  A    between atoms: C_7  and  O_8
REMARK    3  A    between atoms: O_8  and  C_9
REMARK    4  A    between atoms: N_11  and  C_12
REMARK    5  A    between atoms: C_12  and  C_14
REMARK    6  A    between atoms: C_12  and  C_24
REMARK    7  A    between atoms: C_14  and  C_15
REMARK    8  A    between atoms: C_30  and  C_33
REMARK                            x       y       z     vdW  Elec       q    Type
REMARK                         _______ _______ _______ _____ _____    ______ ____
ROOT
ATOM      1  C   UNL     1       7.039  -2.564   2.881  0.00  0.00    +0.166 C 
ENDROOT
BRANCH   1   2
ATOM      2  C   UNL     1       6.996  -3.170   4.260  0.00  0.00    +0.236 C 
ATOM      3  O   UNL     1       6.142  -2.823   5.048  0.00  0.00    -0.274 OA
ATOM      4  N   UNL     1       7.906  -4.097   4.618  0.00  0.00    -0.295 N 
ATOM      5  C   UNL     1       9.018  -4.452   3.722  0.00  0.00    +0.136 C 
ATOM      6  C   UNL     1      10.325  -4.375   4.520  0.00  0.00    +0.179 C 
ATOM      7  O   UNL     1      10.196  -5.154   5.711  0.00  0.00    -0.369 OA
ATOM      8  C   UNL     1       9.183  -4.691   6.607  0.00  0.00    +0.166 C 
ATOM      9  C   UNL     1       7.821  -4.780   5.918  0.00  0.00    +0.144 C 
BRANCH   8  10
ATOM     10  C   UNL     1       9.180  -5.545   7.848  0.00  0.00    -0.017 A 
ATOM     11  C   UNL     1       9.467  -6.894   7.760  0.00  0.00    +0.006 A 
ATOM     12  C   UNL     1       9.464  -7.678   8.899  0.00  0.00    +0.000 A 
ATOM     13  C   UNL     1       9.174  -7.112  10.126  0.00  0.00    +0.000 A 
ATOM     14  C   UNL     1       8.888  -5.763  10.215  0.00  0.00    +0.000 A 
ATOM     15  C   UNL     1       8.895  -4.978   9.077  0.00  0.00    +0.006 A 
ENDBRANCH   8  10
ENDBRANCH   1   2
BRANCH   1  18
ATOM     16  C   UNL     1       5.364  -2.029   1.195  0.00  0.00    +0.401 C 
ATOM     17  O   UNL     1       6.181  -2.305   0.338  0.00  0.00    -0.226 OA
ATOM     18  N   UNL     1       5.695  -2.127   2.497  0.00  0.00    -0.270 N 
ATOM     19  H   UNL     1       5.043  -1.907   3.181  0.00  0.00    +0.153 HD
BRANCH  16  20
ATOM     20  O   UNL     1       4.128  -1.627   0.842  0.00  0.00    -0.446 OA
BRANCH  20  21
ATOM     21  C   UNL     1       3.847  -1.547  -0.557  0.00  0.00    +0.269 C 
BRANCH  21  25
ATOM     22  C   UNL     1      -0.177  -0.231  -1.127  0.00  0.00    +0.000 A 
ATOM     23  C   UNL     1       0.847   0.693  -1.044  0.00  0.00    +0.000 A 
ATOM     24  C   UNL     1       2.149   0.268  -0.859  0.00  0.00    +0.007 A 
ATOM     25  C   UNL     1       2.427  -1.083  -0.757  0.00  0.00    -0.010 A 
ATOM     26  C   UNL     1       1.403  -2.007  -0.840  0.00  0.00    +0.007 A 
ATOM     27  C   UNL     1       0.101  -1.582  -1.026  0.00  0.00    +0.000 A 
ENDBRANCH  21  25
ENDBRANCH  20  21
ENDBRANCH  16  20
ENDBRANCH   1  18
BRANCH   1  28
ATOM     28  C   UNL     1       7.986  -1.363   2.881  0.00  0.00    +0.065 C 
BRANCH  28  29
ATOM     29  C   UNL     1       8.141  -0.845   1.474  0.00  0.00    -0.039 C 
ATOM     30  C   UNL     1       7.450   0.165   0.899  0.00  0.00    -0.001 A 
ATOM     31  C   UNL     1       6.386   1.049   1.391  0.00  0.00    +0.010 A 
ATOM     32  C   UNL     1       5.877   1.988   0.561  0.00  0.00    +0.001 A 
ATOM     33  C   UNL     1       6.339   2.138  -0.754  0.00  0.00    +0.002 A 
ATOM     34  C   UNL     1       7.312   1.363  -1.277  0.00  0.00    +0.026 A 
ATOM     35  C   UNL     1       7.920   0.344  -0.493  0.00  0.00    +0.043 A 
ATOM     36  N   UNL     1       8.865  -0.522  -0.768  0.00  0.00    -0.380 N 
ATOM     37  C   UNL     1       9.106  -1.345   0.423  0.00  0.00    +0.144 C 
ATOM     38  H   UNL     1       9.330  -0.603  -1.615  0.00  0.00    +0.160 HD
ENDBRANCH  28  29
ENDBRANCH   1  28
TORSDOF 8
