REMARK  Name = ZINC66262570
REMARK  3 active torsions:
REMARK  status: ('A' for Active; 'I' for Inactive)
REMARK    1  A    between atoms: C_6  and  S_7
REMARK    2  A    between atoms: S_7  and  C_8
REMARK    3  A    between atoms: C_8  and  C_9
REMARK                            x       y       z     vdW  Elec       q    Type
REMARK                         _______ _______ _______ _____ _____    ______ ____
ROOT
ATOM      1  C   UNL     1      -2.789   0.380   0.033  0.00  0.00    +0.150 C 
ENDROOT
BRANCH   1   2
ATOM      2  C   UNL     1      -4.152  -0.265   0.044  0.00  0.00    +0.146 A 
ATOM      3  N   UNL     1      -4.757  -0.546  -1.097  0.00  0.00    -0.199 NA
ATOM      4  C   UNL     1      -5.959  -1.116  -1.091  0.00  0.00    +0.217 A 
ATOM      5  N   UNL     1      -6.551  -1.402   0.063  0.00  0.00    -0.181 NA
ATOM      6  C   UNL     1      -5.940  -1.119   1.208  0.00  0.00    +0.217 A 
ATOM      7  N   UNL     1      -4.735  -0.553   1.194  0.00  0.00    -0.199 NA
ATOM      8  N   UNL     1      -6.551  -1.414   2.409  0.00  0.00    -0.327 N 
ATOM      9  N   UNL     1      -6.591  -1.408  -2.283  0.00  0.00    -0.327 N 
ATOM     10  H   UNL     1      -7.427  -1.830   2.418  0.00  0.00    +0.145 HD
ATOM     11  H   UNL     1      -6.104  -1.207   3.245  0.00  0.00    +0.145 HD
ATOM     12  H   UNL     1      -6.158  -1.198  -3.125  0.00  0.00    +0.145 HD
ATOM     13  H   UNL     1      -7.467  -1.824  -2.278  0.00  0.00    +0.145 HD
ENDBRANCH   1   2
BRANCH   1  14
ATOM     14  S   UNL     1      -1.511  -0.907   0.013  0.00  0.00    -0.116 S 
BRANCH  14  20
ATOM     15  C   UNL     1      -0.017   1.384   0.010  0.00  0.00    +0.065 A 
ATOM     16  C   UNL     1       1.174   2.094   0.002  0.00  0.00    +0.163 A 
ATOM     17  C   UNL     1       2.386   1.414  -0.011  0.00  0.00    +0.164 A 
ATOM     18  C   UNL     1       2.402   0.027  -0.021  0.00  0.00    +0.070 A 
ATOM     19  C   UNL     1       1.216  -0.681  -0.014  0.00  0.00    +0.058 A 
ATOM     20  C   UNL     1       0.002  -0.004   0.002  0.00  0.00    +0.030 A 
ATOM     21 CL   UNL     1       1.241  -2.417  -0.025  0.00  0.00    -0.082 Cl
ATOM     22  O   UNL     1       3.566   2.095  -0.011  0.00  0.00    -0.485 OA
ATOM     23  C   UNL     1       3.512   3.478  -0.378  0.00  0.00    +0.270 C 
ATOM     24  C   UNL     1       2.346   4.129   0.377  0.00  0.00    +0.270 C 
ATOM     25  O   UNL     1       1.139   3.455   0.006  0.00  0.00    -0.485 OA
ENDBRANCH  14  20
ENDBRANCH   1  14
TORSDOF 3
