REMARK  Name = ZINC26330380
REMARK  4 active torsions:
REMARK  status: ('A' for Active; 'I' for Inactive)
REMARK    1  A    between atoms: C_1  and  C_2
REMARK    2  A    between atoms: C_2  and  C_3
REMARK    3  A    between atoms: C_2  and  C_4
REMARK    4  A    between atoms: C_4  and  N_5
REMARK                            x       y       z     vdW  Elec       q    Type
REMARK                         _______ _______ _______ _____ _____    ______ ____
ROOT
ATOM      1  N   UNL     1       0.725  -0.562   1.144  0.00  0.00    -0.271 NA
ATOM      2  C   UNL     1       0.283   0.055   2.404  0.00  0.00    +0.192 C 
ATOM      3  N   UNL     1       1.036  -0.527   3.516  0.00  0.00    -0.314 N 
ATOM      4  C   UNL     1       1.503  -1.786   3.444  0.00  0.00    +0.132 C 
ATOM      5  S   UNL     1       2.368  -2.436   4.771  0.00  0.00    -0.019 S 
ATOM      6  N   UNL     1       1.306  -2.544   2.352  0.00  0.00    -0.314 N 
ATOM      7  C   UNL     1       0.561  -2.022   1.204  0.00  0.00    +0.192 C 
ATOM      8  H   UNL     1       1.224   0.066   4.423  0.00  0.00    +0.149 HD
ATOM      9  H   UNL     1       1.710  -3.567   2.326  0.00  0.00    +0.149 HD
ENDROOT
BRANCH   1  10
ATOM     10  C   UNL     1      -0.001   0.002  -0.002  0.00  0.00    +0.090 C 
BRANCH  10  12
ATOM     11  C   UNL     1      -0.178   0.017  -2.494  0.00  0.00    +0.008 C 
ATOM     12  C   UNL     1       0.638  -0.489  -1.302  0.00  0.00    -0.003 C 
ATOM     13  C   UNL     1       2.069   0.043  -1.401  0.00  0.00    +0.008 C 
ENDBRANCH  10  12
ENDBRANCH   1  10
TORSDOF 2
