REMARK  Name = ZINC32800737
REMARK  3 active torsions:
REMARK  status: ('A' for Active; 'I' for Inactive)
REMARK    1  A    between atoms: C_4  and  C_7
REMARK    2  A    between atoms: C_10  and  N_13
REMARK    3  A    between atoms: C_14  and  C_16
REMARK                            x       y       z     vdW  Elec       q    Type
REMARK                         _______ _______ _______ _____ _____    ______ ____
ROOT
ATOM      1  N   UNL     1       0.738  -1.962  -1.265  0.00  0.00    -0.307 N 
ATOM      2  C   UNL     1       0.838  -2.628  -2.432  0.00  0.00    +0.265 C 
ATOM      3  O   UNL     1       0.911  -2.014  -3.479  0.00  0.00    -0.268 OA
ATOM      4  H   UNL     1       0.672  -2.518  -0.318  0.00  0.00    +0.149 HD
ENDROOT
BRANCH   2   5
ATOM      5  C   UNL     1       0.858  -4.105  -2.440  0.00  0.00    +0.153 A 
ATOM      6  C   UNL     1       0.967  -4.841  -3.710  0.00  0.00    +0.020 A 
ATOM      7  C   UNL     1       1.054  -4.206  -4.944  0.00  0.00    +0.011 A 
ATOM      8  C   UNL     1       1.154  -4.965  -6.091  0.00  0.00    +0.001 A 
ATOM      9  C   UNL     1       1.168  -6.353  -6.026  0.00  0.00    +0.001 A 
ATOM     10  C   UNL     1       1.082  -7.002  -4.812  0.00  0.00    +0.014 A 
ATOM     11  C   UNL     1       0.980  -6.254  -3.644  0.00  0.00    +0.050 A 
ATOM     12  C   UNL     1       0.885  -6.864  -2.311  0.00  0.00    +0.272 A 
ATOM     13  O   UNL     1       0.891  -8.074  -2.178  0.00  0.00    -0.266 OA
ATOM     14  N   UNL     1       0.791  -6.052  -1.238  0.00  0.00    -0.242 N 
ATOM     15  H   UNL     1       0.713  -6.482  -0.228  0.00  0.00    +0.192 HD
ATOM     16  N   UNL     1       0.784  -4.775  -1.316  0.00  0.00    -0.166 NA
ENDBRANCH   2   5
BRANCH   1  20
ATOM     17  C   UNL     1       1.417   2.055  -0.000  0.00  0.00    +0.019 C 
ATOM     18  C   UNL     1      -0.019   1.526   0.010  0.00  0.00    +0.010 C 
ATOM     19  C   UNL     1       0.002  -0.004   0.002  0.00  0.00    +0.023 C 
ATOM     20  C   UNL     1       0.718  -0.497  -1.257  0.00  0.00    +0.073 C 
ATOM     21  C   UNL     1       2.154   0.032  -1.268  0.00  0.00    +0.023 C 
ATOM     22  C   UNL     1       2.133   1.562  -1.259  0.00  0.00    +0.010 C 
BRANCH  17  26
ATOM     23  C   UNL     1       1.359   6.327   0.023  0.00  0.00    +0.000 A 
ATOM     24  C   UNL     1       1.976   5.638   1.050  0.00  0.00    +0.000 A 
ATOM     25  C   UNL     1       1.995   4.256   1.043  0.00  0.00    +0.004 A 
ATOM     26  C   UNL     1       1.396   3.562   0.008  0.00  0.00    -0.044 A 
ATOM     27  C   UNL     1       0.783   4.251  -1.022  0.00  0.00    +0.004 A 
ATOM     28  C   UNL     1       0.761   5.633  -1.012  0.00  0.00    +0.000 A 
ENDBRANCH  17  26
ENDBRANCH   1  20
TORSDOF 3
