REMARK  Name = ZINC07947945
REMARK  5 active torsions:
REMARK  status: ('A' for Active; 'I' for Inactive)
REMARK    1  A    between atoms: C_4  and  C_7
REMARK    2  A    between atoms: C_9  and  C_13
REMARK    3  A    between atoms: N_15  and  N_16
REMARK    4  A    between atoms: C_17  and  C_19
REMARK    5  A    between atoms: C_22  and  C_25
REMARK                            x       y       z     vdW  Elec       q    Type
REMARK                         _______ _______ _______ _____ _____    ______ ____
ROOT
ATOM      1  C   UNL     1       2.495   1.546  -0.013  0.00  0.00    +0.278 C 
ATOM      2  O   UNL     1       2.808   0.370  -0.023  0.00  0.00    -0.267 OA
ATOM      3  N   UNL     1       3.450   2.497  -0.018  0.00  0.00    -0.229 N 
ATOM      4  H   UNL     1       3.201   3.434  -0.010  0.00  0.00    +0.173 HD
ENDROOT
BRANCH   1   7
ATOM      5  C   UNL     1      -1.142   1.914   0.017  0.00  0.00    +0.093 A 
ATOM      6  C   UNL     1      -0.013   1.076   0.008  0.00  0.00    +0.062 A 
ATOM      7  C   UNL     1       1.074   1.929   0.002  0.00  0.00    +0.122 A 
ATOM      8  N   UNL     1       0.570   3.199   0.013  0.00  0.00    -0.272 N 
ATOM      9  H   UNL     1       1.118   4.035   0.012  0.00  0.00    +0.189 HD
ATOM     10  N   UNL     1      -0.714   3.159   0.025  0.00  0.00    -0.173 NA
BRANCH   5  14
ATOM     11  C   UNL     1      -5.205   0.655   0.025  0.00  0.00    +0.000 A 
ATOM     12  C   UNL     1      -4.901   2.005   0.032  0.00  0.00    +0.001 A 
ATOM     13  C   UNL     1      -3.585   2.419   0.029  0.00  0.00    +0.010 A 
ATOM     14  C   UNL     1      -2.560   1.475   0.020  0.00  0.00    +0.002 A 
ATOM     15  C   UNL     1      -2.872   0.117   0.008  0.00  0.00    +0.010 A 
ATOM     16  C   UNL     1      -4.191  -0.286   0.016  0.00  0.00    +0.001 A 
ENDBRANCH   5  14
ENDBRANCH   1   7
BRANCH   3  17
ATOM     17  N   UNL     1       4.803   2.132  -0.032  0.00  0.00    -0.230 N 
ATOM     18  C   UNL     1       5.757   3.083  -0.036  0.00  0.00    +0.260 C 
ATOM     19  O   UNL     1       5.445   4.258  -0.027  0.00  0.00    -0.269 OA
ATOM     20  H   UNL     1       5.052   1.195  -0.040  0.00  0.00    +0.173 HD
BRANCH  18  21
ATOM     21  C   UNL     1       7.185   2.698  -0.052  0.00  0.00    +0.038 A 
ATOM     22  C   UNL     1       7.547   1.350  -0.057  0.00  0.00    +0.013 A 
ATOM     23  C   UNL     1       8.880   0.998  -0.078  0.00  0.00    +0.006 A 
ATOM     24  C   UNL     1       9.858   1.977  -0.082  0.00  0.00    -0.025 A 
ATOM     25  C   UNL     1       9.506   3.315  -0.071  0.00  0.00    +0.006 A 
ATOM     26  C   UNL     1       8.176   3.681  -0.056  0.00  0.00    +0.013 A 
BRANCH  24  27
ATOM     27  C   UNL     1      11.313   1.585  -0.098  0.00  0.00    +0.133 C 
ATOM     28  S   UNL     1      11.680   0.489  -1.528  0.00  0.00    -0.141 S 
ATOM     29  C   UNL     1      12.836  -0.743  -0.799  0.00  0.00    +0.081 C 
ATOM     30  C   UNL     1      12.249  -1.075   0.595  0.00  0.00    +0.081 C 
ATOM     31  S   UNL     1      11.716   0.510   1.334  0.00  0.00    -0.141 S 
ENDBRANCH  24  27
ENDBRANCH  18  21
ENDBRANCH   3  17
TORSDOF 5
