REMARK  Name = ZINC33268856
REMARK  12 active torsions:
REMARK  status: ('A' for Active; 'I' for Inactive)
REMARK    1  A    between atoms: C_1  and  C_2
REMARK    2  A    between atoms: C_8  and  C_12
REMARK    3  A    between atoms: C_12  and  N_13
REMARK    4  A    between atoms: N_13  and  C_14
REMARK    5  A    between atoms: N_13  and  C_18
REMARK    6  A    between atoms: C_14  and  C_15
REMARK    7  A    between atoms: C_15  and  O_16
REMARK    8  A    between atoms: O_16  and  C_17
REMARK    9  A    between atoms: C_18  and  C_19
REMARK   10  A    between atoms: C_22  and  C_25
REMARK   11  A    between atoms: C_25  and  C_26
REMARK   12  A    between atoms: C_25  and  C_27
REMARK                            x       y       z     vdW  Elec       q    Type
REMARK                         _______ _______ _______ _____ _____    ______ ____
ROOT
ATOM      1  N   UNL     1       0.893  -6.433  -1.484  0.00  0.00    -0.290 NA
ENDROOT
BRANCH   1   2
ATOM      2  C   UNL     1       0.673  -5.760  -0.198  0.00  0.00    +0.138 C 
BRANCH   2  10
ATOM      3  C   UNL     1       0.911   1.907  -1.775  0.00  0.00    +0.053 C 
ATOM      4  C   UNL     1       0.812   0.436  -1.462  0.00  0.00    +0.007 A 
ATOM      5  C   UNL     1      -0.262  -0.284  -1.137  0.00  0.00    +0.107 A 
ATOM      6  N   UNL     1      -0.163  -1.631  -0.884  0.00  0.00    -0.263 N 
ATOM      7  C   UNL     1      -1.182  -2.475  -0.544  0.00  0.00    +0.259 A 
ATOM      8  O   UNL     1      -2.321  -2.048  -0.439  0.00  0.00    -0.267 OA
ATOM      9  C   UNL     1      -0.919  -3.827  -0.318  0.00  0.00    +0.093 A 
ATOM     10  C   UNL     1       0.368  -4.303  -0.438  0.00  0.00    +0.037 A 
ATOM     11  N   UNL     1       1.338  -3.455  -0.771  0.00  0.00    -0.337 N 
ATOM     12  C   UNL     1       1.084  -2.188  -0.982  0.00  0.00    +0.158 A 
ATOM     13  S   UNL     1       2.101  -0.800  -1.438  0.00  0.00    -0.056 S 
ATOM     14  H   UNL     1       2.248  -3.781  -0.859  0.00  0.00    +0.168 HD
ENDBRANCH   2  10
ENDBRANCH   1   2
BRANCH   1  15
ATOM     15  C   UNL     1       2.224  -6.122  -2.021  0.00  0.00    +0.113 C 
BRANCH  15  16
ATOM     16  C   UNL     1       2.293  -6.542  -3.490  0.00  0.00    +0.174 C 
BRANCH  16  17
ATOM     17  O   UNL     1       1.341  -5.789  -4.245  0.00  0.00    -0.382 OA
ATOM     18  C   UNL     1       1.323  -6.106  -5.639  0.00  0.00    +0.194 C 
ENDBRANCH  16  17
ENDBRANCH  15  16
ENDBRANCH   1  15
BRANCH   1  19
ATOM     19  C   UNL     1       0.702  -7.884  -1.358  0.00  0.00    +0.120 C 
BRANCH  19  20
ATOM     20  C   UNL     1      -0.771  -8.193  -1.288  0.00  0.00    -0.033 A 
ATOM     21  C   UNL     1      -1.387  -8.351  -0.060  0.00  0.00    +0.005 A 
ATOM     22  C   UNL     1      -2.738  -8.634   0.004  0.00  0.00    +0.004 A 
ATOM     23  C   UNL     1      -3.474  -8.759  -1.159  0.00  0.00    -0.045 A 
ATOM     24  C   UNL     1      -2.859  -8.601  -2.387  0.00  0.00    +0.004 A 
ATOM     25  C   UNL     1      -1.508  -8.313  -2.451  0.00  0.00    +0.005 A 
BRANCH  23  26
ATOM     26  C   UNL     1      -4.947  -9.069  -1.089  0.00  0.00    +0.013 C 
ATOM     27  C   UNL     1      -5.738  -7.941  -1.756  0.00  0.00    +0.012 C 
ATOM     28  C   UNL     1      -5.227 -10.386  -1.816  0.00  0.00    +0.012 C 
ENDBRANCH  23  26
ENDBRANCH  19  20
ENDBRANCH   1  19
TORSDOF 8
