REMARK  Name = ZINC03171394
REMARK  10 active torsions:
REMARK  status: ('A' for Active; 'I' for Inactive)
REMARK    1  A    between atoms: C_1  and  C_2
REMARK    2  A    between atoms: C_2  and  O_3
REMARK    3  A    between atoms: O_3  and  C_4
REMARK    4  A    between atoms: C_9  and  N_10
REMARK    5  A    between atoms: C_15  and  C_16
REMARK    6  A    between atoms: C_15  and  N_58
REMARK    7  A    between atoms: C_16  and  C_18
REMARK    8  A    between atoms: C_18  and  C_20
REMARK    9  A    between atoms: C_18  and  C_22
REMARK   10  A    between atoms: C_24  and  C_27
REMARK                            x       y       z     vdW  Elec       q    Type
REMARK                         _______ _______ _______ _____ _____    ______ ____
ROOT
ATOM      1  C   UNL     1      -0.380  -1.868  -1.784  0.00  0.00    -0.001 C 
ENDROOT
BRANCH   1   7
ATOM      2  N   UNL     1      -3.006  -3.628  -4.588  0.00  0.00    -0.331 N 
ATOM      3  C   UNL     1      -1.586  -3.515  -4.950  0.00  0.00    +0.086 C 
ATOM      4  C   UNL     1      -0.751  -3.328  -3.681  0.00  0.00    -0.059 C 
ATOM      5  C   UNL     1      -2.627  -2.238  -2.608  0.00  0.00    -0.059 C 
ATOM      6  C   UNL     1      -3.462  -2.425  -3.877  0.00  0.00    +0.086 C 
ATOM      7  N   UNL     1      -1.206  -2.104  -2.989  0.00  0.00    +0.386 N 
ATOM      8  H   UNL     1      -1.104  -1.304  -3.624  0.00  0.00    -0.081 HD
BRANCH   2  14
ATOM      9  C   UNL     1      -4.563  -5.032  -5.795  0.00  0.00    +0.141 A 
ATOM     10  C   UNL     1      -5.341  -5.269  -6.916  0.00  0.00    +0.047 A 
ATOM     11  C   UNL     1      -5.354  -4.356  -7.955  0.00  0.00    +0.004 A 
ATOM     12  C   UNL     1      -4.592  -3.205  -7.879  0.00  0.00    +0.002 A 
ATOM     13  C   UNL     1      -3.816  -2.959  -6.762  0.00  0.00    +0.027 A 
ATOM     14  C   UNL     1      -3.794  -3.873  -5.718  0.00  0.00    +0.072 A 
BRANCH   9  15
ATOM     15  O   UNL     1      -4.550  -5.928  -4.773  0.00  0.00    -0.490 OA
BRANCH  15  17
ATOM     16  C   UNL     1      -5.220  -7.978  -3.680  0.00  0.00    +0.048 C 
ATOM     17  C   UNL     1      -5.363  -7.094  -4.921  0.00  0.00    +0.226 C 
ENDBRANCH  15  17
ENDBRANCH   9  15
ENDBRANCH   2  14
ENDBRANCH   1   7
BRANCH   1  18
ATOM     18  C   UNL     1      -0.713  -0.509  -1.224  0.00  0.00    +0.140 C 
ATOM     19  O   UNL     1      -1.553   0.175  -1.758  0.00  0.00    -0.298 OA
BRANCH  18  20
ATOM     20  C   UNL     1       0.002  -0.004   0.002  0.00  0.00    +0.210 C 
BRANCH  20  21
ATOM     21  C   UNL     1      -0.018   1.503   0.010  0.00  0.00    +0.103 A 
ATOM     22  N   UNL     1       0.992   2.337   0.005  0.00  0.00    -0.242 NA
ATOM     23  C   UNL     1       0.806   3.648   0.013  0.00  0.00    +0.078 A 
ATOM     24  C   UNL     1      -0.482   4.112   0.028  0.00  0.00    +0.075 A 
ATOM     25  S   UNL     1      -1.387   2.571   0.021  0.00  0.00    -0.078 S 
BRANCH  23  26
ATOM     26  C   UNL     1       1.957   4.584   0.007  0.00  0.00    +0.001 A 
ATOM     27  C   UNL     1       3.256   4.094  -0.107  0.00  0.00    +0.011 A 
ATOM     28  C   UNL     1       4.323   4.970  -0.118  0.00  0.00    +0.016 A 
ATOM     29  C   UNL     1       4.105   6.332  -0.005  0.00  0.00    +0.018 A 
ATOM     30  C   UNL     1       2.816   6.823   0.115  0.00  0.00    +0.016 A 
ATOM     31  C   UNL     1       1.742   5.957   0.121  0.00  0.00    +0.011 A 
ATOM     32 BR   UNL     1       5.572   7.525  -0.012  0.00  0.00    -0.050 Br
ENDBRANCH  23  26
ENDBRANCH  20  21
BRANCH  20  33
ATOM     33  C   UNL     1      -0.674  -0.511   1.208  0.00  0.00    +0.080 C 
ATOM     34  N   UNL     1      -1.195  -0.901   2.138  0.00  0.00    -0.195 NA
ENDBRANCH  20  33
ENDBRANCH  18  20
ENDBRANCH   1  18
TORSDOF 9
