REMARK  Name = ZINC12483933
REMARK  13 active torsions:
REMARK  status: ('A' for Active; 'I' for Inactive)
REMARK    1  A    between atoms: C_1  and  C_2
REMARK    2  A    between atoms: C_2  and  C_3
REMARK    3  A    between atoms: C_3  and  C_4
REMARK    4  A    between atoms: C_3  and  C_5
REMARK    5  A    between atoms: C_3  and  N_6
REMARK    6  A    between atoms: C_7  and  C_9
REMARK    7  A    between atoms: C_9  and  C_11
REMARK    8  A    between atoms: C_9  and  N_16
REMARK    9  A    between atoms: N_16  and  C_17
REMARK   10  A    between atoms: C_21  and  C_23
REMARK   11  A    between atoms: C_27  and  C_29
REMARK   12  A    between atoms: C_29  and  N_30
REMARK   13  A    between atoms: C_31  and  C_33
REMARK                            x       y       z     vdW  Elec       q    Type
REMARK                         _______ _______ _______ _____ _____    ______ ____
ROOT
ATOM      1  N   UNL     1      -0.092   5.277  -0.385  0.00  0.00    -0.251 N 
ATOM      2  C   UNL     1      -1.242   5.900  -0.058  0.00  0.00    +0.238 C 
ATOM      3  O   UNL     1      -1.232   7.078   0.231  0.00  0.00    -0.273 OA
ENDROOT
BRANCH   1   4
ATOM      4  C   UNL     1      -0.105   3.920  -0.727  0.00  0.00    +0.038 A 
ATOM      5  C   UNL     1       0.919   3.388  -1.500  0.00  0.00    +0.023 A 
ATOM      6  C   UNL     1       0.903   2.049  -1.836  0.00  0.00    +0.002 A 
ATOM      7  C   UNL     1      -0.131   1.238  -1.405  0.00  0.00    +0.012 A 
ATOM      8  C   UNL     1      -1.154   1.766  -0.640  0.00  0.00    +0.057 A 
ATOM      9  C   UNL     1      -1.142   3.103  -0.296  0.00  0.00    +0.036 A 
BRANCH   8  10
ATOM     10  C   UNL     1      -2.282   0.880  -0.176  0.00  0.00    +0.417 C 
ATOM     11  F   UNL     1      -2.072  -0.423  -0.641  0.00  0.00    -0.166 F 
ATOM     12  F   UNL     1      -2.326   0.874   1.222  0.00  0.00    -0.166 F 
ATOM     13  F   UNL     1      -3.494   1.365  -0.679  0.00  0.00    -0.166 F 
ENDBRANCH   8  10
ENDBRANCH   1   4
BRANCH   1  14
ATOM     14  C   UNL     1       1.170   6.020  -0.382  0.00  0.00    +0.233 C 
BRANCH  14  15
ATOM     15  C   UNL     1       2.123   5.387   0.600  0.00  0.00    +0.135 A 
ATOM     16  C   UNL     1       2.955   6.048   1.425  0.00  0.00    +0.047 A 
ATOM     17  C   UNL     1       3.658   5.070   2.166  0.00  0.00    +0.041 A 
ATOM     18  C   UNL     1       3.219   3.871   1.744  0.00  0.00    +0.195 A 
ATOM     19  O   UNL     1       2.289   4.069   0.795  0.00  0.00    -0.465 OA
ENDBRANCH  14  15
BRANCH  14  21
ATOM     20  N   UNL     1       2.947   6.609  -1.999  0.00  0.00    -0.308 N 
ATOM     21  C   UNL     1       1.775   5.987  -1.762  0.00  0.00    +0.242 C 
ATOM     22  O   UNL     1       1.208   5.400  -2.659  0.00  0.00    -0.273 OA
ATOM     23  H   UNL     1       3.401   7.078  -1.281  0.00  0.00    +0.149 HD
BRANCH  20  24
ATOM     24  C   UNL     1       3.536   6.577  -3.340  0.00  0.00    +0.029 C 
ATOM     25  C   UNL     1       3.799   5.125  -3.747  0.00  0.00    +0.031 C 
ATOM     26  C   UNL     1       2.568   7.219  -4.337  0.00  0.00    +0.031 C 
BRANCH  24  28
ATOM     27  C   UNL     1       5.469   7.319  -4.738  0.00  0.00    +0.006 C 
ATOM     28  C   UNL     1       4.854   7.353  -3.337  0.00  0.00    +0.022 C 
ENDBRANCH  24  28
ENDBRANCH  20  24
ENDBRANCH  14  21
ENDBRANCH   1  14
BRANCH   2  29
ATOM     29  C   UNL     1      -2.539   5.133  -0.050  0.00  0.00    +0.201 C 
BRANCH  29  30
ATOM     30  N   UNL     1      -3.654   6.057  -0.274  0.00  0.00    -0.302 N 
ATOM     31  C   UNL     1      -4.918   5.591  -0.308  0.00  0.00    +0.251 C 
ATOM     32  O   UNL     1      -5.134   4.404  -0.151  0.00  0.00    -0.270 OA
ATOM     33  H   UNL     1      -3.482   7.003  -0.399  0.00  0.00    +0.150 HD
BRANCH  31  34
ATOM     34  C   UNL     1      -6.034   6.516  -0.532  0.00  0.00    +0.074 A 
ATOM     35  C   UNL     1      -7.391   6.245  -0.608  0.00  0.00    +0.021 A 
ATOM     36  C   UNL     1      -8.229   7.309  -0.826  0.00  0.00    +0.008 A 
ATOM     37  C   UNL     1      -7.700   8.553  -0.966  0.00  0.00    +0.046 A 
ATOM     38  S   UNL     1      -5.997   8.281  -0.789  0.00  0.00    -0.092 S 
ENDBRANCH  31  34
ENDBRANCH  29  30
ENDBRANCH   2  29
TORSDOF 10
