REMARK  Name = ZINC23552196
REMARK  9 active torsions:
REMARK  status: ('A' for Active; 'I' for Inactive)
REMARK    1  A    between atoms: C_1  and  C_2
REMARK    2  A    between atoms: C_5  and  S_21
REMARK    3  A    between atoms: C_7  and  N_8
REMARK    4  A    between atoms: C_9  and  C_11
REMARK    5  A    between atoms: C_11  and  O_12
REMARK    6  A    between atoms: O_12  and  C_13
REMARK    7  A    between atoms: C_13  and  C_15
REMARK    8  A    between atoms: C_18  and  C_20
REMARK    9  A    between atoms: S_21  and  N_24
REMARK                            x       y       z     vdW  Elec       q    Type
REMARK                         _______ _______ _______ _____ _____    ______ ____
ROOT
ATOM      1  C   UNL     1       5.325  -2.169  -4.055  0.00  0.00    +0.045 C 
ATOM      2  C   UNL     1       4.853  -1.829  -2.664  0.00  0.00    -0.029 A 
ATOM      3  C   UNL     1       3.962  -2.661  -2.014  0.00  0.00    +0.007 A 
ATOM      4  C   UNL     1       3.533  -2.352  -0.737  0.00  0.00    +0.029 A 
ATOM      5  C   UNL     1       3.985  -1.205  -0.110  0.00  0.00    +0.107 A 
ATOM      6  C   UNL     1       4.875  -0.370  -0.755  0.00  0.00    +0.052 A 
ATOM      7  C   UNL     1       5.313  -0.679  -2.036  0.00  0.00    +0.038 A 
ENDROOT
BRANCH   7   8
ATOM      8  N   UNL     1       6.215   0.165  -2.692  0.00  0.00    -0.282 N 
ATOM      9  C   UNL     1       6.150   1.498  -2.503  0.00  0.00    +0.255 C 
ATOM     10  O   UNL     1       5.364   1.959  -1.702  0.00  0.00    -0.272 OA
ATOM     11  H   UNL     1       6.977  -0.258  -3.363  0.00  0.00    +0.155 HD
BRANCH   9  12
ATOM     12  C   UNL     1       7.053   2.416  -3.286  0.00  0.00    +0.328 C 
BRANCH  12  13
ATOM     13  O   UNL     1       6.793   3.792  -2.904  0.00  0.00    -0.451 OA
BRANCH  13  14
ATOM     14  C   UNL     1       7.524   4.746  -3.517  0.00  0.00    +0.346 C 
ATOM     15  O   UNL     1       8.356   4.435  -4.348  0.00  0.00    -0.244 OA
BRANCH  14  16
ATOM     16  C   UNL     1       7.316   6.156  -3.182  0.00  0.00    +0.096 A 
ATOM     17  C   UNL     1       7.954   7.278  -3.689  0.00  0.00    +0.023 A 
ATOM     18  C   UNL     1       7.561   8.497  -3.195  0.00  0.00    +0.012 A 
ATOM     19  C   UNL     1       6.585   8.546  -2.250  0.00  0.00    -0.012 A 
ATOM     20  S   UNL     1       6.171   6.879  -2.020  0.00  0.00    -0.087 S 
ATOM     21  C   UNL     1       6.001   9.758  -1.571  0.00  0.00    +0.051 C 
ENDBRANCH  14  16
ENDBRANCH  13  14
ENDBRANCH  12  13
ENDBRANCH   9  12
ENDBRANCH   7   8
BRANCH   5  22
ATOM     22  S   UNL     1       3.430  -0.814   1.516  0.00  0.00    +0.061 S 
ATOM     23  O   UNL     1       4.423   0.022   2.094  0.00  0.00    -0.153 OA
ATOM     24  O   UNL     1       3.022  -2.037   2.112  0.00  0.00    -0.153 OA
BRANCH  22  25
ATOM     25  N   UNL     1       2.066   0.113   1.357  0.00  0.00    -0.177 NA
ATOM     26  C   UNL     1       0.739  -0.513   1.295  0.00  0.00    +0.109 C 
ATOM     27  C   UNL     1       0.018  -0.017   0.038  0.00  0.00    +0.017 C 
ATOM     28  C   UNL     1      -0.008   1.514   0.040  0.00  0.00    +0.003 C 
ATOM     29  C   UNL     1       1.425   2.050   0.019  0.00  0.00    +0.017 C 
ATOM     30  C   UNL     1       2.161   1.577   1.277  0.00  0.00    +0.109 C 
ENDBRANCH  22  25
ENDBRANCH   5  22
TORSDOF 7
