REMARK  Name = ZINC11126852
REMARK  7 active torsions:
REMARK  status: ('A' for Active; 'I' for Inactive)
REMARK    1  A    between atoms: C_1  and  C_2
REMARK    2  A    between atoms: C_5  and  S_8
REMARK    3  A    between atoms: S_8  and  N_11
REMARK    4  A    between atoms: C_14  and  C_17
REMARK    5  A    between atoms: N_19  and  C_20
REMARK    6  A    between atoms: C_21  and  C_31
REMARK    7  A    between atoms: C_26  and  C_30
REMARK                            x       y       z     vdW  Elec       q    Type
REMARK                         _______ _______ _______ _____ _____    ______ ____
ROOT
ATOM      1  N   UNL     1      -0.020   1.652   0.011  0.00  0.00    -0.177 NA
ATOM      2  C   UNL     1      -1.295   2.383   0.021  0.00  0.00    +0.110 C 
ATOM      3  C   UNL     1      -1.283   3.369   1.199  0.00  0.00    +0.030 C 
ATOM      4  C   UNL     1      -0.046   4.264   1.096  0.00  0.00    +0.078 C 
ATOM      5  C   UNL     1       1.217   3.403   1.176  0.00  0.00    +0.030 C 
ATOM      6  C   UNL     1       1.234   2.417   0.003  0.00  0.00    +0.110 C 
ENDROOT
BRANCH   4   7
ATOM      7  C   UNL     1      -0.049   5.257   2.229  0.00  0.00    +0.221 C 
ATOM      8  O   UNL     1       0.868   5.275   3.022  0.00  0.00    -0.275 OA
ATOM      9  N   UNL     1      -1.071   6.126   2.360  0.00  0.00    -0.279 N 
ATOM     10  H   UNL     1      -1.804   6.112   1.726  0.00  0.00    +0.155 HD
BRANCH   9  11
ATOM     11  C   UNL     1      -1.074   7.041   3.404  0.00  0.00    +0.090 A 
ATOM     12  C   UNL     1      -2.023   8.008   3.700  0.00  0.00    +0.084 A 
ATOM     13  C   UNL     1      -1.790   8.845   4.863  0.00  0.00    -0.018 A 
ATOM     14  C   UNL     1      -0.646   8.590   5.536  0.00  0.00    -0.004 A 
ATOM     15  S   UNL     1       0.111   7.258   4.649  0.00  0.00    -0.077 S 
ATOM     16  C   UNL     1      -0.143   9.289   6.761  0.00  0.00    +0.046 C 
ATOM     17  C   UNL     1      -1.301  10.096   7.367  0.00  0.00    -0.009 C 
ATOM     18  C   UNL     1      -1.982  10.894   6.252  0.00  0.00    +0.008 C 
ATOM     19  C   UNL     1      -2.740   9.946   5.321  0.00  0.00    +0.037 C 
ATOM     20  C   UNL     1      -0.758  11.056   8.426  0.00  0.00    +0.008 C 
BRANCH  12  21
ATOM     21  C   UNL     1      -3.192   8.173   2.889  0.00  0.00    +0.102 C 
ATOM     22  N   UNL     1      -4.120   8.303   2.246  0.00  0.00    -0.191 NA
ENDBRANCH  12  21
ENDBRANCH   9  11
ENDBRANCH   4   7
BRANCH   1  23
ATOM     23  S   UNL     1       0.002  -0.004   0.002  0.00  0.00    +0.061 S 
ATOM     24  O   UNL     1      -1.243  -0.424  -0.539  0.00  0.00    -0.153 OA
ATOM     25  O   UNL     1       1.248  -0.390  -0.563  0.00  0.00    -0.153 OA
BRANCH  23  30
ATOM     26  C   UNL     1       0.081  -1.819   5.756  0.00  0.00    +0.044 C 
ATOM     27  C   UNL     1       0.061  -1.366   4.319  0.00  0.00    -0.050 A 
ATOM     28  C   UNL     1      -1.145  -1.174   3.671  0.00  0.00    +0.005 A 
ATOM     29  C   UNL     1      -1.163  -0.758   2.353  0.00  0.00    +0.029 A 
ATOM     30  C   UNL     1       0.025  -0.534   1.682  0.00  0.00    +0.105 A 
ATOM     31  C   UNL     1       1.231  -0.731   2.328  0.00  0.00    +0.029 A 
ATOM     32  C   UNL     1       1.249  -1.143   3.648  0.00  0.00    +0.005 A 
ENDBRANCH  23  30
ENDBRANCH   1  23
TORSDOF 5
