REMARK  Name = ZINC50322316
REMARK  9 active torsions:
REMARK  status: ('A' for Active; 'I' for Inactive)
REMARK    1  A    between atoms: C_1  and  C_2
REMARK    2  A    between atoms: C_2  and  C_3
REMARK    3  A    between atoms: C_3  and  C_4
REMARK    4  A    between atoms: C_5  and  N_20
REMARK    5  A    between atoms: C_6  and  C_10
REMARK    6  A    between atoms: N_12  and  C_13
REMARK    7  A    between atoms: N_12  and  C_14
REMARK    8  A    between atoms: C_14  and  C_16
REMARK    9  A    between atoms: C_14  and  C_17
REMARK                            x       y       z     vdW  Elec       q    Type
REMARK                         _______ _______ _______ _____ _____    ______ ____
ROOT
ATOM      1  C   UNL     1      -0.424  -2.159  -0.090  0.00  0.00    +0.057 A 
ATOM      2  C   UNL     1      -0.530  -2.944   1.014  0.00  0.00    +0.078 A 
ATOM      3  C   UNL     1      -0.815  -4.246   0.526  0.00  0.00    +0.168 A 
ATOM      4  N   UNL     1      -0.861  -4.164  -0.790  0.00  0.00    -0.167 NA
ATOM      5  N   UNL     1      -0.641  -2.957  -1.169  0.00  0.00    -0.279 N 
ATOM      6  H   UNL     1      -0.630  -2.658  -2.091  0.00  0.00    +0.189 HD
ENDROOT
BRANCH   3   7
ATOM      7  C   UNL     1      -1.020  -5.460   1.337  0.00  0.00    +0.269 C 
ATOM      8  O   UNL     1      -0.860  -5.421   2.542  0.00  0.00    -0.268 OA
ATOM      9  N   UNL     1      -1.384  -6.614   0.743  0.00  0.00    -0.296 N 
ATOM     10  C   UNL     1      -1.519  -6.676  -0.715  0.00  0.00    +0.132 C 
BRANCH   9  11
ATOM     11  C   UNL     1      -1.646  -7.805   1.554  0.00  0.00    +0.076 C 
ATOM     12  C   UNL     1      -3.088  -8.264   1.336  0.00  0.00    +0.028 C 
BRANCH  11  13
ATOM     13  C   UNL     1      -0.686  -8.924   1.142  0.00  0.00    +0.009 C 
ATOM     14  C   UNL     1      -1.283 -10.140   0.431  0.00  0.00    +0.005 C 
ATOM     15  C   UNL     1      -0.801 -10.260   1.878  0.00  0.00    +0.005 C 
ENDBRANCH  11  13
ENDBRANCH   9  11
ENDBRANCH   3   7
BRANCH   2  16
ATOM     16  N   UNL     1      -0.387  -2.551   2.353  0.00  0.00    -0.355 N 
ATOM     17  H   UNL     1      -0.190  -1.626   2.569  0.00  0.00    +0.142 HD
ATOM     18  H   UNL     1      -0.484  -3.204   3.063  0.00  0.00    +0.142 HD
ENDBRANCH   2  16
BRANCH   1  19
ATOM     19  C   UNL     1      -0.129  -0.681  -0.114  0.00  0.00    +0.056 C 
BRANCH  19  21
ATOM     20  C   UNL     1       1.685   1.037  -0.094  0.00  0.00    +0.004 C 
ATOM     21  C   UNL     1       1.385  -0.463  -0.070  0.00  0.00    +0.003 C 
ENDBRANCH  19  21
ENDBRANCH   1  19
TORSDOF 6
