REMARK  Name = ZINC67424003
REMARK  7 active torsions:
REMARK  status: ('A' for Active; 'I' for Inactive)
REMARK    1  A    between atoms: C_1  and  C_2
REMARK    2  A    between atoms: C_2  and  C_3
REMARK    3  A    between atoms: C_2  and  C_4
REMARK    4  A    between atoms: C_2  and  C_5
REMARK    5  A    between atoms: C_5  and  N_6
REMARK    6  A    between atoms: C_7  and  C_9
REMARK    7  A    between atoms: N_11  and  C_12
REMARK                            x       y       z     vdW  Elec       q    Type
REMARK                         _______ _______ _______ _____ _____    ______ ____
ROOT
ATOM      1  C   UNL     1       4.317   0.219  -2.299  0.00  0.00    +0.303 C 
ATOM      2  O   UNL     1       4.711   0.924  -1.393  0.00  0.00    -0.265 OA
ATOM      3  N   UNL     1       5.143  -0.091  -3.319  0.00  0.00    -0.278 N 
ATOM      4  H   UNL     1       4.851  -0.708  -4.008  0.00  0.00    +0.155 HD
ENDROOT
BRANCH   3   5
ATOM      5  C   UNL     1       6.417   0.475  -3.382  0.00  0.00    +0.034 A 
ATOM      6  C   UNL     1       7.131   0.716  -2.214  0.00  0.00    +0.024 A 
ATOM      7  C   UNL     1       8.389   1.275  -2.273  0.00  0.00    +0.010 A 
ATOM      8  C   UNL     1       8.951   1.602  -3.509  0.00  0.00    -0.014 A 
ATOM      9  C   UNL     1       8.231   1.359  -4.676  0.00  0.00    -0.034 A 
ATOM     10  C   UNL     1       6.976   0.795  -4.615  0.00  0.00    +0.028 A 
ATOM     11  C   UNL     1       9.082   1.809  -5.839  0.00  0.00    +0.071 C 
ATOM     12  C   UNL     1      10.362   2.336  -5.238  0.00  0.00    -0.035 A 
ATOM     13  C   UNL     1      10.263   2.204  -3.855  0.00  0.00    -0.014 A 
ATOM     14  C   UNL     1      11.324   2.621  -3.050  0.00  0.00    +0.009 A 
ATOM     15  C   UNL     1      12.456   3.159  -3.626  0.00  0.00    +0.001 A 
ATOM     16  C   UNL     1      12.545   3.287  -5.000  0.00  0.00    +0.000 A 
ATOM     17  C   UNL     1      11.498   2.874  -5.805  0.00  0.00    +0.004 A 
ENDBRANCH   3   5
BRANCH   1  19
ATOM     18  N   UNL     1       2.094   0.005  -1.265  0.00  0.00    -0.307 N 
ATOM     19  C   UNL     1       2.919  -0.305  -2.284  0.00  0.00    +0.299 C 
ATOM     20  O   UNL     1       2.526  -1.010  -3.191  0.00  0.00    -0.265 OA
ATOM     21  H   UNL     1       2.408   0.569  -0.541  0.00  0.00    +0.149 HD
BRANCH  18  22
ATOM     22  C   UNL     1       0.722  -0.508  -1.251  0.00  0.00    +0.110 C 
BRANCH  22  24
ATOM     23  C   UNL     1      -0.024   1.518   0.006  0.00  0.00    +0.012 C 
ATOM     24  C   UNL     1       0.004  -0.012   0.006  0.00  0.00    -0.022 C 
ATOM     25  C   UNL     1       0.748  -0.508   1.248  0.00  0.00    +0.012 C 
ATOM     26  C   UNL     1      -1.428  -0.548   0.021  0.00  0.00    +0.012 C 
ENDBRANCH  22  24
ENDBRANCH  18  22
ENDBRANCH   1  19
TORSDOF 4
