REMARK  Name = ZINC33337659
REMARK  8 active torsions:
REMARK  status: ('A' for Active; 'I' for Inactive)
REMARK    1  A    between atoms: C_1  and  C_2
REMARK    2  A    between atoms: C_2  and  O_3
REMARK    3  A    between atoms: O_3  and  C_4
REMARK    4  A    between atoms: C_7  and  C_10
REMARK    5  A    between atoms: N_14  and  N_15
REMARK    6  A    between atoms: C_16  and  C_17
REMARK    7  A    between atoms: N_24  and  C_25
REMARK    8  A    between atoms: C_25  and  C_26
REMARK                            x       y       z     vdW  Elec       q    Type
REMARK                         _______ _______ _______ _____ _____    ______ ____
ROOT
ATOM      1  C   UNL     1       6.899   4.060  -0.403  0.00  0.00    +0.058 A 
ATOM      2  C   UNL     1       6.802   5.400  -0.534  0.00  0.00    +0.075 A 
ATOM      3  S   UNL     1       5.034   5.642  -0.585  0.00  0.00    -0.056 S 
ATOM      4  C   UNL     1       4.546   3.933  -0.416  0.00  0.00    +0.195 A 
ATOM      5  N   UNL     1       3.329   3.409  -0.378  0.00  0.00    -0.124 NA
ATOM      6  N   UNL     1       5.764   3.303  -0.341  0.00  0.00    -0.314 N 
ENDROOT
BRANCH   1  10
ATOM      7  C   UNL     1      10.718   2.208  -0.179  0.00  0.00    +0.121 A 
ATOM      8  C   UNL     1      10.432   3.081  -1.220  0.00  0.00    +0.046 A 
ATOM      9  C   UNL     1       9.194   3.684  -1.296  0.00  0.00    +0.013 A 
ATOM     10  C   UNL     1       8.228   3.415  -0.325  0.00  0.00    -0.001 A 
ATOM     11  C   UNL     1       8.522   2.541   0.722  0.00  0.00    +0.013 A 
ATOM     12  C   UNL     1       9.760   1.938   0.788  0.00  0.00    +0.046 A 
BRANCH   7  13
ATOM     13  O   UNL     1      11.939   1.616  -0.108  0.00  0.00    -0.492 OA
BRANCH  13  15
ATOM     14  C   UNL     1      13.585   0.162   0.901  0.00  0.00    +0.048 C 
ATOM     15  C   UNL     1      12.167   0.728   0.989  0.00  0.00    +0.225 C 
ENDBRANCH  13  15
ENDBRANCH   7  13
ENDBRANCH   1  10
BRANCH   5  16
ATOM     16  N   UNL     1       3.179   2.134  -0.255  0.00  0.00    -0.155 NA
ATOM     17  C   UNL     1       1.979   1.617  -0.218  0.00  0.00    +0.143 C 
BRANCH  17  18
ATOM     18  C   UNL     1       0.802   2.474  -0.427  0.00  0.00    -0.002 A 
ATOM     19  C   UNL     1      -0.472   1.906  -0.528  0.00  0.00    +0.009 A 
ATOM     20  C   UNL     1      -1.571   2.716  -0.725  0.00  0.00    +0.003 A 
ATOM     21  C   UNL     1      -1.417   4.088  -0.821  0.00  0.00    +0.038 A 
ATOM     22  C   UNL     1      -0.158   4.660  -0.717  0.00  0.00    +0.124 A 
ATOM     23  C   UNL     1       0.952   3.861  -0.526  0.00  0.00    +0.047 A 
ATOM     24  F   UNL     1      -0.018   6.000  -0.807  0.00  0.00    -0.205 F 
ENDBRANCH  17  18
ENDBRANCH   5  16
BRANCH   6  25
ATOM     25  C   UNL     1       5.845   1.847  -0.199  0.00  0.00    +0.151 C 
BRANCH  25  26
ATOM     26  C   UNL     1       5.946   1.214  -1.563  0.00  0.00    -0.013 C 
ATOM     27  C   UNL     1       6.976   0.462  -1.861  0.00  0.00    +0.005 C 
ENDBRANCH  25  26
ENDBRANCH   6  25
TORSDOF 7
