REMARK  Name = ZINC52622171
REMARK  12 active torsions:
REMARK  status: ('A' for Active; 'I' for Inactive)
REMARK    1  A    between atoms: C_1  and  C_2
REMARK    2  A    between atoms: C_2  and  C_3
REMARK    3  A    between atoms: C_2  and  C_4
REMARK    4  A    between atoms: C_4  and  O_5
REMARK    5  A    between atoms: O_5  and  C_6
REMARK    6  A    between atoms: C_11  and  N_12
REMARK    7  A    between atoms: C_13  and  C_15
REMARK    8  A    between atoms: N_17  and  C_18
REMARK    9  A    between atoms: C_20  and  C_26
REMARK   10  A    between atoms: C_20  and  C_27
REMARK   11  A    between atoms: C_22  and  C_24
REMARK   12  A    between atoms: C_22  and  C_25
REMARK                            x       y       z     vdW  Elec       q    Type
REMARK                         _______ _______ _______ _____ _____    ______ ____
ROOT
ATOM      1  C   UNL     1      -3.828   1.690   5.633  0.00  0.00    +0.300 C 
ATOM      2  O   UNL     1      -4.298   2.128   4.603  0.00  0.00    -0.265 OA
ATOM      3  N   UNL     1      -4.466   1.889   6.803  0.00  0.00    -0.305 N 
ATOM      4  H   UNL     1      -4.090   1.539   7.626  0.00  0.00    +0.149 HD
ENDROOT
BRANCH   3   5
ATOM      5  C   UNL     1      -5.729   2.637   6.833  0.00  0.00    +0.071 C 
ATOM      6  C   UNL     1      -5.427   4.132   6.951  0.00  0.00    +0.009 C 
ATOM      7  C   UNL     1      -6.733   4.923   6.995  0.00  0.00    -0.072 C 
ATOM      8  N   UNL     1      -7.625   4.450   8.043  0.00  0.00    +0.386 N 
ATOM      9  C   UNL     1      -7.830   3.015   8.159  0.00  0.00    -0.072 C 
ATOM     10  C   UNL     1      -6.537   2.213   8.059  0.00  0.00    +0.009 C 
ATOM     11  C   UNL     1      -8.843   2.502   7.132  0.00  0.00    -0.010 C 
ATOM     12  C   UNL     1      -8.431   2.743   9.559  0.00  0.00    -0.010 C 
ATOM     13  C   UNL     1      -7.404   4.914   5.622  0.00  0.00    -0.010 C 
ATOM     14  C   UNL     1      -6.370   6.390   7.319  0.00  0.00    -0.010 C 
ATOM     15  H   UNL     1      -7.279   4.799   8.941  0.00  0.00    -0.084 HD
ATOM     16  H   UNL     1      -8.537   4.896   7.915  0.00  0.00    -0.084 HD
ENDBRANCH   3   5
BRANCH   1  18
ATOM     17  N   UNL     1      -1.905   0.731   4.432  0.00  0.00    -0.275 N 
ATOM     18  C   UNL     1      -2.543   0.930   5.603  0.00  0.00    +0.303 C 
ATOM     19  O   UNL     1      -2.072   0.492   6.632  0.00  0.00    -0.265 OA
ATOM     20  H   UNL     1      -2.248   1.132   3.618  0.00  0.00    +0.155 HD
BRANCH  17  26
ATOM     21  C   UNL     1      -0.406  -0.734   3.223  0.00  0.00    +0.142 A 
ATOM     22  C   UNL     1       0.743  -1.506   3.187  0.00  0.00    +0.047 A 
ATOM     23  C   UNL     1       1.545  -1.606   4.308  0.00  0.00    +0.004 A 
ATOM     24  C   UNL     1       1.204  -0.937   5.469  0.00  0.00    +0.002 A 
ATOM     25  C   UNL     1       0.059  -0.164   5.514  0.00  0.00    +0.027 A 
ATOM     26  C   UNL     1      -0.748  -0.055   4.391  0.00  0.00    +0.076 A 
BRANCH  21  27
ATOM     27  O   UNL     1      -1.196  -0.635   2.121  0.00  0.00    -0.490 OA
BRANCH  27  28
ATOM     28  C   UNL     1      -0.783  -1.359   0.960  0.00  0.00    +0.232 C 
BRANCH  28  30
ATOM     29  C   UNL     1      -1.762   0.347  -0.581  0.00  0.00    +0.010 C 
ATOM     30  C   UNL     1      -1.788  -1.126  -0.170  0.00  0.00    +0.020 C 
ATOM     31  C   UNL     1      -1.415  -1.998  -1.371  0.00  0.00    +0.010 C 
ENDBRANCH  28  30
ENDBRANCH  27  28
ENDBRANCH  21  27
ENDBRANCH  17  26
ENDBRANCH   1  18
TORSDOF 6
