REMARK  Name = ZINC08789286
REMARK  11 active torsions:
REMARK  status: ('A' for Active; 'I' for Inactive)
REMARK    1  A    between atoms: C_1  and  C_2
REMARK    2  A    between atoms: C_8  and  C_9
REMARK    3  A    between atoms: C_8  and  N_61
REMARK    4  A    between atoms: C_10  and  O_32
REMARK    5  A    between atoms: C_17  and  C_18
REMARK    6  A    between atoms: C_21  and  O_28
REMARK    7  A    between atoms: C_22  and  O_26
REMARK    8  A    between atoms: C_23  and  O_24
REMARK    9  A    between atoms: O_24  and  C_25
REMARK   10  A    between atoms: O_26  and  C_27
REMARK   11  A    between atoms: O_28  and  C_29
REMARK                            x       y       z     vdW  Elec       q    Type
REMARK                         _______ _______ _______ _____ _____    ______ ____
ROOT
ATOM      1  C   UNL     1       1.839  -1.462  -0.342  0.00  0.00    +0.020 A 
ATOM      2  C   UNL     1       1.266  -1.536  -1.601  0.00  0.00    +0.122 A 
ATOM      3  C   UNL     1       1.937  -2.163  -2.648  0.00  0.00    +0.046 A 
ATOM      4  C   UNL     1       3.166  -2.722  -2.439  0.00  0.00    +0.019 A 
ATOM      5  C   UNL     1       3.752  -2.660  -1.175  0.00  0.00    +0.068 A 
ATOM      6  C   UNL     1       3.088  -2.025  -0.113  0.00  0.00    +0.144 A 
ATOM      7  O   UNL     1       3.848  -2.092   1.002  0.00  0.00    -0.451 OA
ATOM      8  C   UNL     1       5.014  -2.742   0.778  0.00  0.00    +0.176 C 
ATOM      9  C   UNL     1       5.992  -2.975   1.694  0.00  0.00    +0.062 C 
ATOM     10  C   UNL     1       5.032  -3.150  -0.632  0.00  0.00    +0.231 C 
ATOM     11  O   UNL     1       5.909  -3.757  -1.222  0.00  0.00    -0.283 OA
ENDROOT
BRANCH   9  12
ATOM     12  C   UNL     1       5.886  -2.407   3.040  0.00  0.00    +0.024 A 
ATOM     13  C   UNL     1       4.651  -1.940   3.512  0.00  0.00    +0.015 A 
ATOM     14  C   UNL     1       4.554  -1.412   4.779  0.00  0.00    +0.050 A 
ATOM     15  C   UNL     1       5.679  -1.327   5.592  0.00  0.00    +0.165 A 
ATOM     16  C   UNL     1       6.912  -1.781   5.134  0.00  0.00    +0.204 A 
ATOM     17  C   UNL     1       7.023  -2.321   3.862  0.00  0.00    +0.172 A 
BRANCH  17  18
ATOM     18  O   UNL     1       8.225  -2.765   3.412  0.00  0.00    -0.491 OA
ATOM     19  C   UNL     1       8.525  -4.146   3.619  0.00  0.00    +0.277 C 
ENDBRANCH  17  18
BRANCH  16  20
ATOM     20  O   UNL     1       8.009  -1.694   5.935  0.00  0.00    -0.488 OA
ATOM     21  C   UNL     1       8.731  -0.461   5.915  0.00  0.00    +0.277 C 
ENDBRANCH  16  20
BRANCH  15  22
ATOM     22  O   UNL     1       5.574  -0.798   6.839  0.00  0.00    -0.491 OA
ATOM     23  C   UNL     1       4.279  -0.351   7.246  0.00  0.00    +0.277 C 
ENDBRANCH  15  22
ENDBRANCH   9  12
BRANCH   2  24
ATOM     24  O   UNL     1       0.043  -0.988  -1.817  0.00  0.00    -0.506 OA
ATOM     25  H   UNL     1       0.071  -0.063  -2.099  0.00  0.00    +0.292 HD
ENDBRANCH   2  24
BRANCH   1  26
ATOM     26  C   UNL     1       1.105  -0.774   0.781  0.00  0.00    -0.036 C 
BRANCH  26  33
ATOM     27  C   UNL     1       4.758   2.479   1.290  0.00  0.00    +0.005 C 
ATOM     28  C   UNL     1       3.246   2.302   1.140  0.00  0.00    -0.031 C 
ATOM     29  C   UNL     1       2.762   3.069  -0.094  0.00  0.00    -0.001 C 
ATOM     30  C   UNL     1       1.258   2.838  -0.271  0.00  0.00    -0.018 C 
ATOM     31  C   UNL     1       0.990   1.337  -0.398  0.00  0.00    -0.078 C 
ATOM     32  C   UNL     1       2.920   0.816   0.972  0.00  0.00    -0.075 C 
ATOM     33  N   UNL     1       1.456   0.660   0.830  0.00  0.00    +0.383 N 
ATOM     34  H   UNL     1       0.996   1.088   1.642  0.00  0.00    -0.081 HD
ENDBRANCH  26  33
ENDBRANCH   1  26
TORSDOF 7
