REMARK  Name = ZINC27603057
REMARK  11 active torsions:
REMARK  status: ('A' for Active; 'I' for Inactive)
REMARK    1  A    between atoms: C_1  and  C_2
REMARK    2  A    between atoms: C_3  and  C_34
REMARK    3  A    between atoms: C_11  and  C_13
REMARK    4  A    between atoms: C_13  and  S_14
REMARK    5  A    between atoms: S_14  and  C_15
REMARK    6  A    between atoms: C_15  and  C_17
REMARK    7  A    between atoms: C_15  and  C_18
REMARK    8  A    between atoms: N_20  and  C_21
REMARK    9  A    between atoms: C_21  and  C_22
REMARK   10  A    between atoms: C_22  and  C_24
REMARK   11  A    between atoms: C_22  and  N_29
REMARK                            x       y       z     vdW  Elec       q    Type
REMARK                         _______ _______ _______ _____ _____    ______ ____
ROOT
ATOM      1  C   UNL     1       0.198  -6.137   5.415  0.00  0.00    +0.129 C 
ATOM      2  C   UNL     1      -1.233  -6.016   5.944  0.00  0.00    +0.029 C 
ENDROOT
BRANCH   1   3
ATOM      3  C   UNL     1       0.467  -7.565   5.016  0.00  0.00    +0.226 C 
ATOM      4  O   UNL     1       0.409  -7.889   3.848  0.00  0.00    -0.275 OA
ATOM      5  N   UNL     1       0.773  -8.481   5.955  0.00  0.00    -0.316 N 
ATOM      6  H   UNL     1       0.820  -8.222   6.889  0.00  0.00    +0.149 HD
BRANCH   5   7
ATOM      7  C   UNL     1       1.035  -9.869   5.567  0.00  0.00    +0.094 C 
BRANCH   7   8
ATOM      8  C   UNL     1       1.485 -10.666   6.793  0.00  0.00    -0.013 C 
BRANCH   8   9
ATOM      9  N   UNL     1       1.621 -12.084   6.433  0.00  0.00    +0.386 N 
ATOM     10  C   UNL     1       2.038 -12.875   7.619  0.00  0.00    -0.078 C 
ATOM     11  C   UNL     1       1.596 -14.315   7.256  0.00  0.00    -0.020 C 
ATOM     12  C   UNL     1       0.258 -14.091   6.516  0.00  0.00    -0.020 C 
ATOM     13  C   UNL     1       0.312 -12.633   6.020  0.00  0.00    -0.078 C 
ATOM     14  H   UNL     1       2.294 -12.190   5.689  0.00  0.00    -0.081 HD
ENDBRANCH   8   9
BRANCH   8  15
ATOM     15  C   UNL     1       2.812 -10.140   7.275  0.00  0.00    -0.022 A 
ATOM     16  C   UNL     1       3.073  -9.296   8.304  0.00  0.00    +0.009 A 
ATOM     17  C   UNL     1       4.384  -8.946   8.567  0.00  0.00    +0.008 A 
ATOM     18  C   UNL     1       5.370  -9.457   7.789  0.00  0.00    +0.045 A 
ATOM     19  S   UNL     1       4.449 -10.472   6.645  0.00  0.00    -0.103 S 
ENDBRANCH   8  15
ENDBRANCH   7   8
ENDBRANCH   5   7
ENDBRANCH   1   3
BRANCH   1  20
ATOM     20  S   UNL     1       0.402  -5.056   3.972  0.00  0.00    -0.141 S 
BRANCH  20  21
ATOM     21  C   UNL     1       0.198  -3.384   4.644  0.00  0.00    +0.144 C 
BRANCH  21  32
ATOM     22  C   UNL     1       0.701   1.767   0.382  0.00  0.00    +0.045 C 
ATOM     23  C   UNL     1       0.789   0.264   0.313  0.00  0.00    -0.026 A 
ATOM     24  C   UNL     1       1.034  -0.349  -0.857  0.00  0.00    -0.008 A 
ATOM     25  S   UNL     1       1.042  -2.078  -0.422  0.00  0.00    -0.073 S 
ATOM     26  C   UNL     1       0.716  -1.927   1.315  0.00  0.00    +0.116 A 
ATOM     27  C   UNL     1       0.616  -0.538   1.510  0.00  0.00    +0.075 A 
ATOM     28  C   UNL     1       0.354  -0.118   2.855  0.00  0.00    +0.260 A 
ATOM     29  O   UNL     1       0.245   1.066   3.124  0.00  0.00    -0.267 OA
ATOM     30  N   UNL     1       0.229  -1.052   3.816  0.00  0.00    -0.310 N 
ATOM     31  H   UNL     1       0.051  -0.774   4.728  0.00  0.00    +0.170 HD
ATOM     32  C   UNL     1       0.346  -2.375   3.534  0.00  0.00    +0.121 A 
ATOM     33  N   UNL     1       0.575  -2.790   2.317  0.00  0.00    -0.226 NA
ATOM     34  C   UNL     1       1.251   0.275  -2.211  0.00  0.00    +0.052 C 
ENDBRANCH  21  32
ENDBRANCH  20  21
ENDBRANCH   1  20
TORSDOF 8
