REMARK  Name = ZINC08671243
REMARK  10 active torsions:
REMARK  status: ('A' for Active; 'I' for Inactive)
REMARK    1  A    between atoms: C_1  and  C_2
REMARK    2  A    between atoms: C_9  and  N_13
REMARK    3  A    between atoms: C_10  and  C_11
REMARK    4  A    between atoms: C_14  and  C_16
REMARK    5  A    between atoms: C_16  and  O_17
REMARK    6  A    between atoms: O_17  and  C_18
REMARK    7  A    between atoms: C_18  and  C_20
REMARK    8  A    between atoms: C_25  and  N_26
REMARK    9  A    between atoms: N_26  and  C_27
REMARK   10  A    between atoms: C_27  and  C_28
REMARK                            x       y       z     vdW  Elec       q    Type
REMARK                         _______ _______ _______ _____ _____    ______ ____
ROOT
ATOM      1  C   UNL     1       2.571  -7.496   3.411  0.00  0.00    +0.328 C 
ENDROOT
BRANCH   1   3
ATOM      2  N   UNL     1       1.849  -5.843   1.718  0.00  0.00    -0.276 N 
ATOM      3  C   UNL     1       2.171  -6.102   3.001  0.00  0.00    +0.255 C 
ATOM      4  O   UNL     1       2.140  -5.213   3.825  0.00  0.00    -0.272 OA
ATOM      5  H   UNL     1       1.874  -6.554   1.059  0.00  0.00    +0.155 HD
BRANCH   2  13
ATOM      6  C   UNL     1      -0.255   1.478   0.066  0.00  0.00    +0.008 C 
ATOM      7  C   UNL     1      -0.206  -0.051   0.053  0.00  0.00    -0.009 C 
ATOM      8  C   UNL     1       0.517  -0.530  -1.209  0.00  0.00    +0.008 C 
ATOM      9  C   UNL     1       0.357  -2.044  -1.358  0.00  0.00    +0.037 C 
ATOM     10  C   UNL     1       0.775  -2.709  -0.055  0.00  0.00    -0.018 A 
ATOM     11  C   UNL     1       0.853  -2.008   1.097  0.00  0.00    -0.004 A 
ATOM     12  S   UNL     1       1.370  -3.191   2.307  0.00  0.00    -0.077 S 
ATOM     13  C   UNL     1       1.480  -4.559   1.340  0.00  0.00    +0.090 A 
ATOM     14  C   UNL     1       1.120  -4.113   0.080  0.00  0.00    +0.084 A 
ATOM     15  C   UNL     1       0.558  -0.552   1.287  0.00  0.00    +0.046 C 
BRANCH  14  16
ATOM     16  C   UNL     1       1.089  -5.000  -1.044  0.00  0.00    +0.102 C 
ATOM     17  N   UNL     1       1.064  -5.703  -1.936  0.00  0.00    -0.191 NA
ENDBRANCH  14  16
ENDBRANCH   2  13
ENDBRANCH   1   3
BRANCH   1  18
ATOM     18  O   UNL     1       2.864  -7.515   4.810  0.00  0.00    -0.452 OA
BRANCH  18  19
ATOM     19  C   UNL     1       3.240  -8.696   5.340  0.00  0.00    +0.341 C 
ATOM     20  O   UNL     1       3.318  -9.682   4.633  0.00  0.00    -0.245 OA
BRANCH  19  21
ATOM     21  C   UNL     1       3.557  -8.791   6.775  0.00  0.00    +0.080 A 
ATOM     22  C   UNL     1       3.587  -7.640   7.567  0.00  0.00    +0.017 A 
ATOM     23  C   UNL     1       3.884  -7.736   8.908  0.00  0.00    +0.001 A 
ATOM     24  C   UNL     1       4.154  -8.970   9.479  0.00  0.00    +0.002 A 
ATOM     25  C   UNL     1       4.128 -10.116   8.712  0.00  0.00    +0.024 A 
ATOM     26  C   UNL     1       3.825 -10.040   7.358  0.00  0.00    +0.042 A 
BRANCH  26  27
ATOM     27  N   UNL     1       3.793 -11.193   6.584  0.00  0.00    -0.336 N 
ATOM     28  H   UNL     1       3.663 -11.130   5.625  0.00  0.00    +0.147 HD
BRANCH  27  29
ATOM     29  C   UNL     1       3.955 -12.504   7.217  0.00  0.00    +0.176 C 
BRANCH  29  30
ATOM     30  C   UNL     1       3.882 -13.581   6.165  0.00  0.00    +0.122 A 
ATOM     31  C   UNL     1       4.925 -14.082   5.479  0.00  0.00    +0.046 A 
ATOM     32  C   UNL     1       4.405 -15.064   4.604  0.00  0.00    +0.041 A 
ATOM     33  C   UNL     1       3.076 -15.104   4.808  0.00  0.00    +0.195 A 
ATOM     34  O   UNL     1       2.766 -14.208   5.759  0.00  0.00    -0.466 OA
ENDBRANCH  29  30
ENDBRANCH  27  29
ENDBRANCH  26  27
ENDBRANCH  19  21
ENDBRANCH  18  19
ENDBRANCH   1  18
TORSDOF 9
