REMARK  Name = ZINC44657271
REMARK  7 active torsions:
REMARK  status: ('A' for Active; 'I' for Inactive)
REMARK    1  A    between atoms: C_7  and  C_10
REMARK    2  A    between atoms: C_13  and  S_23
REMARK    3  A    between atoms: N_15  and  C_16
REMARK    4  A    between atoms: C_16  and  C_17
REMARK    5  A    between atoms: S_23  and  C_24
REMARK    6  A    between atoms: C_24  and  C_25
REMARK    7  A    between atoms: N_30  and  C_31
REMARK                            x       y       z     vdW  Elec       q    Type
REMARK                         _______ _______ _______ _____ _____    ______ ____
ROOT
ATOM      1  C   UNL     1       0.612  -3.191  -0.031  0.00  0.00    +0.147 C 
ATOM      2  N   UNL     1      -0.690  -3.125   0.065  0.00  0.00    -0.169 NA
ATOM      3  N   UNL     1      -1.267  -4.400   0.036  0.00  0.00    -0.237 N 
ATOM      4  C   UNL     1      -0.157  -5.358  -0.094  0.00  0.00    +0.237 C 
ATOM      5  N   UNL     1       1.048  -4.514  -0.140  0.00  0.00    -0.283 N 
ATOM      6  H   UNL     1      -2.212  -4.610   0.092  0.00  0.00    +0.171 HD
ENDROOT
BRANCH   1  13
ATOM      7  C   UNL     1      -0.183   1.230   0.610  0.00  0.00    +0.001 A 
ATOM      8  C   UNL     1       0.965   2.022   0.526  0.00  0.00    +0.002 A 
ATOM      9  C   UNL     1       2.186   1.488   0.276  0.00  0.00    +0.026 A 
ATOM     10  C   UNL     1       2.319   0.088   0.091  0.00  0.00    +0.043 A 
ATOM     11  N   UNL     1       3.374  -0.663  -0.159  0.00  0.00    -0.380 N 
ATOM     12  C   UNL     1       2.958  -2.065  -0.259  0.00  0.00    +0.152 C 
ATOM     13  C   UNL     1       1.463  -2.075  -0.030  0.00  0.00    +0.022 C 
ATOM     14  C   UNL     1       1.107  -0.743   0.180  0.00  0.00    +0.006 A 
ATOM     15  C   UNL     1      -0.131  -0.117   0.444  0.00  0.00    +0.010 A 
ATOM     16  H   UNL     1       4.282  -0.338  -0.261  0.00  0.00    +0.160 HD
ENDBRANCH   1  13
BRANCH   5  17
ATOM     17  C   UNL     1       2.434  -4.971  -0.270  0.00  0.00    +0.140 C 
BRANCH  17  18
ATOM     18  C   UNL     1       2.978  -5.352   1.109  0.00  0.00    +0.136 C 
ATOM     19  C   UNL     1       4.475  -5.736   1.009  0.00  0.00    +0.035 C 
ATOM     20  C   UNL     1       4.952  -5.443   2.458  0.00  0.00    +0.031 C 
ATOM     21  C   UNL     1       4.085  -4.226   2.848  0.00  0.00    +0.160 C 
ATOM     22  O   UNL     1       2.936  -4.219   1.991  0.00  0.00    -0.375 OA
ENDBRANCH  17  18
ENDBRANCH   5  17
BRANCH   4  23
ATOM     23  S   UNL     1      -0.319  -6.311  -1.629  0.00  0.00    -0.109 S 
BRANCH  23  24
ATOM     24  C   UNL     1      -0.319  -5.049  -2.932  0.00  0.00    +0.168 C 
BRANCH  24  25
ATOM     25  C   UNL     1      -0.449  -5.715  -4.277  0.00  0.00    +0.230 C 
ATOM     26  O   UNL     1      -0.534  -6.922  -4.350  0.00  0.00    -0.274 OA
ATOM     27  N   UNL     1      -0.472  -4.969  -5.399  0.00  0.00    -0.240 N 
ATOM     28  C   UNL     1      -0.589  -5.565  -6.602  0.00  0.00    +0.306 C 
ATOM     29  O   UNL     1      -0.673  -6.775  -6.676  0.00  0.00    -0.252 OA
ATOM     30  N   UNL     1      -0.612  -4.819  -7.724  0.00  0.00    -0.296 N 
ATOM     31  H   UNL     1      -0.404  -4.003  -5.341  0.00  0.00    +0.159 HD
ATOM     32  H   UNL     1      -0.544  -3.853  -7.666  0.00  0.00    +0.151 HD
BRANCH  30  33
ATOM     33  C   UNL     1      -0.739  -5.466  -9.032  0.00  0.00    +0.075 C 
ATOM     34  C   UNL     1       0.163  -4.962 -10.161  0.00  0.00    +0.024 C 
ATOM     35  C   UNL     1      -1.333  -4.641 -10.175  0.00  0.00    +0.024 C 
ENDBRANCH  30  33
ENDBRANCH  24  25
ENDBRANCH  23  24
ENDBRANCH   4  23
TORSDOF 7
