REMARK  Name = ZINC19316457
REMARK  10 active torsions:
REMARK  status: ('A' for Active; 'I' for Inactive)
REMARK    1  A    between atoms: C_1  and  C_2
REMARK    2  A    between atoms: C_2  and  N_3
REMARK    3  A    between atoms: N_3  and  C_4
REMARK    4  A    between atoms: C_4  and  C_5
REMARK    5  A    between atoms: C_16  and  C_18
REMARK    6  A    between atoms: C_18  and  S_19
REMARK    7  A    between atoms: S_19  and  C_20
REMARK    8  A    between atoms: C_23  and  C_33
REMARK    9  A    between atoms: C_24  and  C_26
REMARK   10  A    between atoms: C_26  and  C_27
REMARK                            x       y       z     vdW  Elec       q    Type
REMARK                         _______ _______ _______ _____ _____    ______ ____
ROOT
ATOM      1  N   UNL     1       5.764  -3.082  -0.069  0.00  0.00    -0.297 N 
ATOM      2  C   UNL     1       4.416  -3.060  -0.056  0.00  0.00    +0.226 C 
ATOM      3  O   UNL     1       3.792  -4.100  -0.054  0.00  0.00    -0.275 OA
ENDROOT
BRANCH   1   5
ATOM      4  C   UNL     1       6.793  -1.395   1.372  0.00  0.00    +0.024 C 
ATOM      5  C   UNL     1       6.517  -1.826  -0.070  0.00  0.00    +0.104 C 
ENDBRANCH   1   5
BRANCH   1   6
ATOM      6  C   UNL     1       6.475  -4.363  -0.082  0.00  0.00    +0.155 C 
BRANCH   6   7
ATOM      7  C   UNL     1       6.709  -4.802  -1.529  0.00  0.00    +0.228 C 
ATOM      8  C   UNL     1       7.441  -6.151  -1.549  0.00  0.00    +0.275 C 
ATOM      9  O   UNL     1       7.631  -6.537  -2.914  0.00  0.00    -0.485 OA
ATOM     10  C   UNL     1       6.556  -6.416  -3.740  0.00  0.00    +0.162 A 
ATOM     11  C   UNL     1       6.551  -7.087  -4.954  0.00  0.00    +0.049 A 
ATOM     12  C   UNL     1       5.468  -6.971  -5.805  0.00  0.00    +0.004 A 
ATOM     13  C   UNL     1       4.387  -6.186  -5.448  0.00  0.00    +0.004 A 
ATOM     14  C   UNL     1       4.385  -5.516  -4.240  0.00  0.00    +0.049 A 
ATOM     15  C   UNL     1       5.469  -5.629  -3.381  0.00  0.00    +0.163 A 
ATOM     16  O   UNL     1       5.451  -4.964  -2.193  0.00  0.00    -0.480 OA
ENDBRANCH   6   7
ENDBRANCH   1   6
BRANCH   2  17
ATOM     17  C   UNL     1       3.684  -1.743  -0.042  0.00  0.00    +0.173 C 
BRANCH  17  18
ATOM     18  S   UNL     1       1.899  -2.044  -0.026  0.00  0.00    -0.079 S 
BRANCH  18  19
ATOM     19  C   UNL     1       1.309  -0.384  -0.013  0.00  0.00    +0.167 A 
ATOM     20  N   UNL     1       0.002  -0.004   0.002  0.00  0.00    -0.337 N 
ATOM     21  H   UNL     1      -0.792  -0.765   0.005  0.00  0.00    +0.168 HD
ATOM     22  C   UNL     1      -0.017   1.373   0.010  0.00  0.00    +0.037 A 
ATOM     23  C   UNL     1       1.263   1.782  -0.000  0.00  0.00    +0.067 A 
ATOM     24  N   UNL     1       2.055   0.696  -0.014  0.00  0.00    -0.226 NA
ATOM     25  C   UNL     1      -1.240   2.253   0.020  0.00  0.00    +0.065 C 
BRANCH  23  26
ATOM     26  C   UNL     1       1.731   3.215   0.003  0.00  0.00    +0.092 C 
BRANCH  26  27
ATOM     27  C   UNL     1       1.901   3.684   1.425  0.00  0.00    -0.042 A 
ATOM     28  C   UNL     1       0.842   4.277   2.088  0.00  0.00    +0.004 A 
ATOM     29  C   UNL     1       0.997   4.703   3.393  0.00  0.00    +0.000 A 
ATOM     30  C   UNL     1       2.212   4.547   4.033  0.00  0.00    +0.000 A 
ATOM     31  C   UNL     1       3.272   3.959   3.368  0.00  0.00    +0.000 A 
ATOM     32  C   UNL     1       3.117   3.528   2.064  0.00  0.00    +0.004 A 
ENDBRANCH  26  27
ENDBRANCH  23  26
ENDBRANCH  18  19
ENDBRANCH  17  18
ENDBRANCH   2  17
TORSDOF 8
