REMARK  Name = ZINC54050458
REMARK  7 active torsions:
REMARK  status: ('A' for Active; 'I' for Inactive)
REMARK    1  A    between atoms: C_2  and  C_10
REMARK    2  A    between atoms: C_6  and  N_7
REMARK    3  A    between atoms: C_10  and  O_12
REMARK    4  A    between atoms: O_12  and  C_13
REMARK    5  A    between atoms: C_13  and  C_14
REMARK    6  A    between atoms: C_14  and  C_15
REMARK    7  A    between atoms: N_17  and  C_18
REMARK                            x       y       z     vdW  Elec       q    Type
REMARK                         _______ _______ _______ _____ _____    ______ ____
ROOT
ATOM      1  C   UNL     1       1.173   3.568   0.009  0.00  0.00    +0.339 C 
ATOM      2  O   UNL     1       0.116   4.167   0.022  0.00  0.00    -0.245 OA
ENDROOT
BRANCH   1   4
ATOM      3  C   UNL     1      -0.017   1.381   0.010  0.00  0.00    +0.039 A 
ATOM      4  C   UNL     1       1.185   2.092   0.002  0.00  0.00    +0.062 A 
ATOM      5  C   UNL     1       2.399   1.402  -0.013  0.00  0.00    +0.036 A 
ATOM      6  C   UNL     1       2.408   0.021  -0.021  0.00  0.00    +0.062 A 
ATOM      7  C   UNL     1       1.216  -0.683  -0.013  0.00  0.00    +0.080 A 
ATOM      8  C   UNL     1       0.002  -0.004   0.002  0.00  0.00    +0.045 A 
ATOM      9 CL   UNL     1       1.237  -2.419  -0.023  0.00  0.00    -0.080 Cl
ATOM     10 CL   UNL     1       3.919  -0.835  -0.040  0.00  0.00    -0.082 Cl
BRANCH   8  11
ATOM     11  N   UNL     1      -1.199  -0.719   0.010  0.00  0.00    -0.357 N 
ATOM     12  H   UNL     1      -2.045  -0.246   0.021  0.00  0.00    +0.142 HD
ATOM     13  H   UNL     1      -1.186  -1.689   0.005  0.00  0.00    +0.142 HD
ENDBRANCH   8  11
ENDBRANCH   1   4
BRANCH   1  14
ATOM     14  O   UNL     1       2.333   4.252   0.002  0.00  0.00    -0.461 OA
BRANCH  14  15
ATOM     15  C   UNL     1       2.247   5.678   0.010  0.00  0.00    +0.241 C 
BRANCH  15  16
ATOM     16  C   UNL     1       3.655   6.275   0.000  0.00  0.00    +0.137 C 
BRANCH  16  17
ATOM     17  C   UNL     1       3.564   7.779   0.008  0.00  0.00    +0.216 C 
ATOM     18  O   UNL     1       2.479   8.321   0.021  0.00  0.00    -0.276 OA
ATOM     19  N   UNL     1       4.688   8.523   0.002  0.00  0.00    -0.312 N 
ATOM     20  H   UNL     1       5.556   8.090  -0.009  0.00  0.00    +0.149 HD
BRANCH  19  21
ATOM     21  C   UNL     1       4.599   9.985   0.010  0.00  0.00    +0.073 C 
ATOM     22  C   UNL     1       5.528  10.755  -0.931  0.00  0.00    +0.024 C 
ATOM     23  C   UNL     1       5.789  10.762   0.576  0.00  0.00    +0.024 C 
ENDBRANCH  19  21
ENDBRANCH  16  17
ENDBRANCH  15  16
ENDBRANCH  14  15
ENDBRANCH   1  14
TORSDOF 7
