REMARK  Name = ZINC13040151
REMARK  12 active torsions:
REMARK  status: ('A' for Active; 'I' for Inactive)
REMARK    1  A    between atoms: C_1  and  C_2
REMARK    2  A    between atoms: C_8  and  C_20
REMARK    3  A    between atoms: C_12  and  C_13
REMARK    4  A    between atoms: C_13  and  O_15
REMARK    5  A    between atoms: O_15  and  C_16
REMARK    6  A    between atoms: C_16  and  C_17
REMARK    7  A    between atoms: C_17  and  O_18
REMARK    8  A    between atoms: O_18  and  C_19
REMARK    9  A    between atoms: C_20  and  N_21
REMARK   10  A    between atoms: N_21  and  C_22
REMARK   11  A    between atoms: C_22  and  C_24
REMARK   12  A    between atoms: C_22  and  C_25
REMARK                            x       y       z     vdW  Elec       q    Type
REMARK                         _______ _______ _______ _____ _____    ______ ____
ROOT
ATOM      1  C   UNL     1      -0.018   1.503   0.010  0.00  0.00    +0.046 C 
ATOM      2  C   UNL     1       0.002  -0.004   0.002  0.00  0.00    -0.015 A 
ATOM      3  C   UNL     1       0.005  -0.697  -1.210  0.00  0.00    +0.076 A 
ATOM      4  C   UNL     1      -0.009  -0.166  -2.592  0.00  0.00    +0.260 A 
ATOM      5  O   UNL     1      -0.025   1.034  -2.800  0.00  0.00    -0.267 OA
ATOM      6  N   UNL     1      -0.002  -1.044  -3.614  0.00  0.00    -0.312 N 
ATOM      7  H   UNL     1      -0.010  -0.712  -4.525  0.00  0.00    +0.170 HD
ATOM      8  C   UNL     1       0.018  -2.382  -3.394  0.00  0.00    +0.094 A 
ATOM      9  N   UNL     1       0.030  -2.883  -2.189  0.00  0.00    -0.229 NA
ATOM     10  C   UNL     1       0.025  -2.108  -1.113  0.00  0.00    +0.116 A 
ATOM     11  S   UNL     1       0.037  -2.396   0.639  0.00  0.00    -0.062 S 
ATOM     12  C   UNL     1       0.023  -0.695   1.179  0.00  0.00    +0.102 A 
ENDROOT
BRANCH  12  13
ATOM     13  C   UNL     1       0.030  -0.170   2.547  0.00  0.00    +0.346 C 
ATOM     14  O   UNL     1       0.015   1.031   2.737  0.00  0.00    -0.244 OA
BRANCH  13  15
ATOM     15  O   UNL     1       0.051  -1.019   3.595  0.00  0.00    -0.458 OA
BRANCH  15  16
ATOM     16  C   UNL     1       0.057  -0.438   4.900  0.00  0.00    +0.260 C 
BRANCH  16  17
ATOM     17  C   UNL     1       0.082  -1.548   5.953  0.00  0.00    +0.200 C 
BRANCH  17  18
ATOM     18  O   UNL     1       1.312  -2.269   5.855  0.00  0.00    -0.380 OA
ATOM     19  C   UNL     1       1.438  -3.334   6.799  0.00  0.00    +0.194 C 
ENDBRANCH  17  18
ENDBRANCH  16  17
ENDBRANCH  15  16
ENDBRANCH  13  15
ENDBRANCH  12  13
BRANCH   8  20
ATOM     20  C   UNL     1       0.024  -3.317  -4.576  0.00  0.00    -0.006 C 
BRANCH  20  21
ATOM     21  N   UNL     1       0.045  -4.707  -4.101  0.00  0.00    +0.388 N 
ATOM     22  H   UNL     1       0.874  -4.860  -3.546  0.00  0.00    -0.084 HD
ATOM     23  H   UNL     1      -0.773  -4.882  -3.537  0.00  0.00    -0.084 HD
BRANCH  21  24
ATOM     24  C   UNL     1       0.052  -5.618  -5.252  0.00  0.00    -0.042 C 
ATOM     25  C   UNL     1       1.353  -5.439  -6.037  0.00  0.00    -0.009 C 
BRANCH  24  26
ATOM     26  C   UNL     1      -0.051  -7.041  -4.767  0.00  0.00    -0.043 A 
ATOM     27  C   UNL     1       0.273  -7.351  -3.460  0.00  0.00    +0.003 A 
ATOM     28  C   UNL     1       0.180  -8.656  -3.015  0.00  0.00    +0.000 A 
ATOM     29  C   UNL     1      -0.238  -9.653  -3.877  0.00  0.00    +0.001 A 
ATOM     30  C   UNL     1      -0.562  -9.345  -5.184  0.00  0.00    +0.020 A 
ATOM     31  C   UNL     1      -0.474  -8.037  -5.629  0.00  0.00    +0.043 A 
ATOM     32 CL   UNL     1      -0.887  -7.648  -7.270  0.00  0.00    -0.083 Cl
ENDBRANCH  24  26
ENDBRANCH  21  24
ENDBRANCH  20  21
ENDBRANCH   8  20
TORSDOF 9
