REMARK  Name = ZINC39695714
REMARK  7 active torsions:
REMARK  status: ('A' for Active; 'I' for Inactive)
REMARK    1  A    between atoms: C_1  and  C_2
REMARK    2  A    between atoms: C_9  and  C_11
REMARK    3  A    between atoms: C_11  and  C_13
REMARK    4  A    between atoms: C_11  and  N_14
REMARK    5  A    between atoms: C_15  and  C_17
REMARK    6  A    between atoms: C_28  and  C_30
REMARK    7  A    between atoms: C_35  and  C_36
REMARK                            x       y       z     vdW  Elec       q    Type
REMARK                         _______ _______ _______ _____ _____    ______ ____
ROOT
ATOM      1  C   UNL     1       2.525  -8.793   0.697  0.00  0.00    +0.100 C 
ATOM      2  C   UNL     1       1.255  -9.363   0.027  0.00  0.00    +0.121 C 
ATOM      3  N   UNL     1       1.458 -10.831   0.029  0.00  0.00    -0.296 N 
ATOM      4  C   UNL     1       2.088 -11.114   1.341  0.00  0.00    +0.115 C 
ATOM      5  C   UNL     1       3.068  -9.945   1.560  0.00  0.00    -0.004 C 
ATOM      6  C   UNL     1       3.086  -9.541   3.030  0.00  0.00    -0.010 C 
ATOM      7  C   UNL     1       3.684 -10.680   3.861  0.00  0.00    -0.082 C 
ATOM      8  N   UNL     1       5.046 -10.965   3.394  0.00  0.00    +0.379 N 
ATOM      9  C   UNL     1       5.010 -11.443   2.006  0.00  0.00    -0.082 C 
ATOM     10  C   UNL     1       4.468 -10.336   1.098  0.00  0.00    -0.010 C 
ATOM     11  C   UNL     1       1.142 -11.710  -0.943  0.00  0.00    +0.247 C 
ATOM     12  O   UNL     1       1.279 -12.902  -0.752  0.00  0.00    -0.270 OA
ATOM     13  H   UNL     1       5.601 -10.124   3.445  0.00  0.00    -0.086 HD
ATOM     14  H   UNL     1       5.460 -11.674   3.981  0.00  0.00    -0.086 HD
ENDROOT
BRANCH  11  15
ATOM     15  C   UNL     1       0.628 -11.223  -2.241  0.00  0.00    +0.049 A 
ATOM     16  C   UNL     1      -0.224 -10.119  -2.289  0.00  0.00    +0.013 A 
ATOM     17  C   UNL     1      -0.699  -9.670  -3.503  0.00  0.00    +0.001 A 
ATOM     18  C   UNL     1      -0.333 -10.312  -4.673  0.00  0.00    +0.001 A 
ATOM     19  C   UNL     1       0.511 -11.407  -4.633  0.00  0.00    +0.013 A 
ATOM     20  C   UNL     1       0.998 -11.863  -3.425  0.00  0.00    +0.067 A 
BRANCH  20  21
ATOM     21  C   UNL     1       1.923 -13.053  -3.384  0.00  0.00    +0.418 C 
ATOM     22  F   UNL     1       2.144 -13.516  -4.685  0.00  0.00    -0.166 F 
ATOM     23  F   UNL     1       3.141 -12.677  -2.809  0.00  0.00    -0.166 F 
ATOM     24  F   UNL     1       1.341 -14.069  -2.619  0.00  0.00    -0.166 F 
ENDBRANCH  20  21
ENDBRANCH  11  15
BRANCH   1  26
ATOM     25  N   UNL     1       3.077  -6.628   1.760  0.00  0.00    -0.305 N 
ATOM     26  C   UNL     1       2.175  -7.609   1.563  0.00  0.00    +0.219 C 
ATOM     27  O   UNL     1       1.081  -7.540   2.082  0.00  0.00    -0.275 OA
ATOM     28  H   UNL     1       3.953  -6.684   1.345  0.00  0.00    +0.149 HD
BRANCH  25  29
ATOM     29  C   UNL     1       2.737  -5.478   2.601  0.00  0.00    +0.136 C 
ATOM     30  C   UNL     1       2.002  -4.432   1.762  0.00  0.00    +0.036 C 
BRANCH  29  39
ATOM     31  C   UNL     1       8.178  -2.054   6.351  0.00  0.00    +0.044 C 
ATOM     32  C   UNL     1       7.434  -2.850   5.310  0.00  0.00    -0.048 A 
ATOM     33  C   UNL     1       8.121  -3.383   4.229  0.00  0.00    +0.005 A 
ATOM     34  C   UNL     1       7.465  -4.107   3.274  0.00  0.00    +0.030 A 
ATOM     35  C   UNL     1       6.088  -4.317   3.383  0.00  0.00    +0.089 A 
ATOM     36  C   UNL     1       5.391  -3.778   4.478  0.00  0.00    +0.067 A 
ATOM     37  C   UNL     1       6.076  -3.049   5.441  0.00  0.00    +0.031 A 
ATOM     38  N   UNL     1       4.072  -4.149   4.310  0.00  0.00    -0.340 N 
ATOM     39  C   UNL     1       3.999  -4.875   3.162  0.00  0.00    +0.128 A 
ATOM     40  N   UNL     1       5.178  -4.974   2.620  0.00  0.00    -0.231 NA
ATOM     41  H   UNL     1       3.334  -3.931   4.901  0.00  0.00    +0.167 HD
ENDBRANCH  29  39
ENDBRANCH  25  29
ENDBRANCH   1  26
TORSDOF 5
