REMARK  Name = ZINC06757074
REMARK  7 active torsions:
REMARK  status: ('A' for Active; 'I' for Inactive)
REMARK    1  A    between atoms: C_1  and  C_2
REMARK    2  A    between atoms: C_2  and  C_3
REMARK    3  A    between atoms: C_12  and  O_22
REMARK    4  A    between atoms: C_13  and  C_14
REMARK    5  A    between atoms: C_14  and  N_42
REMARK    6  A    between atoms: C_15  and  C_16
REMARK    7  A    between atoms: C_15  and  N_42
REMARK                            x       y       z     vdW  Elec       q    Type
REMARK                         _______ _______ _______ _____ _____    ______ ____
ROOT
ATOM      1  C   UNL     1      -0.066   5.584   0.032  0.00  0.00    -0.030 A 
ATOM      2  C   UNL     1      -1.278   6.199   0.048  0.00  0.00    +0.096 A 
ATOM      3  C   UNL     1      -2.457   5.425   0.055  0.00  0.00    +0.337 A 
ATOM      4  O   UNL     1      -3.536   5.989   0.069  0.00  0.00    -0.245 OA
ATOM      5  O   UNL     1      -2.420   4.083   0.048  0.00  0.00    -0.422 OA
ATOM      6  C   UNL     1      -1.249   3.410   0.032  0.00  0.00    +0.144 A 
ATOM      7  C   UNL     1      -0.033   4.120   0.024  0.00  0.00    +0.023 A 
ATOM      8  C   UNL     1       1.182   3.427   0.009  0.00  0.00    +0.035 A 
ATOM      9  C   UNL     1       1.185   2.061   0.002  0.00  0.00    +0.083 A 
ATOM     10  C   UNL     1      -0.016   1.353   0.009  0.00  0.00    +0.140 A 
ATOM     11  C   UNL     1      -1.228   2.024   0.019  0.00  0.00    +0.021 A 
ATOM     12 CL   UNL     1       2.693   1.201  -0.017  0.00  0.00    -0.080 Cl
ENDROOT
BRANCH   1  14
ATOM     13  C   UNL     1       1.692   6.560  -1.418  0.00  0.00    +0.009 C 
ATOM     14  C   UNL     1       1.209   6.387   0.023  0.00  0.00    +0.033 C 
ENDBRANCH   1  14
BRANCH  10  15
ATOM     15  O   UNL     1       0.002  -0.004   0.002  0.00  0.00    -0.505 OA
ATOM     16  H   UNL     1       0.016  -0.402   0.883  0.00  0.00    +0.292 HD
ENDBRANCH  10  15
BRANCH  11  17
ATOM     17  C   UNL     1      -2.521   1.249   0.020  0.00  0.00    -0.039 C 
BRANCH  17  18
ATOM     18  N   UNL     1      -2.929   0.992   1.415  0.00  0.00    +0.384 N 
ATOM     19  H   UNL     1      -3.059   1.888   1.900  0.00  0.00    -0.085 HD
ATOM     20  H   UNL     1      -2.197   0.450   1.887  0.00  0.00    -0.085 HD
BRANCH  18  21
ATOM     21  C   UNL     1      -4.194   0.234   1.446  0.00  0.00    -0.050 C 
BRANCH  21  22
ATOM     22  C   UNL     1      -4.591  -0.017   2.902  0.00  0.00    +0.101 C 
ATOM     23  C   UNL     1      -5.912  -0.809   2.956  0.00  0.00    +0.032 C 
ATOM     24  C   UNL     1      -5.552  -2.093   3.743  0.00  0.00    +0.030 C 
ATOM     25  C   UNL     1      -4.272  -1.661   4.501  0.00  0.00    +0.160 C 
ATOM     26  O   UNL     1      -3.588  -0.815   3.553  0.00  0.00    -0.378 OA
ENDBRANCH  21  22
ENDBRANCH  18  21
ENDBRANCH  17  18
ENDBRANCH  11  17
TORSDOF 6
