REMARK  Name = ZINC58356282
REMARK  5 active torsions:
REMARK  status: ('A' for Active; 'I' for Inactive)
REMARK    1  A    between atoms: C_6  and  N_7
REMARK    2  A    between atoms: C_8  and  C_10
REMARK    3  A    between atoms: C_10  and  N_11
REMARK    4  A    between atoms: N_14  and  C_15
REMARK    5  A    between atoms: C_15  and  C_16
REMARK                            x       y       z     vdW  Elec       q    Type
REMARK                         _______ _______ _______ _____ _____    ______ ____
ROOT
ATOM      1  N   UNL     1      -1.201  -0.722   0.010  0.00  0.00    -0.282 N 
ATOM      2  C   UNL     1      -2.375  -0.070   0.127  0.00  0.00    +0.234 C 
ATOM      3  O   UNL     1      -2.396   1.143   0.134  0.00  0.00    -0.274 OA
ATOM      4  H   UNL     1      -1.190  -1.688  -0.076  0.00  0.00    +0.155 HD
ENDROOT
BRANCH   1  10
ATOM      5  C   UNL     1       0.069   1.238   0.627  0.00  0.00    +0.029 A 
ATOM      6  C   UNL     1       1.257   1.944   0.630  0.00  0.00    +0.043 A 
ATOM      7  C   UNL     1       2.382   1.415   0.021  0.00  0.00    +0.161 A 
ATOM      8  C   UNL     1       2.320   0.173  -0.593  0.00  0.00    +0.195 A 
ATOM      9  C   UNL     1       1.132  -0.538  -0.598  0.00  0.00    +0.182 A 
ATOM     10  C   UNL     1       0.003  -0.005   0.013  0.00  0.00    +0.072 A 
ATOM     11  F   UNL     1       1.070  -1.748  -1.196  0.00  0.00    -0.200 F 
ATOM     12  F   UNL     1       3.418  -0.343  -1.187  0.00  0.00    -0.199 F 
ATOM     13  F   UNL     1       3.541   2.108   0.026  0.00  0.00    -0.202 F 
ENDBRANCH   1  10
BRANCH   2  14
ATOM     14  C   UNL     1      -3.660  -0.846   0.249  0.00  0.00    +0.202 C 
BRANCH  14  15
ATOM     15  N   UNL     1      -4.785   0.085   0.362  0.00  0.00    -0.291 N 
ATOM     16  C   UNL     1      -6.042  -0.387   0.483  0.00  0.00    +0.300 C 
ATOM     17  O   UNL     1      -6.242  -1.586   0.497  0.00  0.00    -0.253 OA
ATOM     18  N   UNL     1      -7.077   0.470   0.587  0.00  0.00    -0.299 N 
ATOM     19  H   UNL     1      -4.625   1.042   0.350  0.00  0.00    +0.151 HD
ATOM     20  H   UNL     1      -6.917   1.427   0.575  0.00  0.00    +0.150 HD
BRANCH  18  21
ATOM     21  C   UNL     1      -8.443  -0.043   0.718  0.00  0.00    +0.109 C 
BRANCH  21  22
ATOM     22  C   UNL     1      -9.420   1.129   0.818  0.00  0.00    +0.006 C 
ATOM     23  C   UNL     1     -10.214   1.279   2.117  0.00  0.00    +0.005 C 
ATOM     24  C   UNL     1     -10.915   0.803   0.843  0.00  0.00    +0.005 C 
ENDBRANCH  21  22
ENDBRANCH  18  21
ENDBRANCH  14  15
ENDBRANCH   2  14
TORSDOF 5
