REMARK  Name = ZINC20712138
REMARK  6 active torsions:
REMARK  status: ('A' for Active; 'I' for Inactive)
REMARK    1  A    between atoms: C_1  and  C_2
REMARK    2  A    between atoms: C_2  and  N_3
REMARK    3  A    between atoms: N_3  and  C_4
REMARK    4  A    between atoms: N_3  and  S_10
REMARK    5  A    between atoms: S_10  and  C_13
REMARK    6  A    between atoms: C_26  and  C_29
REMARK                            x       y       z     vdW  Elec       q    Type
REMARK                         _______ _______ _______ _____ _____    ______ ____
ROOT
ATOM      1  C   UNL     1       1.974   3.453  -0.128  0.00  0.00    +0.109 A 
ATOM      2  C   UNL     1       1.029   2.450  -0.248  0.00  0.00    +0.030 A 
ATOM      3  C   UNL     1      -0.289   2.778  -0.499  0.00  0.00    +0.025 A 
ATOM      4  C   UNL     1      -0.662   4.111  -0.619  0.00  0.00    +0.031 A 
ATOM      5  C   UNL     1       0.282   5.119  -0.500  0.00  0.00    -0.018 A 
ATOM      6  C   UNL     1       1.604   4.776  -0.253  0.00  0.00    +0.034 A 
ATOM      7  C   UNL     1      -0.073   6.567  -0.627  0.00  0.00    +0.049 C 
ATOM      8  C   UNL     1       0.375   7.128  -1.956  0.00  0.00    -0.023 C 
ATOM      9  C   UNL     1      -0.499   8.001  -2.396  0.00  0.00    -0.030 C 
ATOM     10  C   UNL     1      -1.647   8.144  -1.416  0.00  0.00    +0.033 C 
ATOM     11  C   UNL     1      -1.593   6.818  -0.602  0.00  0.00    +0.029 C 
ATOM     12  C   UNL     1      -2.313   5.748  -1.427  0.00  0.00    +0.106 C 
ATOM     13  N   UNL     1      -2.002   4.428  -0.869  0.00  0.00    -0.336 N 
ATOM     14  H   UNL     1      -2.812   3.715  -0.656  0.00  0.00    +0.147 HD
ENDROOT
BRANCH  12  15
ATOM     15  C   UNL     1      -1.845   5.814  -2.858  0.00  0.00    -0.009 A 
ATOM     16  C   UNL     1      -0.703   5.137  -3.243  0.00  0.00    +0.008 A 
ATOM     17  C   UNL     1      -0.273   5.197  -4.555  0.00  0.00    +0.020 A 
ATOM     18  C   UNL     1      -0.986   5.934  -5.484  0.00  0.00    +0.042 A 
ATOM     19  C   UNL     1      -2.129   6.612  -5.099  0.00  0.00    +0.040 A 
ATOM     20  C   UNL     1      -2.562   6.547  -3.787  0.00  0.00    +0.047 A 
ATOM     21 CL   UNL     1      -4.000   7.391  -3.305  0.00  0.00    -0.083 Cl
ATOM     22 CL   UNL     1      -0.446   6.008  -7.133  0.00  0.00    -0.083 Cl
ENDBRANCH  12  15
BRANCH   1  23
ATOM     23  S   UNL     1       3.658   3.038   0.184  0.00  0.00    +0.075 S 
ATOM     24  O   UNL     1       4.249   4.176   0.796  0.00  0.00    -0.150 OA
ATOM     25  O   UNL     1       3.653   1.758   0.801  0.00  0.00    -0.150 OA
BRANCH  23  26
ATOM     26  N   UNL     1       4.397   2.853  -1.286  0.00  0.00    -0.203 N 
BRANCH  26  27
ATOM     27  C   UNL     1       4.522   1.581  -1.849  0.00  0.00    +0.051 A 
ATOM     28  C   UNL     1       3.940   1.305  -3.080  0.00  0.00    +0.025 A 
ATOM     29  C   UNL     1       4.069   0.048  -3.637  0.00  0.00    +0.002 A 
ATOM     30  C   UNL     1       4.768  -0.939  -2.966  0.00  0.00    +0.000 A 
ATOM     31  C   UNL     1       5.344  -0.669  -1.738  0.00  0.00    +0.002 A 
ATOM     32  C   UNL     1       5.223   0.587  -1.178  0.00  0.00    +0.025 A 
ENDBRANCH  26  27
BRANCH  26  34
ATOM     33  C   UNL     1       6.409   4.188  -1.677  0.00  0.00    +0.026 C 
ATOM     34  C   UNL     1       4.921   4.022  -1.995  0.00  0.00    +0.128 C 
ENDBRANCH  26  34
ENDBRANCH  23  26
ENDBRANCH   1  23
TORSDOF 5
