REMARK  Name = ZINC67332890
REMARK  6 active torsions:
REMARK  status: ('A' for Active; 'I' for Inactive)
REMARK    1  A    between atoms: C_3  and  C_26
REMARK    2  A    between atoms: C_8  and  C_9
REMARK    3  A    between atoms: N_11  and  C_12
REMARK    4  A    between atoms: C_12  and  C_13
REMARK    5  A    between atoms: N_18  and  C_19
REMARK    6  A    between atoms: C_19  and  C_20
REMARK                            x       y       z     vdW  Elec       q    Type
REMARK                         _______ _______ _______ _____ _____    ______ ____
ROOT
ATOM      1  C   UNL     1      -1.578  -0.919   0.216  0.00  0.00    +0.249 C 
ATOM      2  O   UNL     1      -2.680  -0.412   0.315  0.00  0.00    -0.270 OA
ATOM      3  N   UNL     1      -1.462  -2.248   0.030  0.00  0.00    -0.313 N 
ATOM      4  H   UNL     1      -0.586  -2.663   0.027  0.00  0.00    +0.149 HD
ENDROOT
BRANCH   1  12
ATOM      5  C   UNL     1      -0.483   1.308   0.368  0.00  0.00    +0.020 A 
ATOM      6  C   UNL     1       0.675   2.075   0.448  0.00  0.00    +0.027 A 
ATOM      7  C   UNL     1       1.910   1.458   0.459  0.00  0.00    +0.049 A 
ATOM      8  N   UNL     1       2.014   0.100   0.392  0.00  0.00    -0.321 N 
ATOM      9  H   UNL     1       2.891  -0.314   0.402  0.00  0.00    +0.169 HD
ATOM     10  C   UNL     1       0.915  -0.675   0.315  0.00  0.00    +0.261 A 
ATOM     11  O   UNL     1       1.027  -1.887   0.256  0.00  0.00    -0.267 OA
ATOM     12  C   UNL     1      -0.373  -0.081   0.301  0.00  0.00    +0.101 A 
BRANCH   7  13
ATOM     13  C   UNL     1       3.136   2.280   0.544  0.00  0.00    +0.001 A 
ATOM     14  C   UNL     1       3.063   3.676   0.619  0.00  0.00    +0.029 A 
ATOM     15  C   UNL     1       4.233   4.404   0.697  0.00  0.00    +0.111 A 
ATOM     16  N   UNL     1       5.406   3.802   0.701  0.00  0.00    -0.263 NA
ATOM     17  C   UNL     1       5.521   2.490   0.632  0.00  0.00    +0.111 A 
ATOM     18  C   UNL     1       4.403   1.684   0.557  0.00  0.00    +0.029 A 
ENDBRANCH   7  13
ENDBRANCH   1  12
BRANCH   3  19
ATOM     19  C   UNL     1      -2.661  -3.067  -0.169  0.00  0.00    +0.089 C 
BRANCH  19  20
ATOM     20  C   UNL     1      -2.254  -4.530  -0.356  0.00  0.00    -0.051 C 
ATOM     21  C   UNL     1      -3.489  -5.375  -0.733  0.00  0.00    -0.016 C 
ATOM     22  C   UNL     1      -3.395  -5.460  -2.279  0.00  0.00    -0.020 C 
ATOM     23  C   UNL     1      -1.863  -5.538  -2.496  0.00  0.00    -0.078 C 
ATOM     24  N   UNL     1      -1.287  -4.644  -1.464  0.00  0.00    +0.383 N 
ATOM     25  H   UNL     1      -1.116  -3.732  -1.860  0.00  0.00    -0.081 HD
BRANCH  24  26
ATOM     26  C   UNL     1      -0.027  -5.210  -0.964  0.00  0.00    -0.075 C 
BRANCH  26  27
ATOM     27  C   UNL     1       1.006  -5.230  -2.092  0.00  0.00    -0.028 C 
ATOM     28  C   UNL     1       2.300  -5.871  -1.588  0.00  0.00    +0.002 C 
ATOM     29  C   UNL     1       3.333  -5.892  -2.716  0.00  0.00    +0.000 C 
ATOM     30  C   UNL     1       3.617  -4.460  -3.174  0.00  0.00    +0.000 C 
ATOM     31  C   UNL     1       2.323  -3.819  -3.678  0.00  0.00    +0.000 C 
ATOM     32  C   UNL     1       1.290  -3.798  -2.550  0.00  0.00    +0.002 C 
ENDBRANCH  26  27
ENDBRANCH  24  26
ENDBRANCH  19  20
ENDBRANCH   3  19
TORSDOF 6
