REMARK  Name = ZINC17780859
REMARK  13 active torsions:
REMARK  status: ('A' for Active; 'I' for Inactive)
REMARK    1  A    between atoms: C_1  and  C_2
REMARK    2  A    between atoms: C_2  and  C_3
REMARK    3  A    between atoms: C_3  and  C_4
REMARK    4  A    between atoms: C_4  and  O_5
REMARK    5  A    between atoms: O_5  and  C_6
REMARK    6  A    between atoms: C_9  and  N_12
REMARK    7  A    between atoms: C_16  and  S_20
REMARK    8  A    between atoms: S_20  and  C_21
REMARK    9  A    between atoms: N_23  and  N_24
REMARK   10  A    between atoms: C_25  and  C_26
REMARK   11  A    between atoms: C_29  and  N_32
REMARK   12  A    between atoms: N_32  and  C_33
REMARK   13  A    between atoms: N_32  and  C_34
REMARK                            x       y       z     vdW  Elec       q    Type
REMARK                         _______ _______ _______ _____ _____    ______ ____
ROOT
ATOM      1  N   UNL     1       1.994  -7.828   2.941  0.00  0.00    -0.209 N 
ATOM      2  C   UNL     1       1.402  -8.685   2.101  0.00  0.00    +0.228 C 
ATOM      3  O   UNL     1       0.738  -8.376   1.135  0.00  0.00    -0.275 OA
ATOM      4  C   UNL     1       1.692 -10.102   2.547  0.00  0.00    +0.120 C 
ATOM      5  C   UNL     1       2.564  -9.912   3.805  0.00  0.00    +0.149 C 
ATOM      6  C   UNL     1       2.680  -8.409   3.934  0.00  0.00    +0.240 C 
ATOM      7  O   UNL     1       3.293  -7.824   4.800  0.00  0.00    -0.274 OA
ENDROOT
BRANCH   1  11
ATOM      8  C   UNL     1       1.739  -3.688   2.494  0.00  0.00    +0.121 A 
ATOM      9  C   UNL     1       2.981  -4.305   2.542  0.00  0.00    +0.047 A 
ATOM     10  C   UNL     1       3.066  -5.676   2.691  0.00  0.00    +0.027 A 
ATOM     11  C   UNL     1       1.908  -6.436   2.791  0.00  0.00    +0.044 A 
ATOM     12  C   UNL     1       0.666  -5.818   2.743  0.00  0.00    +0.027 A 
ATOM     13  C   UNL     1       0.582  -4.447   2.600  0.00  0.00    +0.047 A 
BRANCH   8  14
ATOM     14  O   UNL     1       1.656  -2.339   2.349  0.00  0.00    -0.492 OA
BRANCH  14  15
ATOM     15  C   UNL     1       2.887  -1.621   2.246  0.00  0.00    +0.229 C 
BRANCH  15  16
ATOM     16  C   UNL     1       2.594  -0.127   2.089  0.00  0.00    +0.041 C 
BRANCH  16  18
ATOM     17  C   UNL     1       3.620   2.136   1.822  0.00  0.00    +0.004 C 
ATOM     18  C   UNL     1       3.912   0.642   1.979  0.00  0.00    -0.000 C 
ENDBRANCH  16  18
ENDBRANCH  15  16
ENDBRANCH  14  15
ENDBRANCH   8  14
ENDBRANCH   1  11
BRANCH   5  19
ATOM     19  S   UNL     1       4.200 -10.659   3.566  0.00  0.00    -0.078 S 
BRANCH  19  20
ATOM     20  C   UNL     1       4.985 -10.476   5.133  0.00  0.00    +0.146 C 
ATOM     21  N   UNL     1       4.351  -9.900   6.117  0.00  0.00    -0.380 N 
ATOM     22  N   UNL     1       6.268 -10.941   5.318  0.00  0.00    -0.217 N 
ATOM     23  H   UNL     1       4.784  -9.800   6.979  0.00  0.00    +0.158 HD
ATOM     24  H   UNL     1       6.739 -11.369   4.586  0.00  0.00    +0.176 HD
ATOM     25  H   UNL     1       3.448  -9.573   5.986  0.00  0.00    +0.158 HD
BRANCH  22  26
ATOM     26  N   UNL     1       6.892 -10.796   6.564  0.00  0.00    -0.188 NA
ATOM     27  C   UNL     1       8.101 -11.234   6.739  0.00  0.00    +0.138 C 
BRANCH  27  28
ATOM     28  C   UNL     1       8.758 -11.082   8.050  0.00  0.00    -0.005 A 
ATOM     29  C   UNL     1       8.078 -10.470   9.107  0.00  0.00    +0.011 A 
ATOM     30  C   UNL     1       8.695 -10.329  10.330  0.00  0.00    +0.024 A 
ATOM     31  C   UNL     1       9.993 -10.794  10.514  0.00  0.00    +0.029 A 
ATOM     32  C   UNL     1      10.673 -11.403   9.464  0.00  0.00    +0.024 A 
ATOM     33  C   UNL     1      10.060 -11.553   8.240  0.00  0.00    +0.011 A 
BRANCH  31  34
ATOM     34  N   UNL     1      10.615 -10.650  11.755  0.00  0.00    -0.336 N 
ATOM     35  C   UNL     1       9.861 -10.123  12.895  0.00  0.00    +0.129 C 
ATOM     36  C   UNL     1      12.021 -11.026  11.918  0.00  0.00    +0.129 C 
ENDBRANCH  31  34
ENDBRANCH  27  28
ENDBRANCH  22  26
ENDBRANCH  19  20
ENDBRANCH   5  19
TORSDOF 10
