REMARK  Name = ZINC01873548
REMARK  5 active torsions:
REMARK  status: ('A' for Active; 'I' for Inactive)
REMARK    1  A    between atoms: C_4  and  C_7
REMARK    2  A    between atoms: C_10  and  C_29
REMARK    3  A    between atoms: C_10  and  O_36
REMARK    4  A    between atoms: N_12  and  C_13
REMARK    5  A    between atoms: N_18  and  C_21
REMARK                            x       y       z     vdW  Elec       q    Type
REMARK                         _______ _______ _______ _____ _____    ______ ____
ROOT
ATOM      1  C   UNL     1       3.204  -1.102   0.068  0.00  0.00    +0.121 C 
ATOM      2  C   UNL     1       3.454  -1.778   1.441  0.00  0.00    +0.097 C 
ATOM      3  C   UNL     1       4.540  -2.820   1.071  0.00  0.00    +0.215 C 
ATOM      4  O   UNL     1       4.176  -3.258  -0.250  0.00  0.00    -0.256 OA
ATOM      5  N   UNL     1       3.366  -2.216  -0.895  0.00  0.00    -0.164 NA
ENDROOT
BRANCH   5   6
ATOM      6  C   UNL     1       3.993  -1.750  -2.139  0.00  0.00    +0.180 C 
ATOM      7  C   UNL     1       3.995  -2.871  -3.198  0.00  0.00    +0.127 C 
ATOM      8  C   UNL     1       3.165  -2.296  -4.325  0.00  0.00    +0.228 C 
ATOM      9  O   UNL     1       2.912  -2.859  -5.368  0.00  0.00    -0.275 OA
ATOM     10  N   UNL     1       2.754  -1.068  -3.986  0.00  0.00    -0.209 N 
ATOM     11  C   UNL     1       3.163  -0.657  -2.776  0.00  0.00    +0.246 C 
ATOM     12  O   UNL     1       2.909   0.416  -2.272  0.00  0.00    -0.273 OA
BRANCH  10  13
ATOM     13  C   UNL     1       1.961  -0.274  -4.828  0.00  0.00    +0.045 A 
ATOM     14  C   UNL     1       2.484   0.885  -5.385  0.00  0.00    +0.025 A 
ATOM     15  C   UNL     1       1.703   1.666  -6.215  0.00  0.00    +0.023 A 
ATOM     16  C   UNL     1       0.399   1.293  -6.491  0.00  0.00    +0.059 A 
ATOM     17  C   UNL     1      -0.125   0.138  -5.937  0.00  0.00    +0.061 A 
ATOM     18  C   UNL     1       0.655  -0.649  -5.111  0.00  0.00    +0.045 A 
ATOM     19 CL   UNL     1      -1.761  -0.327  -6.286  0.00  0.00    -0.082 Cl
ATOM     20 CL   UNL     1      -0.580   2.277  -7.534  0.00  0.00    -0.082 Cl
ENDBRANCH  10  13
ENDBRANCH   5   6
BRANCH   3  21
ATOM     21  C   UNL     1       4.512  -3.977   2.037  0.00  0.00    +0.013 A 
ATOM     22  C   UNL     1       5.279  -3.937   3.186  0.00  0.00    +0.010 A 
ATOM     23  C   UNL     1       5.252  -4.997   4.072  0.00  0.00    +0.016 A 
ATOM     24  C   UNL     1       4.458  -6.099   3.809  0.00  0.00    +0.018 A 
ATOM     25  C   UNL     1       3.691  -6.138   2.659  0.00  0.00    +0.016 A 
ATOM     26  C   UNL     1       3.714  -5.075   1.776  0.00  0.00    +0.010 A 
ATOM     27 BR   UNL     1       4.422  -7.550   5.021  0.00  0.00    -0.050 Br
ENDBRANCH   3  21
BRANCH   1  31
ATOM     28  C   UNL     1      -0.753   0.497  -0.129  0.00  0.00    +0.000 A 
ATOM     29  C   UNL     1       0.322   1.337   0.095  0.00  0.00    +0.000 A 
ATOM     30  C   UNL     1       1.602   0.820   0.159  0.00  0.00    +0.005 A 
ATOM     31  C   UNL     1       1.808  -0.538  -0.001  0.00  0.00    -0.028 A 
ATOM     32  C   UNL     1       0.733  -1.378  -0.224  0.00  0.00    +0.005 A 
ATOM     33  C   UNL     1      -0.547  -0.861  -0.289  0.00  0.00    +0.000 A 
ENDBRANCH   1  31
BRANCH   3  34
ATOM     34  O   UNL     1       5.833  -2.211   1.057  0.00  0.00    -0.360 OA
ATOM     35  H   UNL     1       6.551  -2.818   0.832  0.00  0.00    +0.213 HD
ENDBRANCH   3  34
TORSDOF 5
