REMARK  Name = ZINC15672486
REMARK  12 active torsions:
REMARK  status: ('A' for Active; 'I' for Inactive)
REMARK    1  A    between atoms: C_1  and  C_2
REMARK    2  A    between atoms: C_2  and  C_3
REMARK    3  A    between atoms: C_3  and  N_4
REMARK    4  A    between atoms: C_5  and  O_7
REMARK    5  A    between atoms: O_7  and  C_8
REMARK    6  A    between atoms: C_8  and  C_9
REMARK    7  A    between atoms: C_17  and  C_19
REMARK    8  A    between atoms: C_21  and  C_26
REMARK    9  A    between atoms: C_23  and  C_25
REMARK   10  A    between atoms: C_29  and  N_32
REMARK   11  A    between atoms: N_32  and  C_33
REMARK   12  A    between atoms: N_32  and  C_34
REMARK                            x       y       z     vdW  Elec       q    Type
REMARK                         _______ _______ _______ _____ _____    ______ ____
ROOT
ATOM      1  C   UNL     1      -1.275   1.659   8.710  0.00  0.00    -0.030 C 
ATOM      2  C   UNL     1      -0.671   1.244  10.054  0.00  0.00    -0.008 C 
ATOM      3  C   UNL     1      -0.287   2.507  10.836  0.00  0.00    -0.007 C 
ATOM      4  C   UNL     1      -1.547   3.359  11.037  0.00  0.00    -0.015 C 
ATOM      5  C   UNL     1      -2.126   3.716   9.665  0.00  0.00    -0.078 C 
ATOM      6  C   UNL     1       0.076   3.670   8.660  0.00  0.00    -0.068 C 
ATOM      7  C   UNL     1       0.720   3.311  10.004  0.00  0.00    +0.024 C 
ATOM      8  N   UNL     1      -1.299   3.133   8.587  0.00  0.00    +0.384 N 
ATOM      9  H   UNL     1      -1.708   3.385   7.680  0.00  0.00    -0.081 HD
ENDROOT
BRANCH   7  10
ATOM     10  C   UNL     1       1.955   2.481   9.766  0.00  0.00    +0.047 A 
ATOM     11  C   UNL     1       2.414   1.614  10.742  0.00  0.00    +0.052 A 
ATOM     12  C   UNL     1       3.561   0.862  10.473  0.00  0.00    +0.075 A 
ATOM     13  N   UNL     1       4.171   1.015   9.298  0.00  0.00    -0.232 NA
ATOM     14  C   UNL     1       3.699   1.856   8.402  0.00  0.00    +0.127 A 
ATOM     15  N   UNL     1       2.617   2.576   8.623  0.00  0.00    -0.237 NA
ATOM     16  C   UNL     1       4.418   2.001   7.085  0.00  0.00    +0.088 C 
BRANCH  12  17
ATOM     17  C   UNL     1       4.094  -0.086  11.480  0.00  0.00    +0.001 A 
ATOM     18  C   UNL     1       3.391  -0.315  12.663  0.00  0.00    +0.012 A 
ATOM     19  C   UNL     1       3.885  -1.201  13.596  0.00  0.00    +0.024 A 
ATOM     20  C   UNL     1       5.089  -1.858  13.363  0.00  0.00    +0.029 A 
ATOM     21  C   UNL     1       5.794  -1.626  12.186  0.00  0.00    +0.024 A 
ATOM     22  C   UNL     1       5.301  -0.746  11.249  0.00  0.00    +0.012 A 
BRANCH  20  23
ATOM     23  N   UNL     1       5.590  -2.750  14.310  0.00  0.00    -0.336 N 
ATOM     24  C   UNL     1       6.916  -3.345  14.127  0.00  0.00    +0.129 C 
ATOM     25  C   UNL     1       4.790  -3.092  15.489  0.00  0.00    +0.129 C 
ENDBRANCH  20  23
ENDBRANCH  12  17
ENDBRANCH   7  10
BRANCH   1  26
ATOM     26  C   UNL     1      -0.433   1.080   7.571  0.00  0.00    +0.218 C 
BRANCH  26  27
ATOM     27  O   UNL     1      -1.022   1.450   6.297  0.00  0.00    -0.452 OA
BRANCH  27  29
ATOM     28  N   UNL     1      -1.018   1.151   3.983  0.00  0.00    -0.281 N 
ATOM     29  C   UNL     1      -0.458   0.932   5.189  0.00  0.00    +0.400 C 
ATOM     30  O   UNL     1       0.554   0.266   5.278  0.00  0.00    -0.226 OA
ATOM     31  H   UNL     1      -1.826   1.682   3.912  0.00  0.00    +0.152 HD
BRANCH  28  32
ATOM     32  C   UNL     1      -0.404   0.587   2.778  0.00  0.00    +0.107 C 
BRANCH  32  34
ATOM     33  C   UNL     1      -0.590   0.393   0.294  0.00  0.00    +0.005 C 
ATOM     34  C   UNL     1      -1.230   0.982   1.552  0.00  0.00    +0.015 C 
ENDBRANCH  32  34
ENDBRANCH  28  32
ENDBRANCH  27  29
ENDBRANCH  26  27
ENDBRANCH   1  26
TORSDOF 8
