REMARK  Name = ZINC01356468
REMARK  5 active torsions:
REMARK  status: ('A' for Active; 'I' for Inactive)
REMARK    1  A    between atoms: C_1  and  C_2
REMARK    2  A    between atoms: C_2  and  C_3
REMARK    3  A    between atoms: C_3  and  N_4
REMARK    4  A    between atoms: C_8  and  C_10
REMARK    5  A    between atoms: C_17  and  C_19
REMARK                            x       y       z     vdW  Elec       q    Type
REMARK                         _______ _______ _______ _____ _____    ______ ____
ROOT
ATOM      1  N   UNL     1       0.002  -0.004   0.002  0.00  0.00    -0.249 N 
ATOM      2  C   UNL     1      -1.192  -0.715   0.010  0.00  0.00    +0.191 A 
ATOM      3  N   UNL     1      -1.404  -2.025   0.005  0.00  0.00    -0.125 NA
ATOM      4  N   UNL     1      -2.567  -2.512   0.014  0.00  0.00    -0.140 NA
ATOM      5  C   UNL     1      -3.649  -1.743   0.029  0.00  0.00    +0.134 A 
ATOM      6  S   UNL     1      -2.882  -0.125   0.036  0.00  0.00    -0.030 S 
ATOM      7  C   UNL     1      -0.016   1.344   0.009  0.00  0.00    +0.224 C 
ATOM      8  O   UNL     1      -1.075   1.936   0.018  0.00  0.00    -0.275 OA
ENDROOT
BRANCH   5   9
ATOM      9  C   UNL     1      -5.080  -2.116   0.042  0.00  0.00    +0.009 A 
ATOM     10  C   UNL     1      -6.062  -1.125   0.063  0.00  0.00    +0.012 A 
ATOM     11  C   UNL     1      -7.395  -1.479   0.070  0.00  0.00    +0.020 A 
ATOM     12  C   UNL     1      -7.759  -2.814   0.067  0.00  0.00    +0.041 A 
ATOM     13  C   UNL     1      -6.789  -3.803   0.051  0.00  0.00    +0.020 A 
ATOM     14  C   UNL     1      -5.453  -3.461   0.039  0.00  0.00    +0.012 A 
ATOM     15 CL   UNL     1      -9.439  -3.252   0.082  0.00  0.00    -0.084 Cl
ENDBRANCH   5   9
BRANCH   7  16
ATOM     16  C   UNL     1       1.278   2.115   0.001  0.00  0.00    +0.076 C 
ATOM     17  C   UNL     1       1.915   2.264   1.393  0.00  0.00    +0.013 C 
ATOM     18  C   UNL     1       2.273   3.704   0.988  0.00  0.00    +0.001 C 
ATOM     19  C   UNL     1       1.087   3.640   0.011  0.00  0.00    +0.013 C 
ENDBRANCH   7  16
BRANCH   1  20
ATOM     20  C   UNL     1       1.281  -0.719  -0.014  0.00  0.00    +0.115 C 
BRANCH  20  22
ATOM     21  C   UNL     1       3.075  -1.723   1.406  0.00  0.00    +0.005 C 
ATOM     22  C   UNL     1       1.739  -0.976   1.423  0.00  0.00    +0.016 C 
ENDBRANCH  20  22
ENDBRANCH   1  20
TORSDOF 4
