REMARK  Name = ZINC18249795
REMARK  2 active torsions:
REMARK  status: ('A' for Active; 'I' for Inactive)
REMARK    1  A    between atoms: C_10  and  N_11
REMARK    2  A    between atoms: C_16  and  C_34
REMARK                            x       y       z     vdW  Elec       q    Type
REMARK                         _______ _______ _______ _____ _____    ______ ____
ROOT
ATOM      1  N   UNL     1       4.873   0.100  -0.044  0.00  0.00    -0.209 N 
ATOM      2  C   UNL     1       5.537   0.478   1.089  0.00  0.00    +0.233 C 
ATOM      3  O   UNL     1       5.380   0.042   2.209  0.00  0.00    -0.274 OA
ATOM      4  C   UNL     1       6.505   1.546   0.657  0.00  0.00    +0.125 C 
ATOM      5  C   UNL     1       7.946   1.512   1.183  0.00  0.00    +0.164 C 
ATOM      6  O   UNL     1       8.723   1.993   0.046  0.00  0.00    -0.348 OA
ATOM      7  C   UNL     1       8.004   1.674  -1.181  0.00  0.00    +0.206 C 
ATOM      8  C   UNL     1       6.828   0.902  -0.753  0.00  0.00    +0.138 C 
ATOM      9  C   UNL     1       5.516   0.495  -1.191  0.00  0.00    +0.234 C 
ATOM     10  O   UNL     1       5.077   0.504  -2.321  0.00  0.00    -0.274 OA
ATOM     11  C   UNL     1       8.930   0.928  -2.109  0.00  0.00    +0.204 C 
ATOM     12  O   UNL     1       9.441  -0.151  -1.902  0.00  0.00    -0.288 OA
ATOM     13  C   UNL     1       9.096   1.758  -3.317  0.00  0.00    +0.031 A 
ATOM     14  C   UNL     1       9.838   1.535  -4.480  0.00  0.00    +0.012 A 
ATOM     15  C   UNL     1       9.838   2.475  -5.492  0.00  0.00    +0.001 A 
ATOM     16  C   UNL     1       9.106   3.643  -5.364  0.00  0.00    +0.001 A 
ATOM     17  C   UNL     1       8.365   3.882  -4.223  0.00  0.00    +0.012 A 
ATOM     18  C   UNL     1       8.349   2.945  -3.188  0.00  0.00    +0.031 A 
ATOM     19  C   UNL     1       7.651   2.957  -1.890  0.00  0.00    +0.204 C 
ATOM     20  O   UNL     1       6.928   3.835  -1.470  0.00  0.00    -0.288 OA
ENDROOT
BRANCH   1  30
ATOM     21  C   UNL     1      -0.016   1.357   0.009  0.00  0.00    +0.001 A 
ATOM     22  C   UNL     1       1.169   2.090   0.002  0.00  0.00    +0.001 A 
ATOM     23  C   UNL     1       2.378   1.466  -0.013  0.00  0.00    +0.010 A 
ATOM     24  C   UNL     1       2.437   0.064  -0.021  0.00  0.00    +0.004 A 
ATOM     25  C   UNL     1       1.233  -0.683  -0.013  0.00  0.00    -0.016 A 
ATOM     26  C   UNL     1       0.002  -0.004   0.002  0.00  0.00    +0.008 A 
ATOM     27  C   UNL     1       1.290  -2.087  -0.021  0.00  0.00    +0.008 A 
ATOM     28  C   UNL     1       2.496  -2.718  -0.035  0.00  0.00    +0.002 A 
ATOM     29  C   UNL     1       3.685  -1.995  -0.042  0.00  0.00    +0.024 A 
ATOM     30  C   UNL     1       3.672  -0.617  -0.036  0.00  0.00    +0.052 A 
ENDBRANCH   1  30
BRANCH   5  31
ATOM     31  C   UNL     1       8.102   2.430   2.368  0.00  0.00    +0.000 A 
ATOM     32  C   UNL     1       8.558   3.722   2.185  0.00  0.00    +0.007 A 
ATOM     33  C   UNL     1       8.702   4.564   3.272  0.00  0.00    +0.000 A 
ATOM     34  C   UNL     1       8.390   4.115   4.542  0.00  0.00    +0.001 A 
ATOM     35  C   UNL     1       7.934   2.823   4.725  0.00  0.00    +0.020 A 
ATOM     36  C   UNL     1       7.785   1.982   3.637  0.00  0.00    +0.047 A 
ATOM     37 CL   UNL     1       7.206   0.361   3.866  0.00  0.00    -0.083 Cl
ENDBRANCH   5  31
TORSDOF 2
