REMARK  Name = ZINC39687280
REMARK  9 active torsions:
REMARK  status: ('A' for Active; 'I' for Inactive)
REMARK    1  A    between atoms: C_1  and  S_2
REMARK    2  A    between atoms: S_2  and  C_3
REMARK    3  A    between atoms: C_3  and  C_4
REMARK    4  A    between atoms: C_4  and  C_5
REMARK    5  A    between atoms: C_9  and  C_18
REMARK    6  A    between atoms: N_20  and  C_21
REMARK    7  A    between atoms: C_21  and  C_23
REMARK    8  A    between atoms: C_21  and  C_30
REMARK    9  A    between atoms: C_23  and  C_24
REMARK                            x       y       z     vdW  Elec       q    Type
REMARK                         _______ _______ _______ _____ _____    ______ ____
ROOT
ATOM      1  C   UNL     1       1.439  -7.080  -3.148  0.00  0.00    +0.219 C 
ATOM      2  O   UNL     1       2.294  -7.626  -3.813  0.00  0.00    -0.275 OA
ATOM      3  N   UNL     1       0.927  -7.702  -2.067  0.00  0.00    -0.303 N 
ATOM      4  H   UNL     1       0.243  -7.265  -1.535  0.00  0.00    +0.149 HD
ENDROOT
BRANCH   1   9
ATOM      5  C   UNL     1       1.700  -2.812  -5.571  0.00  0.00    +0.216 C 
ATOM      6  O   UNL     1       1.081  -2.301  -6.481  0.00  0.00    -0.276 OA
ATOM      7  N   UNL     1       1.456  -4.091  -5.225  0.00  0.00    -0.300 N 
ATOM      8  C   UNL     1       2.099  -4.878  -4.147  0.00  0.00    +0.121 C 
ATOM      9  C   UNL     1       0.950  -5.707  -3.530  0.00  0.00    +0.100 C 
ATOM     10  C   UNL     1      -0.106  -5.803  -4.644  0.00  0.00    -0.004 C 
ATOM     11  C   UNL     1       0.479  -5.026  -5.832  0.00  0.00    +0.115 C 
ATOM     12  C   UNL     1      -1.413  -5.158  -4.191  0.00  0.00    -0.010 C 
ATOM     13  C   UNL     1      -2.464  -5.317  -5.293  0.00  0.00    -0.082 C 
ATOM     14  N   UNL     1      -2.670  -6.743  -5.573  0.00  0.00    +0.379 N 
ATOM     15  C   UNL     1      -1.433  -7.335  -6.096  0.00  0.00    -0.082 C 
ATOM     16  C   UNL     1      -0.338  -7.262  -5.028  0.00  0.00    -0.010 C 
ATOM     17  H   UNL     1      -2.935  -7.216  -4.722  0.00  0.00    -0.086 HD
ATOM     18  H   UNL     1      -3.406  -6.848  -6.255  0.00  0.00    -0.086 HD
BRANCH   5  19
ATOM     19  C   UNL     1       2.741  -2.015  -4.829  0.00  0.00    +0.106 C 
BRANCH  19  20
ATOM     20  C   UNL     1       2.820  -0.605  -5.416  0.00  0.00    +0.078 C 
BRANCH  20  22
ATOM     21  C   UNL     1       4.043   1.978  -5.329  0.00  0.00    +0.084 C 
ATOM     22  S   UNL     1       4.074   0.354  -4.522  0.00  0.00    -0.164 S 
ENDBRANCH  20  22
ENDBRANCH  19  20
ENDBRANCH   5  19
ENDBRANCH   1   9
BRANCH   3  23
ATOM     23  C   UNL     1       1.403  -9.036  -1.695  0.00  0.00    +0.163 C 
BRANCH  23  24
ATOM     24  C   UNL     1       0.334  -9.750  -0.908  0.00  0.00    +0.236 C 
ATOM     25  O   UNL     1      -0.571  -9.119  -0.406  0.00  0.00    -0.274 OA
ATOM     26  N   UNL     1       0.385 -11.089  -0.763  0.00  0.00    -0.300 N 
ATOM     27  C   UNL     1       1.411 -11.879  -1.457  0.00  0.00    +0.108 C 
ATOM     28  C   UNL     1       2.152 -12.737  -0.427  0.00  0.00    +0.019 C 
ATOM     29  C   UNL     1       1.139 -13.574   0.358  0.00  0.00    +0.003 C 
ATOM     30  C   UNL     1       0.178 -12.646   1.104  0.00  0.00    +0.019 C 
ATOM     31  C   UNL     1      -0.582 -11.786   0.097  0.00  0.00    +0.108 C 
ENDBRANCH  23  24
BRANCH  23  32
ATOM     32  C   UNL     1       2.666  -8.908  -0.841  0.00  0.00    +0.067 C 
BRANCH  32  33
ATOM     33  C   UNL     1       3.781  -8.334  -1.676  0.00  0.00    -0.045 A 
ATOM     34  C   UNL     1       4.619  -9.175  -2.384  0.00  0.00    +0.004 A 
ATOM     35  C   UNL     1       5.642  -8.649  -3.150  0.00  0.00    +0.000 A 
ATOM     36  C   UNL     1       5.827  -7.280  -3.208  0.00  0.00    +0.000 A 
ATOM     37  C   UNL     1       4.989  -6.438  -2.501  0.00  0.00    +0.000 A 
ATOM     38  C   UNL     1       3.963  -6.965  -1.738  0.00  0.00    +0.004 A 
ENDBRANCH  32  33
ENDBRANCH  23  32
ENDBRANCH   3  23
TORSDOF 8
