REMARK  Name = ZINC42010930
REMARK  6 active torsions:
REMARK  status: ('A' for Active; 'I' for Inactive)
REMARK    1  A    between atoms: C_1  and  C_2
REMARK    2  A    between atoms: C_2  and  C_3
REMARK    3  A    between atoms: C_2  and  C_10
REMARK    4  A    between atoms: C_2  and  S_13
REMARK    5  A    between atoms: S_13  and  C_14
REMARK    6  A    between atoms: C_20  and  N_22
REMARK                            x       y       z     vdW  Elec       q    Type
REMARK                         _______ _______ _______ _____ _____    ______ ____
ROOT
ATOM      1  C   UNL     1      -0.019   1.526   0.010  0.00  0.00    +0.040 C 
ATOM      2  C   UNL     1       0.002  -0.004   0.002  0.00  0.00    +0.149 C 
ENDROOT
BRANCH   2   3
ATOM      3  C   UNL     1       0.731  -0.503   1.223  0.00  0.00    +0.015 A 
ATOM      4  C   UNL     1       0.081  -1.317   2.132  0.00  0.00    +0.008 A 
ATOM      5  C   UNL     1       0.749  -1.775   3.252  0.00  0.00    +0.000 A 
ATOM      6  C   UNL     1       2.068  -1.420   3.464  0.00  0.00    +0.003 A 
ATOM      7  C   UNL     1       2.721  -0.607   2.557  0.00  0.00    +0.038 A 
ATOM      8  C   UNL     1       2.054  -0.152   1.431  0.00  0.00    +0.128 A 
ATOM      9  F   UNL     1       2.692   0.638   0.541  0.00  0.00    -0.205 F 
ENDBRANCH   2   3
BRANCH   2  10
ATOM     10  C   UNL     1       0.707  -0.490  -1.238  0.00  0.00    +0.376 C 
ATOM     11  O   UNL     1       1.869  -0.179  -1.440  0.00  0.00    -0.244 OA
ATOM     12  O   UNL     1       0.117  -1.195  -2.039  0.00  0.00    -0.244 OA
ENDBRANCH   2  10
BRANCH   2  13
ATOM     13  S   UNL     1      -1.700  -0.632   0.015  0.00  0.00    -0.065 S 
BRANCH  13  14
ATOM     14  C   UNL     1      -2.410   0.030  -1.456  0.00  0.00    +0.172 A 
ATOM     15  N   UNL     1      -3.709  -0.249  -1.754  0.00  0.00    -0.302 N 
ATOM     16  H   UNL     1      -4.233  -0.808  -1.158  0.00  0.00    +0.171 HD
ATOM     17  C   UNL     1      -4.269   0.250  -2.876  0.00  0.00    +0.254 A 
ATOM     18  O   UNL     1      -5.433   0.004  -3.150  0.00  0.00    -0.268 OA
ATOM     19  C   UNL     1      -3.494   1.052  -3.718  0.00  0.00    +0.113 A 
ATOM     20  C   UNL     1      -2.175   1.308  -3.369  0.00  0.00    +0.124 A 
ATOM     21  N   UNL     1      -1.675   0.790  -2.241  0.00  0.00    -0.209 NA
BRANCH  20  22
ATOM     22  N   UNL     1      -1.384   2.096  -4.180  0.00  0.00    -0.343 N 
ATOM     23  H   UNL     1      -1.750   2.474  -4.995  0.00  0.00    +0.144 HD
ATOM     24  H   UNL     1      -0.462   2.273  -3.934  0.00  0.00    +0.144 HD
ENDBRANCH  20  22
ENDBRANCH  13  14
ENDBRANCH   2  13
TORSDOF 5
