REMARK  Name = ZINC13732804
REMARK  5 active torsions:
REMARK  status: ('A' for Active; 'I' for Inactive)
REMARK    1  A    between atoms: C_1  and  C_2
REMARK    2  A    between atoms: C_3  and  C_22
REMARK    3  A    between atoms: C_4  and  C_15
REMARK    4  A    between atoms: C_8  and  C_11
REMARK    5  A    between atoms: N_24  and  C_25
REMARK                            x       y       z     vdW  Elec       q    Type
REMARK                         _______ _______ _______ _____ _____    ______ ____
ROOT
ATOM      1  C   UNL     1      -0.060   1.509  -0.514  0.00  0.00    +0.061 C 
ATOM      2  C   UNL     1      -0.017   0.014  -0.332  0.00  0.00    +0.017 C 
ATOM      3  C   UNL     1      -1.167  -0.654  -0.159  0.00  0.00    +0.060 C 
ATOM      4  C   UNL     1      -1.233  -2.143   0.044  0.00  0.00    +0.176 C 
ATOM      5  N   UNL     1       0.066  -2.739  -0.272  0.00  0.00    -0.238 N 
ATOM      6  C   UNL     1       1.192  -2.004  -0.445  0.00  0.00    +0.134 A 
ATOM      7  C   UNL     1       2.223  -2.881  -0.720  0.00  0.00    +0.096 A 
ATOM      8  C   UNL     1       1.666  -4.184  -0.709  0.00  0.00    +0.149 A 
ATOM      9  N   UNL     1       0.391  -4.082  -0.444  0.00  0.00    -0.176 NA
ATOM     10  N   UNL     1       1.200  -0.625  -0.354  0.00  0.00    -0.302 N 
ATOM     11  H   UNL     1       2.031  -0.128  -0.304  0.00  0.00    +0.153 HD
ENDROOT
BRANCH   4  12
ATOM     12  C   UNL     1      -1.586  -2.439   1.479  0.00  0.00    -0.018 A 
ATOM     13  C   UNL     1      -0.763  -1.994   2.498  0.00  0.00    +0.009 A 
ATOM     14  C   UNL     1      -1.086  -2.265   3.814  0.00  0.00    +0.039 A 
ATOM     15  C   UNL     1      -2.232  -2.981   4.113  0.00  0.00    +0.123 A 
ATOM     16  C   UNL     1      -3.055  -3.426   3.092  0.00  0.00    +0.039 A 
ATOM     17  C   UNL     1      -2.733  -3.150   1.776  0.00  0.00    +0.009 A 
ATOM     18  F   UNL     1      -2.548  -3.246   5.399  0.00  0.00    -0.205 F 
ENDBRANCH   4  12
BRANCH   7  19
ATOM     19  C   UNL     1       3.627  -2.530  -0.975  0.00  0.00    +0.246 C 
ATOM     20  O   UNL     1       3.976  -1.365  -0.956  0.00  0.00    -0.270 OA
ATOM     21  N   UNL     1       4.527  -3.500  -1.231  0.00  0.00    -0.325 N 
ATOM     22  H   UNL     1       4.249  -4.429  -1.246  0.00  0.00    +0.145 HD
ATOM     23  H   UNL     1       5.454  -3.268  -1.399  0.00  0.00    +0.145 HD
ENDBRANCH   7  19
BRANCH   3  24
ATOM     24  C   UNL     1      -2.377   0.079  -0.167  0.00  0.00    +0.248 C 
ATOM     25  O   UNL     1      -2.357   1.285  -0.329  0.00  0.00    -0.270 OA
ATOM     26  N   UNL     1      -3.552  -0.559   0.003  0.00  0.00    -0.282 N 
ATOM     27  H   UNL     1      -3.575  -1.528   0.055  0.00  0.00    +0.155 HD
BRANCH  26  28
ATOM     28  C   UNL     1      -4.738   0.175   0.106  0.00  0.00    +0.034 A 
ATOM     29  C   UNL     1      -5.926  -0.349  -0.388  0.00  0.00    +0.023 A 
ATOM     30  C   UNL     1      -7.095   0.379  -0.284  0.00  0.00    +0.002 A 
ATOM     31  C   UNL     1      -7.084   1.627   0.311  0.00  0.00    +0.000 A 
ATOM     32  C   UNL     1      -5.903   2.151   0.803  0.00  0.00    +0.002 A 
ATOM     33  C   UNL     1      -4.731   1.426   0.708  0.00  0.00    +0.023 A 
ENDBRANCH  26  28
ENDBRANCH   3  24
TORSDOF 4
