REMARK  Name = ZINC25501883
REMARK  7 active torsions:
REMARK  status: ('A' for Active; 'I' for Inactive)
REMARK    1  A    between atoms: C_4  and  C_7
REMARK    2  A    between atoms: C_8  and  C_28
REMARK    3  A    between atoms: C_10  and  C_11
REMARK    4  A    between atoms: C_10  and  O_17
REMARK    5  A    between atoms: C_18  and  C_20
REMARK    6  A    between atoms: C_20  and  C_22
REMARK    7  A    between atoms: C_28  and  C_30
REMARK                            x       y       z     vdW  Elec       q    Type
REMARK                         _______ _______ _______ _____ _____    ______ ____
ROOT
ATOM      1  C   UNL     1      -2.413   1.287  -0.354  0.00  0.00    -0.006 C 
ATOM      2  C   UNL     1      -1.209   1.913   0.013  0.00  0.00    +0.041 C 
ATOM      3  C   UNL     1      -1.377   3.347  -0.242  0.00  0.00    +0.039 C 
ATOM      4  C   UNL     1      -0.435   4.361  -0.019  0.00  0.00    +0.132 C 
ATOM      5  C   UNL     1      -2.733   3.502  -0.781  0.00  0.00    +0.034 C 
ATOM      6  C   UNL     1      -3.312   2.240  -0.824  0.00  0.00    +0.021 C 
ENDROOT
BRANCH   1  10
ATOM      7  C   UNL     1      -3.191  -2.881  -0.068  0.00  0.00    +0.000 A 
ATOM      8  C   UNL     1      -3.911  -1.991   0.709  0.00  0.00    +0.001 A 
ATOM      9  C   UNL     1      -3.663  -0.636   0.621  0.00  0.00    +0.008 A 
ATOM     10  C   UNL     1      -2.684  -0.165  -0.254  0.00  0.00    -0.017 A 
ATOM     11  C   UNL     1      -1.965  -1.067  -1.039  0.00  0.00    +0.008 A 
ATOM     12  C   UNL     1      -2.219  -2.420  -0.938  0.00  0.00    +0.001 A 
ENDBRANCH   1  10
BRANCH   4  13
ATOM     13  C   UNL     1      -0.824   5.771  -0.162  0.00  0.00    +0.017 A 
ATOM     14  C   UNL     1      -0.122   6.611  -1.035  0.00  0.00    +0.011 A 
ATOM     15  C   UNL     1      -0.497   7.930  -1.166  0.00  0.00    +0.001 A 
ATOM     16  C   UNL     1      -1.559   8.429  -0.430  0.00  0.00    +0.000 A 
ATOM     17  C   UNL     1      -2.256   7.606   0.439  0.00  0.00    +0.001 A 
ATOM     18  C   UNL     1      -1.897   6.283   0.578  0.00  0.00    +0.011 A 
ENDBRANCH   4  13
BRANCH   4  19
ATOM     19  O   UNL     1       0.828   4.043   0.325  0.00  0.00    -0.506 OA
ATOM     20  H   UNL     1       1.567   4.838   0.499  0.00  0.00    +0.292 HD
ENDBRANCH   4  19
BRANCH   5  21
ATOM     21  C   UNL     1      -3.366   4.764  -1.195  0.00  0.00    +0.194 C 
ATOM     22  O   UNL     1      -4.296   5.216  -0.554  0.00  0.00    -0.287 OA
BRANCH  21  23
ATOM     23  C   UNL     1      -2.872   5.482  -2.389  0.00  0.00    +0.022 A 
ATOM     24  C   UNL     1      -1.862   4.923  -3.175  0.00  0.00    +0.012 A 
ATOM     25  C   UNL     1      -1.410   5.596  -4.291  0.00  0.00    +0.001 A 
ATOM     26  C   UNL     1      -1.947   6.827  -4.626  0.00  0.00    +0.000 A 
ATOM     27  C   UNL     1      -2.944   7.388  -3.848  0.00  0.00    +0.001 A 
ATOM     28  C   UNL     1      -3.409   6.724  -2.732  0.00  0.00    +0.012 A 
ENDBRANCH  21  23
ENDBRANCH   5  21
BRANCH   2  29
ATOM     29  C   UNL     1      -0.014   1.257   0.554  0.00  0.00    +0.194 C 
ATOM     30  O   UNL     1       0.939   1.036  -0.170  0.00  0.00    -0.287 OA
BRANCH  29  31
ATOM     31  C   UNL     1       0.034   0.869   1.980  0.00  0.00    +0.022 A 
ATOM     32  C   UNL     1      -1.006   1.227   2.840  0.00  0.00    +0.012 A 
ATOM     33  C   UNL     1      -0.956   0.857   4.168  0.00  0.00    +0.001 A 
ATOM     34  C   UNL     1       0.126   0.143   4.651  0.00  0.00    +0.000 A 
ATOM     35  C   UNL     1       1.163  -0.210   3.805  0.00  0.00    +0.001 A 
ATOM     36  C   UNL     1       1.124   0.148   2.474  0.00  0.00    +0.012 A 
ENDBRANCH  29  31
ENDBRANCH   2  29
TORSDOF 7
