REMARK  Name = ZINC39362119
REMARK  9 active torsions:
REMARK  status: ('A' for Active; 'I' for Inactive)
REMARK    1  A    between atoms: C_1  and  C_2
REMARK    2  A    between atoms: C_10  and  C_12
REMARK    3  A    between atoms: C_12  and  C_13
REMARK    4  A    between atoms: C_22  and  C_26
REMARK    5  A    between atoms: C_26  and  N_27
REMARK    6  A    between atoms: N_27  and  C_28
REMARK    7  A    between atoms: N_27  and  C_29
REMARK    8  A    between atoms: C_29  and  C_30
REMARK    9  A    between atoms: C_33  and  C_35
REMARK                            x       y       z     vdW  Elec       q    Type
REMARK                         _______ _______ _______ _____ _____    ______ ____
ROOT
ATOM      1  C   UNL     1       1.301   0.473   2.929  0.00  0.00    +0.217 C 
ATOM      2  O   UNL     1       0.323   1.186   2.862  0.00  0.00    -0.276 OA
ATOM      3  N   UNL     1       2.354   0.842   3.686  0.00  0.00    -0.294 N 
ATOM      4  C   UNL     1       3.534  -0.020   3.759  0.00  0.00    +0.149 C 
ATOM      5  C   UNL     1       4.759   0.672   3.179  0.00  0.00    +0.248 C 
ATOM      6  O   UNL     1       5.054   1.860   3.924  0.00  0.00    -0.490 OA
ATOM      7  C   UNL     1       4.445   2.993   3.495  0.00  0.00    +0.125 A 
ATOM      8  C   UNL     1       5.184   3.997   2.883  0.00  0.00    +0.046 A 
ATOM      9  C   UNL     1       4.548   5.128   2.410  0.00  0.00    +0.008 A 
ATOM     10  C   UNL     1       3.178   5.265   2.540  0.00  0.00    -0.033 A 
ATOM     11  C   UNL     1       2.440   4.274   3.164  0.00  0.00    +0.013 A 
ATOM     12  C   UNL     1       3.077   3.156   3.654  0.00  0.00    +0.012 A 
ATOM     13  C   UNL     1       2.311   2.107   4.426  0.00  0.00    +0.146 C 
ENDROOT
BRANCH   1  14
ATOM     14  C   UNL     1       1.340  -0.827   2.167  0.00  0.00    +0.110 C 
BRANCH  14  24
ATOM     15  C   UNL     1       0.891  -2.448  -0.610  0.00  0.00    +0.061 C 
ATOM     16  C   UNL     1       0.029  -2.294   0.617  0.00  0.00    +0.024 C 
ATOM     17  N   UNL     1      -0.787  -3.169   1.084  0.00  0.00    -0.256 NA
ATOM     18  C   UNL     1      -1.445  -2.769   2.214  0.00  0.00    +0.068 A 
ATOM     19  C   UNL     1      -2.396  -3.419   3.009  0.00  0.00    +0.028 A 
ATOM     20  C   UNL     1      -2.917  -2.786   4.117  0.00  0.00    +0.002 A 
ATOM     21  C   UNL     1      -2.507  -1.508   4.454  0.00  0.00    +0.000 A 
ATOM     22  C   UNL     1      -1.566  -0.856   3.674  0.00  0.00    +0.006 A 
ATOM     23  C   UNL     1      -1.043  -1.480   2.569  0.00  0.00    -0.013 A 
ATOM     24  C   UNL     1      -0.025  -1.082   1.525  0.00  0.00    +0.074 C 
ENDBRANCH  14  24
ENDBRANCH   1  14
BRANCH  10  25
ATOM     25  C   UNL     1       2.488   6.492   2.002  0.00  0.00    +0.119 C 
BRANCH  25  26
ATOM     26  N   UNL     1       2.086   6.258   0.609  0.00  0.00    -0.296 NA
ATOM     27  C   UNL     1       3.260   6.107  -0.260  0.00  0.00    +0.105 C 
BRANCH  26  28
ATOM     28  C   UNL     1       1.207   7.332   0.127  0.00  0.00    +0.137 C 
BRANCH  28  29
ATOM     29  C   UNL     1       0.620   6.941  -1.205  0.00  0.00    +0.061 C 
ATOM     30  N   UNL     1       0.824   5.842  -1.853  0.00  0.00    -0.157 NA
ATOM     31  N   UNL     1       0.127   5.797  -3.056  0.00  0.00    -0.158 NA
ATOM     32  C   UNL     1      -0.572   6.865  -3.261  0.00  0.00    +0.050 C 
ATOM     33  C   UNL     1      -0.336   7.753  -2.055  0.00  0.00    +0.107 C 
BRANCH  32  34
ATOM     34  C   UNL     1      -1.447   7.163  -4.451  0.00  0.00    +0.036 C 
ATOM     35  C   UNL     1      -2.659   6.258  -4.681  0.00  0.00    +0.010 C 
ATOM     36  C   UNL     1      -1.442   6.154  -5.601  0.00  0.00    +0.010 C 
ENDBRANCH  32  34
ENDBRANCH  28  29
ENDBRANCH  26  28
ENDBRANCH  25  26
ENDBRANCH  10  25
TORSDOF 7
