REMARK  Name = ZINC25436813
REMARK  3 active torsions:
REMARK  status: ('A' for Active; 'I' for Inactive)
REMARK    1  A    between atoms: C_4  and  N_7
REMARK    2  A    between atoms: C_9  and  C_23
REMARK    3  A    between atoms: C_10  and  C_12
REMARK                            x       y       z     vdW  Elec       q    Type
REMARK                         _______ _______ _______ _____ _____    ______ ____
ROOT
ATOM      1  N   UNL     1       3.673  -0.607   0.168  0.00  0.00    -0.239 N 
ATOM      2  C   UNL     1       3.730  -1.943  -0.071  0.00  0.00    +0.122 A 
ATOM      3  C   UNL     1       5.021  -2.270  -0.294  0.00  0.00    +0.039 A 
ATOM      4  C   UNL     1       5.791  -1.093  -0.188  0.00  0.00    +0.107 A 
ATOM      5  N   UNL     1       4.975  -0.095   0.084  0.00  0.00    -0.166 NA
ENDROOT
BRANCH   3   6
ATOM      6  C   UNL     1       5.547  -3.648  -0.600  0.00  0.00    +0.212 C 
ATOM      7  N   UNL     1       6.145  -4.241   0.610  0.00  0.00    -0.293 N 
ATOM      8  C   UNL     1       5.342  -4.839   1.544  0.00  0.00    +0.183 C 
ATOM      9  N   UNL     1       4.207  -5.424   1.201  0.00  0.00    -0.183 NA
ATOM     10  C   UNL     1       3.817  -5.368  -0.093  0.00  0.00    +0.236 A 
ATOM     11  N   UNL     1       4.444  -4.529  -1.003  0.00  0.00    -0.285 N 
ATOM     12  C   UNL     1       3.842  -4.708  -2.212  0.00  0.00    +0.072 A 
ATOM     13  C   UNL     1       4.060  -4.159  -3.470  0.00  0.00    +0.028 A 
ATOM     14  C   UNL     1       3.235  -4.585  -4.498  0.00  0.00    +0.002 A 
ATOM     15  C   UNL     1       2.232  -5.518  -4.297  0.00  0.00    +0.002 A 
ATOM     16  C   UNL     1       1.994  -6.080  -3.056  0.00  0.00    +0.030 A 
ATOM     17  C   UNL     1       2.816  -5.666  -2.001  0.00  0.00    +0.091 A 
ATOM     18  N   UNL     1       2.848  -6.017  -0.695  0.00  0.00    -0.210 NA
ATOM     19  N   UNL     1       5.722  -4.832   2.858  0.00  0.00    -0.331 N 
ATOM     20  H   UNL     1       6.553  -4.406   3.120  0.00  0.00    +0.145 HD
ATOM     21  H   UNL     1       5.161  -5.253   3.528  0.00  0.00    +0.145 HD
ATOM     22  H   UNL     1       7.105  -4.207   0.744  0.00  0.00    +0.151 HD
ENDBRANCH   3   6
BRANCH   4  23
ATOM     23  C   UNL     1       7.259  -0.994  -0.359  0.00  0.00    +0.087 A 
ATOM     24  C   UNL     1       8.037  -2.116  -0.517  0.00  0.00    +0.028 A 
ATOM     25  C   UNL     1       9.480  -1.919  -0.679  0.00  0.00    +0.018 A 
ATOM     26  C   UNL     1      10.305  -2.965  -1.107  0.00  0.00    +0.011 A 
ATOM     27  C   UNL     1      11.647  -2.754  -1.252  0.00  0.00    +0.001 A 
ATOM     28  C   UNL     1      12.199  -1.510  -0.980  0.00  0.00    +0.004 A 
ATOM     29  C   UNL     1      11.404  -0.465  -0.556  0.00  0.00    +0.047 A 
ATOM     30  C   UNL     1      10.038  -0.658  -0.400  0.00  0.00    +0.139 A 
ATOM     31  O   UNL     1       9.239   0.352   0.021  0.00  0.00    -0.422 OA
ATOM     32  C   UNL     1       7.943   0.310  -0.373  0.00  0.00    +0.347 A 
ATOM     33  O   UNL     1       7.360   1.319  -0.725  0.00  0.00    -0.244 OA
ENDBRANCH   4  23
BRANCH   1  37
ATOM     34  C   UNL     1       0.227   1.589   0.989  0.00  0.00    +0.000 A 
ATOM     35  C   UNL     1       1.454   2.225   0.937  0.00  0.00    +0.002 A 
ATOM     36  C   UNL     1       2.598   1.500   0.665  0.00  0.00    +0.028 A 
ATOM     37  C   UNL     1       2.515   0.132   0.445  0.00  0.00    +0.065 A 
ATOM     38  C   UNL     1       1.281  -0.504   0.498  0.00  0.00    +0.028 A 
ATOM     39  C   UNL     1       0.141   0.227   0.770  0.00  0.00    +0.002 A 
ENDBRANCH   1  37
TORSDOF 3
