REMARK  Name = ZINC20575818
REMARK  7 active torsions:
REMARK  status: ('A' for Active; 'I' for Inactive)
REMARK    1  A    between atoms: C_1  and  O_2
REMARK    2  A    between atoms: O_2  and  C_3
REMARK    3  A    between atoms: C_3  and  C_5
REMARK    4  A    between atoms: C_8  and  N_11
REMARK    5  A    between atoms: N_11  and  C_12
REMARK    6  A    between atoms: N_21  and  C_25
REMARK    7  A    between atoms: C_25  and  C_26
REMARK                            x       y       z     vdW  Elec       q    Type
REMARK                         _______ _______ _______ _____ _____    ______ ____
ROOT
ATOM      1  C   UNL     1       0.670   3.184   4.503  0.00  0.00    +0.105 C 
ATOM      2  C   UNL     1      -0.176   2.566   3.655  0.00  0.00    +0.170 C 
ATOM      3  C   UNL     1      -1.385   1.834   4.116  0.00  0.00    +0.222 C 
ATOM      4  O   UNL     1      -2.029   2.184   5.092  0.00  0.00    -0.285 OA
ATOM      5  C   UNL     1      -1.747   0.670   3.321  0.00  0.00    +0.083 A 
ATOM      6  C   UNL     1      -1.224   0.263   2.093  0.00  0.00    +0.070 A 
ATOM      7  C   UNL     1      -1.793  -0.896   1.573  0.00  0.00    +0.033 A 
ATOM      8  C   UNL     1      -2.770  -1.537   2.257  0.00  0.00    +0.048 A 
ATOM      9  S   UNL     1      -2.969  -0.563   3.679  0.00  0.00    -0.091 S 
ATOM     10  N   UNL     1      -0.194   0.977   1.438  0.00  0.00    -0.197 N 
ATOM     11  S   UNL     1       0.065   2.557   1.898  0.00  0.00    +0.080 S 
ATOM     12  O   UNL     1       1.439   2.837   1.666  0.00  0.00    -0.150 OA
ATOM     13  O   UNL     1      -0.985   3.331   1.334  0.00  0.00    -0.150 OA
ENDROOT
BRANCH   1  14
ATOM     14  N   UNL     1       1.683   3.966   4.011  0.00  0.00    -0.319 N 
ATOM     15  H   UNL     1       1.747   4.169   2.932  0.00  0.00    +0.152 HD
BRANCH  14  19
ATOM     16  C   UNL     1       4.517   5.572   6.603  0.00  0.00    +0.059 A 
ATOM     17  C   UNL     1       4.597   5.829   5.231  0.00  0.00    +0.017 A 
ATOM     18  C   UNL     1       3.659   5.296   4.377  0.00  0.00    +0.024 A 
ATOM     19  C   UNL     1       2.630   4.503   4.878  0.00  0.00    +0.031 A 
ATOM     20  C   UNL     1       2.544   4.250   6.244  0.00  0.00    +0.024 A 
ATOM     21  C   UNL     1       3.483   4.774   7.103  0.00  0.00    +0.017 A 
BRANCH  16  22
ATOM     22  C   UNL     1       5.520   6.141   7.521  0.00  0.00    +0.339 C 
ATOM     23  O   UNL     1       6.418   6.835   7.086  0.00  0.00    -0.245 OA
BRANCH  22  25
ATOM     24  C   UNL     1       6.464   6.486   9.687  0.00  0.00    +0.280 C 
ATOM     25  O   UNL     1       5.442   5.893   8.843  0.00  0.00    -0.464 OA
ENDBRANCH  22  25
ENDBRANCH  16  22
ENDBRANCH  14  19
ENDBRANCH   1  14
BRANCH  10  26
ATOM     26  C   UNL     1       0.621   0.348   0.396  0.00  0.00    +0.166 C 
BRANCH  26  27
ATOM     27  C   UNL     1       1.780  -0.374   1.033  0.00  0.00    -0.028 A 
ATOM     28  C   UNL     1       2.997   0.266   1.176  0.00  0.00    +0.008 A 
ATOM     29  C   UNL     1       4.060  -0.393   1.764  0.00  0.00    +0.038 A 
ATOM     30  C   UNL     1       3.909  -1.699   2.200  0.00  0.00    +0.123 A 
ATOM     31  C   UNL     1       2.691  -2.340   2.051  0.00  0.00    +0.038 A 
ATOM     32  C   UNL     1       1.628  -1.677   1.467  0.00  0.00    +0.008 A 
ATOM     33  F   UNL     1       4.949  -2.346   2.770  0.00  0.00    -0.205 F 
ENDBRANCH  26  27
ENDBRANCH  10  26
TORSDOF 6
