REMARK  Name = ZINC05313115
REMARK  12 active torsions:
REMARK  status: ('A' for Active; 'I' for Inactive)
REMARK    1  A    between atoms: C_1  and  C_2
REMARK    2  A    between atoms: C_2  and  C_3
REMARK    3  A    between atoms: C_2  and  O_4
REMARK    4  A    between atoms: O_4  and  C_5
REMARK    5  A    between atoms: C_5  and  C_6
REMARK    6  A    between atoms: C_6  and  C_8
REMARK    7  A    between atoms: C_6  and  O_34
REMARK    8  A    between atoms: C_8  and  N_9
REMARK    9  A    between atoms: N_17  and  C_33
REMARK   10  A    between atoms: N_21  and  N_22
REMARK   11  A    between atoms: C_23  and  C_24
REMARK   12  A    between atoms: C_25  and  C_26
REMARK                            x       y       z     vdW  Elec       q    Type
REMARK                         _______ _______ _______ _____ _____    ______ ____
ROOT
ATOM      1  N   UNL     1       3.059   1.497   0.723  0.00  0.00    -0.302 N 
ATOM      2  C   UNL     1       3.674   2.291   1.680  0.00  0.00    +0.153 A 
ATOM      3  C   UNL     1       3.431   3.577   2.196  0.00  0.00    +0.280 A 
ATOM      4  O   UNL     1       2.503   4.245   1.775  0.00  0.00    -0.265 OA
ATOM      5  N   UNL     1       4.240   4.066   3.159  0.00  0.00    -0.273 N 
ATOM      6  H   UNL     1       4.073   4.981   3.525  0.00  0.00    +0.173 HD
ATOM      7  C   UNL     1       5.269   3.341   3.633  0.00  0.00    +0.331 A 
ATOM      8  O   UNL     1       5.977   3.814   4.500  0.00  0.00    -0.246 OA
ATOM      9  N   UNL     1       5.533   2.105   3.171  0.00  0.00    -0.280 N 
ATOM     10  C   UNL     1       4.737   1.548   2.182  0.00  0.00    +0.170 A 
ATOM     11  N   UNL     1       4.749   0.379   1.542  0.00  0.00    -0.195 NA
ATOM     12  C   UNL     1       3.760   0.332   0.672  0.00  0.00    +0.218 A 
ATOM     13  N   UNL     1       3.479  -0.729  -0.158  0.00  0.00    -0.206 N 
ATOM     14  C   UNL     1       6.664   1.347   3.713  0.00  0.00    +0.155 C 
ATOM     15  H   UNL     1       2.729  -0.680  -0.771  0.00  0.00    +0.177 HD
ENDROOT
BRANCH  13  16
ATOM     16  N   UNL     1       4.276  -1.880  -0.117  0.00  0.00    -0.187 NA
ATOM     17  C   UNL     1       4.084  -2.837  -0.981  0.00  0.00    +0.145 C 
BRANCH  17  18
ATOM     18  C   UNL     1       3.535  -2.542  -2.255  0.00  0.00    +0.038 C 
ATOM     19  C   UNL     1       3.211  -3.545  -3.098  0.00  0.00    +0.024 C 
ATOM     20 BR   UNL     1       3.255  -0.745  -2.771  0.00  0.00    -0.049 Br
BRANCH  19  21
ATOM     21  C   UNL     1       2.474  -3.254  -4.338  0.00  0.00    -0.024 A 
ATOM     22  C   UNL     1       1.403  -2.355  -4.325  0.00  0.00    +0.008 A 
ATOM     23  C   UNL     1       0.721  -2.083  -5.492  0.00  0.00    +0.001 A 
ATOM     24  C   UNL     1       1.085  -2.708  -6.672  0.00  0.00    +0.000 A 
ATOM     25  C   UNL     1       2.140  -3.604  -6.692  0.00  0.00    +0.001 A 
ATOM     26  C   UNL     1       2.836  -3.881  -5.535  0.00  0.00    +0.008 A 
ENDBRANCH  19  21
ENDBRANCH  17  18
ENDBRANCH  13  16
BRANCH   1  27
ATOM     27  C   UNL     1       1.887   1.849  -0.082  0.00  0.00    +0.159 C 
BRANCH  27  28
ATOM     28  C   UNL     1       0.616   1.409   0.648  0.00  0.00    +0.160 C 
BRANCH  28  29
ATOM     29  O   UNL     1       0.481   2.156   1.859  0.00  0.00    -0.388 OA
ATOM     30  H   UNL     1       0.418   3.112   1.727  0.00  0.00    +0.210 HD
ENDBRANCH  28  29
BRANCH  28  31
ATOM     31  C   UNL     1      -0.599   1.662  -0.245  0.00  0.00    +0.193 C 
BRANCH  31  32
ATOM     32  O   UNL     1      -1.772   1.146   0.388  0.00  0.00    -0.374 OA
BRANCH  32  34
ATOM     33  C   UNL     1      -3.187   0.126  -1.284  0.00  0.00    +0.037 C 
ATOM     34  C   UNL     1      -2.970   1.332  -0.368  0.00  0.00    +0.112 C 
ATOM     35  C   UNL     1      -4.159   1.468   0.586  0.00  0.00    +0.037 C 
ENDBRANCH  32  34
ENDBRANCH  31  32
ENDBRANCH  28  31
ENDBRANCH  27  28
ENDBRANCH   1  27
TORSDOF 9
