REMARK  Name = ZINC38884791
REMARK  8 active torsions:
REMARK  status: ('A' for Active; 'I' for Inactive)
REMARK    1  A    between atoms: C_4  and  C_7
REMARK    2  A    between atoms: C_9  and  C_12
REMARK    3  A    between atoms: C_12  and  N_13
REMARK    4  A    between atoms: C_17  and  C_20
REMARK    5  A    between atoms: N_22  and  C_23
REMARK    6  A    between atoms: C_23  and  C_24
REMARK    7  A    between atoms: C_24  and  S_25
REMARK    8  A    between atoms: S_25  and  C_26
REMARK                            x       y       z     vdW  Elec       q    Type
REMARK                         _______ _______ _______ _____ _____    ______ ____
ROOT
ATOM      1  N   UNL     1       5.866  -4.163  -1.472  0.00  0.00    +0.386 N 
ATOM      2  C   UNL     1       4.553  -4.265  -2.120  0.00  0.00    -0.078 C 
ATOM      3  C   UNL     1       4.734  -4.645  -3.591  0.00  0.00    -0.018 C 
ATOM      4  C   UNL     1       5.455  -5.993  -3.680  0.00  0.00    +0.009 C 
ATOM      5  C   UNL     1       6.790  -5.896  -2.937  0.00  0.00    +0.058 C 
ATOM      6  C   UNL     1       6.533  -5.470  -1.490  0.00  0.00    -0.065 C 
ATOM      7  H   UNL     1       6.432  -3.491  -1.968  0.00  0.00    -0.081 HD
ENDROOT
BRANCH   5   8
ATOM      8  C   UNL     1       7.473  -7.240  -2.953  0.00  0.00    +0.214 C 
ATOM      9  O   UNL     1       7.733  -7.800  -1.909  0.00  0.00    -0.276 OA
ATOM     10  N   UNL     1       7.795  -7.818  -4.127  0.00  0.00    -0.314 N 
ATOM     11  H   UNL     1       7.588  -7.370  -4.961  0.00  0.00    +0.149 HD
BRANCH  10  12
ATOM     12  C   UNL     1       8.459  -9.124  -4.142  0.00  0.00    +0.115 C 
BRANCH  12  13
ATOM     13  C   UNL     1       8.711  -9.551  -5.590  0.00  0.00    +0.088 C 
BRANCH  13  14
ATOM     14  S   UNL     1       9.533 -11.168  -5.609  0.00  0.00    -0.156 S 
BRANCH  14  15
ATOM     15  C   UNL     1       9.757 -11.525  -7.373  0.00  0.00    +0.047 C 
ATOM     16  C   UNL     1       8.389 -11.688  -8.038  0.00  0.00    +0.014 C 
ATOM     17  C   UNL     1       8.578 -11.989  -9.526  0.00  0.00    +0.001 C 
ATOM     18  C   UNL     1       9.380 -13.283  -9.687  0.00  0.00    +0.000 C 
ATOM     19  C   UNL     1      10.748 -13.120  -9.022  0.00  0.00    +0.001 C 
ATOM     20  C   UNL     1      10.559 -12.818  -7.534  0.00  0.00    +0.014 C 
ENDBRANCH  14  15
ENDBRANCH  13  14
ENDBRANCH  12  13
ENDBRANCH  10  12
ENDBRANCH   5   8
BRANCH   1  21
ATOM     21  C   UNL     1       5.692  -3.722  -0.082  0.00  0.00    +0.022 C 
BRANCH  21  24
ATOM     22  C   UNL     1       3.699  -0.689  -0.037  0.00  0.00    +0.202 A 
ATOM     23  N   UNL     1       3.853  -2.025  -0.051  0.00  0.00    -0.193 NA
ATOM     24  C   UNL     1       5.120  -2.328  -0.065  0.00  0.00    +0.211 A 
ATOM     25  O   UNL     1       5.828  -1.191  -0.059  0.00  0.00    -0.340 OA
ATOM     26  N   UNL     1       4.884  -0.131  -0.046  0.00  0.00    -0.056 NA
BRANCH  22  30
ATOM     27  C   UNL     1      -0.017   1.379   0.010  0.00  0.00    +0.000 A 
ATOM     28  C   UNL     1       1.169   2.092   0.002  0.00  0.00    +0.001 A 
ATOM     29  C   UNL     1       2.377   1.426  -0.013  0.00  0.00    +0.012 A 
ATOM     30  C   UNL     1       2.402   0.033  -0.021  0.00  0.00    +0.022 A 
ATOM     31  C   UNL     1       1.205  -0.680  -0.013  0.00  0.00    +0.012 A 
ATOM     32  C   UNL     1       0.002  -0.004   0.002  0.00  0.00    +0.001 A 
ENDBRANCH  22  30
ENDBRANCH  21  24
ENDBRANCH   1  21
TORSDOF 8
