REMARK  Name = ZINC36309098
REMARK  16 active torsions:
REMARK  status: ('A' for Active; 'I' for Inactive)
REMARK    1  A    between atoms: C_1  and  C_2
REMARK    2  A    between atoms: C_5  and  O_8
REMARK    3  A    between atoms: O_8  and  C_9
REMARK    4  A    between atoms: C_9  and  C_10
REMARK    5  A    between atoms: C_20  and  C_22
REMARK    6  A    between atoms: C_22  and  N_23
REMARK    7  A    between atoms: N_23  and  C_24
REMARK    8  A    between atoms: N_23  and  C_32
REMARK    9  A    between atoms: C_24  and  C_25
REMARK   10  A    between atoms: C_25  and  C_27
REMARK   11  A    between atoms: C_25  and  O_31
REMARK   12  A    between atoms: C_27  and  C_28
REMARK   13  A    between atoms: C_28  and  C_29
REMARK   14  A    between atoms: C_32  and  C_33
REMARK   15  A    between atoms: C_33  and  C_34
REMARK   16  A    between atoms: C_33  and  C_35
REMARK                            x       y       z     vdW  Elec       q    Type
REMARK                         _______ _______ _______ _____ _____    ______ ____
ROOT
ATOM      1  C   UNL     1       0.348  -5.890   1.091  0.00  0.00    +0.144 C 
ATOM      2  C   UNL     1      -0.788  -6.168   0.108  0.00  0.00    -0.014 A 
ATOM      3  C   UNL     1      -2.136  -6.085   0.456  0.00  0.00    +0.013 A 
ATOM      4  C   UNL     1      -3.090  -6.341  -0.469  0.00  0.00    +0.046 A 
ATOM      5  S   UNL     1      -2.110  -6.723  -1.913  0.00  0.00    -0.101 S 
ATOM      6  C   UNL     1      -0.509  -6.516  -1.177  0.00  0.00    -0.004 A 
ATOM      7  C   UNL     1       0.833  -6.685  -1.812  0.00  0.00    +0.061 C 
ATOM      8  C   UNL     1       1.889  -6.020  -0.916  0.00  0.00    +0.113 C 
ATOM      9  N   UNL     1       1.596  -6.370   0.483  0.00  0.00    -0.292 N 
ATOM     10  C   UNL     1       2.460  -7.120   1.196  0.00  0.00    +0.200 C 
ATOM     11  O   UNL     1       2.208  -7.403   2.348  0.00  0.00    -0.278 OA
ENDROOT
BRANCH   1  12
ATOM     12  C   UNL     1       0.446  -4.386   1.358  0.00  0.00    +0.256 C 
BRANCH  12  13
ATOM     13  O   UNL     1       0.569  -3.689   0.116  0.00  0.00    -0.490 OA
BRANCH  13  18
ATOM     14  C   UNL     1       0.975   1.923   0.364  0.00  0.00    +0.044 C 
ATOM     15  C   UNL     1       0.867   0.421   0.298  0.00  0.00    -0.050 A 
ATOM     16  C   UNL     1       0.889  -0.219  -0.927  0.00  0.00    +0.007 A 
ATOM     17  C   UNL     1       0.789  -1.595  -0.991  0.00  0.00    +0.046 A 
ATOM     18  C   UNL     1       0.667  -2.335   0.176  0.00  0.00    +0.121 A 
ATOM     19  C   UNL     1       0.646  -1.691   1.404  0.00  0.00    +0.046 A 
ATOM     20  C   UNL     1       0.751  -0.315   1.463  0.00  0.00    +0.007 A 
ENDBRANCH  13  18
ENDBRANCH  12  13
ENDBRANCH   1  12
BRANCH  10  21
ATOM     21  C   UNL     1       3.737  -7.606   0.562  0.00  0.00    +0.019 C 
BRANCH  21  22
ATOM     22  N   UNL     1       4.499  -8.396   1.539  0.00  0.00    +0.387 N 
ATOM     23  H   UNL     1       4.641  -7.850   2.375  0.00  0.00    -0.081 HD
BRANCH  22  24
ATOM     24  C   UNL     1       5.801  -8.761   0.965  0.00  0.00    -0.046 C 
BRANCH  24  25
ATOM     25  C   UNL     1       6.656  -7.502   0.800  0.00  0.00    +0.098 C 
BRANCH  25  26
ATOM     26  O   UNL     1       6.092  -6.675  -0.220  0.00  0.00    -0.394 OA
ATOM     27  H   UNL     1       6.039  -7.099  -1.087  0.00  0.00    +0.210 HD
ENDBRANCH  25  26
BRANCH  25  28
ATOM     28  C   UNL     1       8.079  -7.901   0.404  0.00  0.00    +0.033 C 
BRANCH  28  29
ATOM     29  C   UNL     1       8.964  -6.654   0.361  0.00  0.00    +0.029 C 
BRANCH  29  30
ATOM     30  C   UNL     1      10.366  -7.046  -0.029  0.00  0.00    -0.034 C 
ATOM     31  C   UNL     1      10.946  -6.473  -1.054  0.00  0.00    +0.004 C 
ENDBRANCH  29  30
ENDBRANCH  28  29
ENDBRANCH  25  28
ENDBRANCH  24  25
ENDBRANCH  22  24
BRANCH  22  32
ATOM     32  C   UNL     1       3.751  -9.617   1.871  0.00  0.00    -0.075 C 
BRANCH  32  33
ATOM     33  C   UNL     1       4.470 -10.364   2.996  0.00  0.00    -0.034 C 
ATOM     34  C   UNL     1       4.466  -9.506   4.263  0.00  0.00    +0.005 C 
ATOM     35  C   UNL     1       3.749 -11.685   3.272  0.00  0.00    +0.005 C 
ENDBRANCH  32  33
ENDBRANCH  22  32
ENDBRANCH  21  22
ENDBRANCH  10  21
TORSDOF 13
