REMARK  Name = ZINC12497116
REMARK  7 active torsions:
REMARK  status: ('A' for Active; 'I' for Inactive)
REMARK    1  A    between atoms: C_1  and  C_2
REMARK    2  A    between atoms: C_7  and  C_8
REMARK    3  A    between atoms: N_16  and  C_19
REMARK    4  A    between atoms: C_25  and  C_26
REMARK    5  A    between atoms: C_25  and  C_32
REMARK    6  A    between atoms: C_32  and  O_34
REMARK    7  A    between atoms: O_34  and  C_35
REMARK                            x       y       z     vdW  Elec       q    Type
REMARK                         _______ _______ _______ _____ _____    ______ ____
ROOT
ATOM      1  C   UNL     1      -2.392   3.105  -1.800  0.00  0.00    -0.026 C 
ATOM      2  C   UNL     1      -3.316   2.267  -1.015  0.00  0.00    +0.078 C 
ATOM      3  C   UNL     1      -2.361   1.109  -0.531  0.00  0.00    +0.090 C 
ATOM      4  C   UNL     1      -3.325   0.440   0.396  0.00  0.00    +0.229 C 
ATOM      5  O   UNL     1      -3.068  -0.122   1.439  0.00  0.00    -0.275 OA
ATOM      6  N   UNL     1      -4.558   0.595  -0.175  0.00  0.00    -0.210 N 
ATOM      7  C   UNL     1      -4.569   1.554  -1.157  0.00  0.00    +0.229 C 
ATOM      8  O   UNL     1      -5.437   1.758  -1.980  0.00  0.00    -0.275 OA
ATOM      9  C   UNL     1      -1.215   1.964  -0.017  0.00  0.00    +0.070 C 
ATOM     10  N   UNL     1      -1.185   3.149  -0.915  0.00  0.00    +0.398 N 
ATOM     11  H   UNL     1      -1.198   4.009  -0.354  0.00  0.00    -0.083 HD
ATOM     12  H   UNL     1      -0.334   3.128  -1.489  0.00  0.00    -0.083 HD
ENDROOT
BRANCH   1  19
ATOM     13  C   UNL     1      -1.269   4.845  -3.815  0.00  0.00    +0.044 C 
ATOM     14  C   UNL     1      -2.426   5.316  -2.972  0.00  0.00    -0.049 A 
ATOM     15  C   UNL     1      -2.954   6.580  -3.167  0.00  0.00    +0.003 A 
ATOM     16  C   UNL     1      -4.011   7.014  -2.390  0.00  0.00    +0.000 A 
ATOM     17  C   UNL     1      -4.545   6.183  -1.422  0.00  0.00    +0.000 A 
ATOM     18  C   UNL     1      -4.021   4.918  -1.232  0.00  0.00    +0.002 A 
ATOM     19  C   UNL     1      -2.963   4.484  -2.009  0.00  0.00    -0.058 A 
ENDBRANCH   1  19
BRANCH   6  20
ATOM     20  C   UNL     1      -5.687  -0.146   0.201  0.00  0.00    +0.044 A 
ATOM     21  C   UNL     1      -5.590  -1.103   1.202  0.00  0.00    +0.024 A 
ATOM     22  C   UNL     1      -6.705  -1.827   1.574  0.00  0.00    +0.002 A 
ATOM     23  C   UNL     1      -7.916  -1.608   0.943  0.00  0.00    +0.000 A 
ATOM     24  C   UNL     1      -8.015  -0.659  -0.058  0.00  0.00    +0.002 A 
ATOM     25  C   UNL     1      -6.904   0.072  -0.430  0.00  0.00    +0.024 A 
ENDBRANCH   6  20
BRANCH   9  26
ATOM     26  C   UNL     1      -1.477   2.387   1.405  0.00  0.00    -0.047 A 
ATOM     27  C   UNL     1      -2.104   3.591   1.664  0.00  0.00    +0.003 A 
ATOM     28  C   UNL     1      -2.347   3.978   2.969  0.00  0.00    +0.000 A 
ATOM     29  C   UNL     1      -1.956   3.163   4.015  0.00  0.00    +0.000 A 
ATOM     30  C   UNL     1      -1.325   1.961   3.756  0.00  0.00    +0.000 A 
ATOM     31  C   UNL     1      -1.085   1.573   2.451  0.00  0.00    +0.003 A 
ENDBRANCH   9  26
BRANCH   9  32
ATOM     32  C   UNL     1       0.083   1.203  -0.104  0.00  0.00    +0.301 C 
ATOM     33  O   UNL     1       0.077  -0.005  -0.093  0.00  0.00    -0.252 OA
BRANCH  32  34
ATOM     34  O   UNL     1       1.245   1.868  -0.200  0.00  0.00    -0.469 OA
ATOM     35  C   UNL     1       2.456   1.071  -0.286  0.00  0.00    +0.280 C 
ENDBRANCH  32  34
ENDBRANCH   9  32
TORSDOF 5
