REMARK  Name = ZINC01756806
REMARK  5 active torsions:
REMARK  status: ('A' for Active; 'I' for Inactive)
REMARK    1  A    between atoms: C_1  and  C_2
REMARK    2  A    between atoms: C_2  and  C_3
REMARK    3  A    between atoms: C_2  and  C_4
REMARK    4  A    between atoms: C_2  and  C_5
REMARK    5  A    between atoms: N_12  and  C_16
REMARK                            x       y       z     vdW  Elec       q    Type
REMARK                         _______ _______ _______ _____ _____    ______ ____
ROOT
ATOM      1  C   UNL     1       0.487  -0.470  -1.387  0.00  0.00    -0.005 C 
ATOM      2  C   UNL     1      -0.127   0.308  -2.552  0.00  0.00    +0.008 C 
ATOM      3  C   UNL     1       0.483  -0.180  -3.869  0.00  0.00    +0.046 C 
ATOM      4  C   UNL     1       1.994   0.033  -3.838  0.00  0.00    +0.107 C 
ATOM      5  C   UNL     1       2.616  -0.726  -2.669  0.00  0.00    +0.046 C 
ATOM      6  C   UNL     1       1.999  -0.237  -1.357  0.00  0.00    +0.008 C 
ATOM      7  N   UNL     1       2.597  -0.402  -5.108  0.00  0.00    -0.209 NA
ATOM      8  N   UNL     1       3.188   0.701  -5.656  0.00  0.00    -0.212 N 
ATOM      9  C   UNL     1       3.017   1.790  -4.856  0.00  0.00    +0.161 C 
ATOM     10  N   UNL     1       2.304   1.464  -3.737  0.00  0.00    -0.347 N 
ATOM     11  S   UNL     1       3.598   3.307  -5.195  0.00  0.00    -0.014 SA
ATOM     12  H   UNL     1       1.899  -0.783  -5.728  0.00  0.00    +0.147 HD
ATOM     13  H   UNL     1       2.053   2.062  -3.016  0.00  0.00    +0.163 HD
ENDROOT
BRANCH   8  14
ATOM     14  C   UNL     1       3.876   0.711  -6.875  0.00  0.00    +0.052 A 
ATOM     15  C   UNL     1       4.826  -0.265  -7.145  0.00  0.00    +0.026 A 
ATOM     16  C   UNL     1       5.503  -0.253  -8.349  0.00  0.00    +0.022 A 
ATOM     17  C   UNL     1       5.236   0.731  -9.285  0.00  0.00    +0.041 A 
ATOM     18  C   UNL     1       4.290   1.705  -9.018  0.00  0.00    +0.022 A 
ATOM     19  C   UNL     1       3.606   1.694  -7.818  0.00  0.00    +0.026 A 
ATOM     20 CL   UNL     1       6.090   0.743 -10.796  0.00  0.00    -0.084 Cl
ENDBRANCH   8  14
BRANCH   1  22
ATOM     21  C   UNL     1       0.154   1.504   0.108  0.00  0.00    +0.011 C 
ATOM     22  C   UNL     1      -0.129   0.012  -0.072  0.00  0.00    -0.035 C 
ATOM     23  C   UNL     1       0.484  -0.767   1.094  0.00  0.00    +0.011 C 
ATOM     24  C   UNL     1      -1.641  -0.221  -0.102  0.00  0.00    +0.011 C 
ENDBRANCH   1  22
TORSDOF 2
