REMARK  Name = ZINC59547244
REMARK  7 active torsions:
REMARK  status: ('A' for Active; 'I' for Inactive)
REMARK    1  A    between atoms: C_1  and  C_2
REMARK    2  A    between atoms: C_5  and  N_9
REMARK    3  A    between atoms: C_11  and  C_16
REMARK    4  A    between atoms: N_18  and  C_19
REMARK    5  A    between atoms: C_22  and  S_25
REMARK    6  A    between atoms: S_25  and  N_28
REMARK    7  A    between atoms: C_32  and  C_35
REMARK                            x       y       z     vdW  Elec       q    Type
REMARK                         _______ _______ _______ _____ _____    ______ ____
ROOT
ATOM      1  C   UNL     1      -1.118  -9.058   0.856  0.00  0.00    +0.222 C 
ATOM      2  O   UNL     1      -1.672 -10.099   1.140  0.00  0.00    -0.275 OA
ATOM      3  N   UNL     1       0.134  -8.819   1.295  0.00  0.00    -0.285 N 
ATOM      4  H   UNL     1       0.547  -7.956   1.136  0.00  0.00    +0.155 HD
ENDROOT
BRANCH   1   7
ATOM      5  N   UNL     1      -4.090  -7.319  -0.350  0.00  0.00    -0.271 N 
ATOM      6  C   UNL     1      -3.244  -8.518  -0.374  0.00  0.00    +0.127 C 
ATOM      7  C   UNL     1      -1.829  -8.032   0.012  0.00  0.00    +0.102 C 
ATOM      8  C   UNL     1      -2.146  -6.761   0.835  0.00  0.00    +0.110 C 
ATOM      9  C   UNL     1      -3.498  -6.317   0.322  0.00  0.00    +0.221 C 
ATOM     10  O   UNL     1      -3.979  -5.217   0.494  0.00  0.00    -0.275 OA
BRANCH   5  15
ATOM     11  C   UNL     1      -9.194  -6.951  -2.802  0.00  0.00    +0.045 C 
ATOM     12  C   UNL     1      -7.838  -7.049  -2.151  0.00  0.00    -0.032 A 
ATOM     13  C   UNL     1      -7.362  -6.000  -1.388  0.00  0.00    +0.006 A 
ATOM     14  C   UNL     1      -6.120  -6.086  -0.789  0.00  0.00    +0.024 A 
ATOM     15  C   UNL     1      -5.349  -7.229  -0.955  0.00  0.00    +0.038 A 
ATOM     16  C   UNL     1      -5.829  -8.282  -1.722  0.00  0.00    +0.043 A 
ATOM     17  C   UNL     1      -7.075  -8.192  -2.314  0.00  0.00    +0.046 A 
ATOM     18 CL   UNL     1      -7.679  -9.510  -3.269  0.00  0.00    -0.083 Cl
ENDBRANCH   5  15
ENDBRANCH   1   7
BRANCH   3  19
ATOM     19  C   UNL     1       0.837  -9.815   1.981  0.00  0.00    +0.034 A 
ATOM     20  C   UNL     1       1.702  -9.472   3.011  0.00  0.00    +0.025 A 
ATOM     21  C   UNL     1       2.395 -10.458   3.687  0.00  0.00    +0.030 A 
ATOM     22  C   UNL     1       2.227 -11.786   3.338  0.00  0.00    +0.106 A 
ATOM     23  C   UNL     1       1.366 -12.130   2.312  0.00  0.00    +0.030 A 
ATOM     24  C   UNL     1       0.666 -11.150   1.637  0.00  0.00    +0.025 A 
BRANCH  22  25
ATOM     25  S   UNL     1       3.112 -13.040   4.202  0.00  0.00    +0.061 S 
ATOM     26  O   UNL     1       3.195 -14.156   3.325  0.00  0.00    -0.153 OA
ATOM     27  O   UNL     1       4.265 -12.418   4.753  0.00  0.00    -0.153 OA
BRANCH  25  28
ATOM     28  N   UNL     1       2.171 -13.512   5.480  0.00  0.00    -0.176 NA
ATOM     29  C   UNL     1       2.284 -12.838   6.782  0.00  0.00    +0.109 C 
ATOM     30  C   UNL     1       0.893 -12.367   7.216  0.00  0.00    +0.017 C 
ATOM     31  C   UNL     1      -0.070 -13.556   7.205  0.00  0.00    +0.006 C 
ATOM     32  C   UNL     1      -0.172 -14.120   5.785  0.00  0.00    +0.002 C 
ATOM     33  C   UNL     1       1.203 -14.607   5.334  0.00  0.00    +0.112 C 
ATOM     34  C   UNL     1      -1.161 -15.287   5.769  0.00  0.00    +0.009 C 
ENDBRANCH  25  28
ENDBRANCH  22  25
ENDBRANCH   3  19
TORSDOF 5
