REMARK  Name = ZINC57327448
REMARK  4 active torsions:
REMARK  status: ('A' for Active; 'I' for Inactive)
REMARK    1  A    between atoms: C_1  and  C_2
REMARK    2  A    between atoms: C_2  and  C_18
REMARK    3  A    between atoms: N_3  and  N_4
REMARK    4  A    between atoms: C_8  and  C_14
REMARK                            x       y       z     vdW  Elec       q    Type
REMARK                         _______ _______ _______ _____ _____    ______ ____
ROOT
ATOM      1  N   UNL     1       0.023   0.044   2.324  0.00  0.00    -0.215 N 
ATOM      2  C   UNL     1       0.044  -0.653   3.516  0.00  0.00    +0.179 A 
ATOM      3  N   UNL     1       0.044  -0.185   4.744  0.00  0.00    -0.223 NA
ATOM      4  C   UNL     1       0.065  -0.992   5.827  0.00  0.00    +0.092 A 
ATOM      5  C   UNL     1       0.068  -0.621   7.192  0.00  0.00    +0.081 A 
ATOM      6  C   UNL     1       0.092  -1.574   8.176  0.00  0.00    +0.014 A 
ATOM      7  C   UNL     1       0.114  -2.928   7.874  0.00  0.00    +0.002 A 
ATOM      8  C   UNL     1       0.112  -3.327   6.550  0.00  0.00    +0.017 A 
ATOM      9  C   UNL     1       0.088  -2.379   5.557  0.00  0.00    +0.041 A 
ATOM     10  S   UNL     1       0.070  -2.420   3.781  0.00  0.00    -0.051 S 
ATOM     11  H   UNL     1       0.010   1.014   2.329  0.00  0.00    +0.176 HD
ENDROOT
BRANCH   1  14
ATOM     12  C   UNL     1      -0.018   1.503   0.010  0.00  0.00    +0.062 C 
ATOM     13  C   UNL     1       0.002  -0.004   0.002  0.00  0.00    +0.031 C 
ATOM     14  N   UNL     1       0.021  -0.650   1.107  0.00  0.00    -0.190 NA
ATOM     15  C   UNL     1      -0.000  -0.750  -1.307  0.00  0.00    +0.062 C 
ENDBRANCH   1  14
BRANCH   5  16
ATOM     16  C   UNL     1       0.045   0.838   7.567  0.00  0.00    +0.419 C 
ATOM     17  F   UNL     1       0.053   0.961   8.961  0.00  0.00    -0.166 F 
ATOM     18  F   UNL     1       1.173   1.474   7.037  0.00  0.00    -0.166 F 
ATOM     19  F   UNL     1      -1.111   1.434   7.053  0.00  0.00    -0.166 F 
ENDBRANCH   5  16
TORSDOF 2
