REMARK  Name = ZINC02250256
REMARK  12 active torsions:
REMARK  status: ('A' for Active; 'I' for Inactive)
REMARK    1  A    between atoms: C_1  and  C_2
REMARK    2  A    between atoms: C_2  and  N_57
REMARK    3  A    between atoms: C_3  and  C_4
REMARK    4  A    between atoms: C_3  and  N_57
REMARK    5  A    between atoms: C_5  and  C_6
REMARK    6  A    between atoms: C_5  and  N_57
REMARK    7  A    between atoms: C_6  and  C_7
REMARK    8  A    between atoms: C_7  and  N_8
REMARK    9  A    between atoms: C_9  and  C_30
REMARK   10  A    between atoms: C_15  and  C_23
REMARK   11  A    between atoms: C_17  and  C_21
REMARK   12  A    between atoms: C_18  and  N_20
REMARK                            x       y       z     vdW  Elec       q    Type
REMARK                         _______ _______ _______ _____ _____    ______ ____
ROOT
ATOM      1  N   UNL     1      -0.789   1.855   0.547  0.00  0.00    -0.312 N 
ATOM      2  C   UNL     1      -0.853   0.605   0.017  0.00  0.00    +0.022 A 
ATOM      3  C   UNL     1      -1.371  -0.422   0.724  0.00  0.00    +0.068 A 
ATOM      4  C   UNL     1      -1.860  -0.199   2.028  0.00  0.00    +0.141 A 
ATOM      5  C   UNL     1      -1.796   1.073   2.556  0.00  0.00    +0.072 A 
ATOM      6  C   UNL     1      -1.250   2.107   1.786  0.00  0.00    +0.259 A 
ATOM      7  O   UNL     1      -1.187   3.239   2.241  0.00  0.00    -0.267 OA
ATOM      8  C   UNL     1      -2.306   1.356   3.943  0.00  0.00    +0.103 C 
ATOM      9  C   UNL     1      -2.466   0.071   4.707  0.00  0.00    +0.098 C 
ATOM     10  C   UNL     1      -2.493  -1.125   4.073  0.00  0.00    +0.199 C 
ATOM     11  O   UNL     1      -2.379  -1.224   2.737  0.00  0.00    -0.441 OA
ATOM     12  C   UNL     1      -0.332   0.360  -1.376  0.00  0.00    +0.064 C 
ENDROOT
BRANCH   8  13
ATOM     13  C   UNL     1      -3.640   2.052   3.853  0.00  0.00    -0.034 A 
ATOM     14  C   UNL     1      -4.705   1.427   3.232  0.00  0.00    +0.006 A 
ATOM     15  C   UNL     1      -5.930   2.063   3.155  0.00  0.00    +0.020 A 
ATOM     16  C   UNL     1      -6.086   3.330   3.688  0.00  0.00    +0.041 A 
ATOM     17  C   UNL     1      -5.018   3.957   4.304  0.00  0.00    +0.020 A 
ATOM     18  C   UNL     1      -3.795   3.318   4.386  0.00  0.00    +0.006 A 
ATOM     19 CL   UNL     1      -7.622   4.133   3.584  0.00  0.00    -0.084 Cl
ENDBRANCH   8  13
BRANCH  10  20
ATOM     20  N   UNL     1      -2.642  -2.270   4.816  0.00  0.00    -0.328 N 
ATOM     21  H   UNL     1      -2.664  -3.134   4.376  0.00  0.00    +0.145 HD
ATOM     22  H   UNL     1      -2.726  -2.215   5.780  0.00  0.00    +0.145 HD
ENDBRANCH  10  20
BRANCH   9  23
ATOM     23  C   UNL     1      -2.591   0.113   6.133  0.00  0.00    +0.101 C 
ATOM     24  N   UNL     1      -2.691   0.146   7.264  0.00  0.00    -0.191 NA
ENDBRANCH   9  23
BRANCH   1  25
ATOM     25  C   UNL     1      -0.215   2.945  -0.245  0.00  0.00    +0.123 C 
BRANCH  25  26
ATOM     26  C   UNL     1      -1.321   3.620  -1.061  0.00  0.00    +0.003 C 
BRANCH  26  27
ATOM     27  C   UNL     1      -0.721   4.758  -1.888  0.00  0.00    -0.077 C 
BRANCH  27  28
ATOM     28  N   UNL     1      -1.796   5.386  -2.685  0.00  0.00    +0.379 N 
ATOM     29  H   UNL     1      -2.299   4.654  -3.201  0.00  0.00    -0.082 HD
BRANCH  28  31
ATOM     30  C   UNL     1      -2.028   7.166  -0.985  0.00  0.00    -0.017 C 
ATOM     31  C   UNL     1      -2.746   6.082  -1.792  0.00  0.00    -0.082 C 
ENDBRANCH  28  31
BRANCH  28  32
ATOM     32  C   UNL     1      -1.217   6.343  -3.651  0.00  0.00    -0.082 C 
ATOM     33  C   UNL     1      -2.281   6.696  -4.692  0.00  0.00    -0.017 C 
ENDBRANCH  28  32
ENDBRANCH  27  28
ENDBRANCH  26  27
ENDBRANCH  25  26
ENDBRANCH   1  25
TORSDOF 9
