REMARK  Name = ZINC38660165
REMARK  17 active torsions:
REMARK  status: ('A' for Active; 'I' for Inactive)
REMARK    1  A    between atoms: C_1  and  C_2
REMARK    2  A    between atoms: C_2  and  C_3
REMARK    3  A    between atoms: C_3  and  C_4
REMARK    4  A    between atoms: C_4  and  O_5
REMARK    5  A    between atoms: O_5  and  C_6
REMARK    6  A    between atoms: C_9  and  C_14
REMARK    7  A    between atoms: C_11  and  O_12
REMARK    8  A    between atoms: O_12  and  C_13
REMARK    9  A    between atoms: C_19  and  O_28
REMARK   10  A    between atoms: C_23  and  N_27
REMARK   11  A    between atoms: C_24  and  C_25
REMARK   12  A    between atoms: O_28  and  C_29
REMARK   13  A    between atoms: C_29  and  C_31
REMARK   14  A    between atoms: C_31  and  O_32
REMARK   15  A    between atoms: O_32  and  C_33
REMARK   16  A    between atoms: C_37  and  C_40
REMARK   17  A    between atoms: C_38  and  C_39
REMARK                            x       y       z     vdW  Elec       q    Type
REMARK                         _______ _______ _______ _____ _____    ______ ____
ROOT
ATOM      1  C   UNL     1      -3.352  -8.152   0.019  0.00  0.00    +0.098 C 
ATOM      2  C   UNL     1      -2.732  -8.723  -1.229  0.00  0.00    +0.008 A 
ATOM      3  C   UNL     1      -3.436  -8.683  -2.419  0.00  0.00    +0.012 A 
ATOM      4  C   UNL     1      -2.883  -9.201  -3.573  0.00  0.00    +0.047 A 
ATOM      5  C   UNL     1      -1.615  -9.765  -3.542  0.00  0.00    +0.135 A 
ATOM      6  C   UNL     1      -0.907  -9.807  -2.352  0.00  0.00    +0.093 A 
ATOM      7  C   UNL     1      -1.465  -9.285  -1.192  0.00  0.00    +0.138 A 
ATOM      8  O   UNL     1      -0.760  -9.334  -0.035  0.00  0.00    -0.441 OA
ATOM      9  C   UNL     1      -1.393  -9.205   1.142  0.00  0.00    +0.199 C 
ATOM     10  C   UNL     1      -2.623  -8.652   1.234  0.00  0.00    +0.098 C 
ENDROOT
BRANCH   1  14
ATOM     11  C   UNL     1      -3.122  -3.884  -0.113  0.00  0.00    +0.162 A 
ATOM     12  C   UNL     1      -1.964  -4.644  -0.143  0.00  0.00    +0.050 A 
ATOM     13  C   UNL     1      -2.042  -6.024  -0.101  0.00  0.00    +0.008 A 
ATOM     14  C   UNL     1      -3.273  -6.648  -0.028  0.00  0.00    -0.031 A 
ATOM     15  C   UNL     1      -4.433  -5.896   0.003  0.00  0.00    +0.054 A 
ATOM     16  C   UNL     1      -4.362  -4.512  -0.034  0.00  0.00    +0.162 A 
BRANCH  16  17
ATOM     17  O   UNL     1      -5.501  -3.770   0.002  0.00  0.00    -0.491 OA
ATOM     18  C   UNL     1      -6.737  -4.482   0.083  0.00  0.00    +0.277 C 
ENDBRANCH  16  17
BRANCH  11  19
ATOM     19  O   UNL     1      -3.048  -2.527  -0.155  0.00  0.00    -0.488 OA
BRANCH  19  20
ATOM     20  C   UNL     1      -1.742  -1.951  -0.236  0.00  0.00    +0.229 C 
BRANCH  20  21
ATOM     21  C   UNL     1      -1.859  -0.426  -0.273  0.00  0.00    +0.041 C 
BRANCH  21  23
ATOM     22  C   UNL     1      -0.578   1.716  -0.397  0.00  0.00    +0.004 C 
ATOM     23  C   UNL     1      -0.461   0.190  -0.360  0.00  0.00    -0.000 C 
ENDBRANCH  21  23
ENDBRANCH  20  21
ENDBRANCH  19  20
ENDBRANCH  11  19
ENDBRANCH   1  14
BRANCH   9  24
ATOM     24  N   UNL     1      -0.773  -9.646   2.284  0.00  0.00    -0.328 N 
ATOM     25  H   UNL     1       0.110 -10.044   2.234  0.00  0.00    +0.145 HD
ATOM     26  H   UNL     1      -1.218  -9.559   3.142  0.00  0.00    +0.145 HD
ENDBRANCH   9  24
BRANCH  10  27
ATOM     27  C   UNL     1      -3.243  -8.542   2.520  0.00  0.00    +0.101 C 
ATOM     28  N   UNL     1      -3.735  -8.454   3.540  0.00  0.00    -0.191 NA
ENDBRANCH  10  27
BRANCH   5  29
ATOM     29  O   UNL     1      -1.069 -10.277  -4.677  0.00  0.00    -0.423 OA
BRANCH  29  30
ATOM     30  C   UNL     1      -0.916 -11.608  -4.758  0.00  0.00    +0.350 C 
ATOM     31  O   UNL     1      -1.353 -12.321  -3.886  0.00  0.00    -0.247 OA
BRANCH  30  32
ATOM     32  C   UNL     1      -0.199 -12.213  -5.938  0.00  0.00    +0.349 C 
BRANCH  32  33
ATOM     33  O   UNL     1      -0.165 -13.635  -5.796  0.00  0.00    -0.481 OA
BRANCH  33  34
ATOM     34  C   UNL     1       0.450 -14.338  -6.783  0.00  0.00    +0.124 A 
ATOM     35  C   UNL     1       1.015 -13.674  -7.862  0.00  0.00    +0.046 A 
ATOM     36  C   UNL     1       1.641 -14.391  -8.863  0.00  0.00    +0.004 A 
ATOM     37  C   UNL     1       1.704 -15.770  -8.790  0.00  0.00    +0.004 A 
ATOM     38  C   UNL     1       1.142 -16.435  -7.716  0.00  0.00    -0.044 A 
ATOM     39  C   UNL     1       0.520 -15.722  -6.710  0.00  0.00    -0.006 A 
ATOM     40  C   UNL     1      -0.087 -16.446  -5.536  0.00  0.00    +0.048 C 
ATOM     41  C   UNL     1       1.213 -17.938  -7.641  0.00  0.00    +0.044 C 
ENDBRANCH  33  34
ENDBRANCH  32  33
ENDBRANCH  30  32
ENDBRANCH  29  30
ENDBRANCH   5  29
TORSDOF 13
