REMARK  Name = ZINC15551527
REMARK  9 active torsions:
REMARK  status: ('A' for Active; 'I' for Inactive)
REMARK    1  A    between atoms: C_1  and  C_2
REMARK    2  A    between atoms: C_5  and  N_9
REMARK    3  A    between atoms: C_6  and  C_8
REMARK    4  A    between atoms: N_9  and  C_10
REMARK    5  A    between atoms: N_9  and  S_21
REMARK    6  A    between atoms: C_10  and  C_11
REMARK    7  A    between atoms: C_13  and  C_16
REMARK    8  A    between atoms: S_21  and  C_24
REMARK    9  A    between atoms: C_28  and  N_30
REMARK                            x       y       z     vdW  Elec       q    Type
REMARK                         _______ _______ _______ _____ _____    ______ ____
ROOT
ATOM      1  N   UNL     1      -1.673   2.428  -1.247  0.00  0.00    -0.197 N 
ENDROOT
BRANCH   1   6
ATOM      2  C   UNL     1       0.671   6.351  -4.605  0.00  0.00    +0.044 C 
ATOM      3  C   UNL     1       0.047   5.309  -3.713  0.00  0.00    -0.050 A 
ATOM      4  C   UNL     1      -0.862   5.686  -2.742  0.00  0.00    +0.005 A 
ATOM      5  C   UNL     1      -1.435   4.733  -1.923  0.00  0.00    +0.025 A 
ATOM      6  C   UNL     1      -1.096   3.394  -2.075  0.00  0.00    +0.055 A 
ATOM      7  C   UNL     1      -0.178   3.020  -3.048  0.00  0.00    -0.028 A 
ATOM      8  C   UNL     1       0.387   3.977  -3.867  0.00  0.00    +0.008 A 
ATOM      9  C   UNL     1       0.197   1.569  -3.212  0.00  0.00    +0.046 C 
ENDBRANCH   1   6
BRANCH   1  10
ATOM     10  S   UNL     1      -2.989   1.570  -1.769  0.00  0.00    +0.075 S 
ATOM     11  O   UNL     1      -3.039   1.721  -3.181  0.00  0.00    -0.150 OA
ATOM     12  O   UNL     1      -2.918   0.297  -1.141  0.00  0.00    -0.150 OA
BRANCH  10  13
ATOM     13  C   UNL     1      -4.421   2.370  -1.126  0.00  0.00    +0.111 A 
ATOM     14  C   UNL     1      -4.868   2.068   0.147  0.00  0.00    +0.030 A 
ATOM     15  C   UNL     1      -5.989   2.698   0.654  0.00  0.00    +0.024 A 
ATOM     16  C   UNL     1      -6.669   3.625  -0.117  0.00  0.00    +0.071 A 
ATOM     17  C   UNL     1      -6.224   3.923  -1.392  0.00  0.00    +0.146 A 
ATOM     18  C   UNL     1      -5.100   3.295  -1.896  0.00  0.00    +0.063 A 
ATOM     19 CL   UNL     1      -8.080   4.413   0.517  0.00  0.00    -0.081 Cl
BRANCH  17  20
ATOM     20  N   UNL     1      -6.951   4.914  -2.217  0.00  0.00    +0.058 N 
ATOM     21  O   UNL     1      -6.558   5.176  -3.340  0.00  0.00    -0.126 OA
ATOM     22  O   UNL     1      -7.941   5.467  -1.773  0.00  0.00    -0.126 OA
ENDBRANCH  17  20
ENDBRANCH  10  13
ENDBRANCH   1  10
BRANCH   1  23
ATOM     23  C   UNL     1      -1.113   2.174   0.083  0.00  0.00    +0.190 C 
BRANCH  23  24
ATOM     24  C   UNL     1       0.024   1.191  -0.030  0.00  0.00    +0.103 A 
ATOM     25  C   UNL     1       1.393   1.498  -0.143  0.00  0.00    +0.081 A 
ATOM     26  C   UNL     1       2.001   0.270  -0.220  0.00  0.00    +0.202 A 
ATOM     27  O   UNL     1       1.011  -0.640  -0.153  0.00  0.00    -0.351 OA
ATOM     28  N   UNL     1      -0.070  -0.109  -0.048  0.00  0.00    -0.081 NA
BRANCH  26  29
ATOM     29  C   UNL     1       3.440   0.002  -0.350  0.00  0.00    +0.172 A 
ATOM     30  C   UNL     1       4.023  -1.228  -0.419  0.00  0.00    +0.053 A 
ATOM     31  C   UNL     1       5.408  -1.014  -0.541  0.00  0.00    +0.042 A 
ATOM     32  C   UNL     1       5.605   0.320  -0.531  0.00  0.00    +0.196 A 
ATOM     33  O   UNL     1       4.415   0.931  -0.416  0.00  0.00    -0.460 OA
ENDBRANCH  26  29
ENDBRANCH  23  24
ENDBRANCH   1  23
TORSDOF 7
