REMARK  Name = ZINC63772673
REMARK  10 active torsions:
REMARK  status: ('A' for Active; 'I' for Inactive)
REMARK    1  A    between atoms: C_1  and  N_2
REMARK    2  A    between atoms: N_2  and  C_3
REMARK    3  A    between atoms: C_9  and  C_11
REMARK    4  A    between atoms: C_11  and  O_12
REMARK    5  A    between atoms: O_12  and  C_13
REMARK    6  A    between atoms: C_13  and  C_15
REMARK    7  A    between atoms: C_15  and  C_17
REMARK    8  A    between atoms: C_15  and  N_27
REMARK    9  A    between atoms: C_17  and  C_18
REMARK   10  A    between atoms: C_28  and  C_30
REMARK                            x       y       z     vdW  Elec       q    Type
REMARK                         _______ _______ _______ _____ _____    ______ ____
ROOT
ATOM      1  C   UNL     1      -0.038  -1.226  -5.998  0.00  0.00    +0.186 C 
ENDROOT
BRANCH   1   2
ATOM      2  N   UNL     1      -0.532  -0.494  -7.168  0.00  0.00    -0.298 N 
ATOM      3  C   UNL     1       0.115   0.608  -7.596  0.00  0.00    +0.246 C 
ATOM      4  O   UNL     1       1.109   0.995  -7.011  0.00  0.00    -0.270 OA
ATOM      5  H   UNL     1      -1.324  -0.803  -7.634  0.00  0.00    +0.150 HD
BRANCH   3   6
ATOM      6  C   UNL     1      -0.382   1.346  -8.775  0.00  0.00    +0.055 A 
ATOM      7  C   UNL     1      -1.526   0.908  -9.445  0.00  0.00    +0.014 A 
ATOM      8  C   UNL     1      -1.986   1.601 -10.545  0.00  0.00    +0.001 A 
ATOM      9  C   UNL     1      -1.316   2.730 -10.986  0.00  0.00    +0.001 A 
ATOM     10  C   UNL     1      -0.182   3.170 -10.328  0.00  0.00    +0.021 A 
ATOM     11  C   UNL     1       0.286   2.489  -9.221  0.00  0.00    +0.053 A 
ATOM     12 CL   UNL     1       1.705   3.047  -8.391  0.00  0.00    -0.083 Cl
ENDBRANCH   3   6
ENDBRANCH   1   2
BRANCH   1  13
ATOM     13  C   UNL     1      -0.039  -0.314  -4.798  0.00  0.00    +0.328 C 
ATOM     14  O   UNL     1      -0.057   0.884  -4.950  0.00  0.00    -0.249 OA
BRANCH  13  15
ATOM     15  O   UNL     1      -0.020  -0.834  -3.561  0.00  0.00    -0.454 OA
BRANCH  15  16
ATOM     16  C   UNL     1      -0.023   0.089  -2.470  0.00  0.00    +0.327 C 
BRANCH  16  19
ATOM     17  C   UNL     1      -0.018   1.461   0.010  0.00  0.00    +0.132 C 
ATOM     18  N   UNL     1       0.002  -0.004   0.002  0.00  0.00    -0.299 N 
ATOM     19  C   UNL     1       0.000  -0.672  -1.169  0.00  0.00    +0.253 C 
ATOM     20  O   UNL     1       0.017  -1.884  -1.175  0.00  0.00    -0.272 OA
BRANCH  18  21
ATOM     21  C   UNL     1       0.024  -0.743   1.267  0.00  0.00    +0.076 C 
ATOM     22  C   UNL     1      -1.222  -0.395   2.083  0.00  0.00    +0.022 C 
ATOM     23  C   UNL     1      -1.199  -1.167   3.404  0.00  0.00    +0.002 C 
ATOM     24  C   UNL     1       0.052  -0.785   4.196  0.00  0.00    +0.000 C 
ATOM     25  C   UNL     1       1.299  -1.133   3.380  0.00  0.00    +0.002 C 
ATOM     26  C   UNL     1       1.276  -0.361   2.059  0.00  0.00    +0.022 C 
ENDBRANCH  18  21
ENDBRANCH  16  19
ENDBRANCH  15  16
ENDBRANCH  13  15
ENDBRANCH   1  13
BRANCH   1  27
ATOM     27  C   UNL     1       1.387  -1.714  -6.267  0.00  0.00    +0.067 C 
BRANCH  27  28
ATOM     28  C   UNL     1       1.370  -2.720  -7.388  0.00  0.00    -0.039 C 
ATOM     29  C   UNL     1       1.598  -2.480  -8.700  0.00  0.00    -0.001 A 
ATOM     30  C   UNL     1       1.916  -1.256  -9.446  0.00  0.00    +0.010 A 
ATOM     31  C   UNL     1       2.092  -1.331 -10.785  0.00  0.00    +0.001 A 
ATOM     32  C   UNL     1       1.978  -2.545 -11.476  0.00  0.00    +0.002 A 
ATOM     33  C   UNL     1       1.688  -3.711 -10.860  0.00  0.00    +0.026 A 
ATOM     34  C   UNL     1       1.484  -3.749  -9.453  0.00  0.00    +0.043 A 
ATOM     35  N   UNL     1       1.196  -4.736  -8.639  0.00  0.00    -0.380 N 
ATOM     36  C   UNL     1       1.102  -4.204  -7.275  0.00  0.00    +0.144 C 
ATOM     37  H   UNL     1       1.071  -5.663  -8.896  0.00  0.00    +0.160 HD
ENDBRANCH  27  28
ENDBRANCH   1  27
TORSDOF 9
