REMARK  Name = ZINC12819665
REMARK  4 active torsions:
REMARK  status: ('A' for Active; 'I' for Inactive)
REMARK    1  A    between atoms: N_12  and  C_16
REMARK    2  A    between atoms: C_16  and  C_17
REMARK    3  A    between atoms: C_17  and  C_19
REMARK    4  A    between atoms: C_28  and  C_29
REMARK                            x       y       z     vdW  Elec       q    Type
REMARK                         _______ _______ _______ _____ _____    ______ ____
ROOT
ATOM      1  C   UNL     1      -2.487   2.143   0.024  0.00  0.00    +0.183 C 
ATOM      2  O   UNL     1      -3.271   3.071   0.032  0.00  0.00    -0.290 OA
ENDROOT
BRANCH   1   3
ATOM      3  C   UNL     1      -1.098   2.393   0.019  0.00  0.00    +0.052 A 
ATOM      4  C   UNL     1      -0.017   1.389   0.010  0.00  0.00    +0.011 A 
ATOM      5  C   UNL     1       0.002  -0.004   0.002  0.00  0.00    +0.011 A 
ATOM      6  C   UNL     1       1.208  -0.670  -0.013  0.00  0.00    +0.001 A 
ATOM      7  C   UNL     1       2.399   0.040  -0.020  0.00  0.00    +0.002 A 
ATOM      8  C   UNL     1       2.395   1.418  -0.013  0.00  0.00    +0.026 A 
ATOM      9  C   UNL     1       1.188   2.110   0.002  0.00  0.00    +0.048 A 
ATOM     10  N   UNL     1       0.879   3.456   0.012  0.00  0.00    -0.354 N 
ATOM     11  H   UNL     1       1.533   4.173   0.009  0.00  0.00    +0.166 HD
ATOM     12  C   UNL     1      -0.470   3.637   0.025  0.00  0.00    +0.058 A 
BRANCH  12  13
ATOM     13  C   UNL     1      -1.158   4.942   0.038  0.00  0.00    -0.001 A 
ATOM     14  C   UNL     1      -2.238   5.157   0.899  0.00  0.00    +0.013 A 
ATOM     15  C   UNL     1      -2.873   6.380   0.911  0.00  0.00    +0.039 A 
ATOM     16  C   UNL     1      -2.451   7.392   0.062  0.00  0.00    +0.123 A 
ATOM     17  C   UNL     1      -1.384   7.182  -0.799  0.00  0.00    +0.039 A 
ATOM     18  C   UNL     1      -0.738   5.965  -0.816  0.00  0.00    +0.013 A 
ATOM     19  F   UNL     1      -3.081   8.587   0.074  0.00  0.00    -0.205 F 
ENDBRANCH  12  13
ENDBRANCH   1   3
BRANCH   1  20
ATOM     20  C   UNL     1      -2.998   0.725   0.019  0.00  0.00    +0.197 C 
BRANCH  20  32
ATOM     21  C   UNL     1      -9.002   3.813   2.438  0.00  0.00    +0.000 A 
ATOM     22  C   UNL     1      -8.150   4.207   1.423  0.00  0.00    +0.000 A 
ATOM     23  C   UNL     1      -7.350   3.274   0.793  0.00  0.00    +0.006 A 
ATOM     24  C   UNL     1      -7.396   1.943   1.174  0.00  0.00    -0.012 A 
ATOM     25  C   UNL     1      -8.249   1.550   2.192  0.00  0.00    -0.042 A 
ATOM     26  C   UNL     1      -9.050   2.487   2.820  0.00  0.00    +0.004 A 
ATOM     27  C   UNL     1      -8.117   0.059   2.425  0.00  0.00    +0.038 C 
ATOM     28  C   UNL     1      -7.410  -0.488   1.163  0.00  0.00    +0.045 C 
ATOM     29  C   UNL     1      -6.645   0.744   0.662  0.00  0.00    +0.138 C 
ATOM     30  C   UNL     1      -5.218   0.728   1.146  0.00  0.00    +0.251 C 
ATOM     31  O   UNL     1      -4.830   0.714   2.294  0.00  0.00    -0.272 OA
ATOM     32  N   UNL     1      -4.463   0.734   0.025  0.00  0.00    -0.216 N 
ATOM     33  C   UNL     1      -5.221   0.743  -1.079  0.00  0.00    +0.310 C 
ATOM     34  O   UNL     1      -4.771   0.745  -2.208  0.00  0.00    -0.252 OA
ATOM     35  N   UNL     1      -6.540   0.750  -0.797  0.00  0.00    -0.281 N 
ATOM     36  H   UNL     1      -7.271   0.757  -1.434  0.00  0.00    +0.152 HD
ENDBRANCH  20  32
ENDBRANCH   1  20
TORSDOF 4
