REMARK  Name = ZINC09877878
REMARK  9 active torsions:
REMARK  status: ('A' for Active; 'I' for Inactive)
REMARK    1  A    between atoms: C_1  and  C_2
REMARK    2  A    between atoms: C_3  and  C_34
REMARK    3  A    between atoms: C_11  and  C_13
REMARK    4  A    between atoms: C_13  and  C_15
REMARK    5  A    between atoms: C_13  and  S_16
REMARK    6  A    between atoms: S_16  and  C_17
REMARK    7  A    between atoms: C_20  and  C_28
REMARK    8  A    between atoms: N_21  and  C_22
REMARK    9  A    between atoms: C_28  and  N_61
REMARK                            x       y       z     vdW  Elec       q    Type
REMARK                         _______ _______ _______ _____ _____    ______ ____
ROOT
ATOM      1  C   UNL     1      -2.869   4.134   0.976  0.00  0.00    +0.197 A 
ATOM      2  N   UNL     1      -3.874   3.539   0.375  0.00  0.00    -0.122 NA
ATOM      3  N   UNL     1      -4.953   4.213   0.558  0.00  0.00    -0.135 NA
ATOM      4  C   UNL     1      -4.706   5.269   1.280  0.00  0.00    +0.122 A 
ATOM      5  N   UNL     1      -3.369   5.255   1.578  0.00  0.00    -0.276 N 
ENDROOT
BRANCH   5   6
ATOM      6  C   UNL     1      -2.661   6.196   2.339  0.00  0.00    +0.050 A 
ATOM      7  C   UNL     1      -2.945   6.355   3.689  0.00  0.00    +0.026 A 
ATOM      8  C   UNL     1      -2.241   7.279   4.437  0.00  0.00    +0.002 A 
ATOM      9  C   UNL     1      -1.263   8.053   3.841  0.00  0.00    +0.000 A 
ATOM     10  C   UNL     1      -0.982   7.901   2.496  0.00  0.00    +0.002 A 
ATOM     11  C   UNL     1      -1.678   6.975   1.744  0.00  0.00    +0.026 A 
ENDBRANCH   5   6
BRANCH   1  12
ATOM     12  S   UNL     1      -1.194   3.587   1.006  0.00  0.00    -0.075 S 
BRANCH  12  13
ATOM     13  C   UNL     1      -1.339   2.076   0.020  0.00  0.00    +0.117 C 
ATOM     14  C   UNL     1      -1.733   2.438  -1.414  0.00  0.00    +0.027 C 
BRANCH  13  25
ATOM     15  C   UNL     1       4.026  -1.944  -0.047  0.00  0.00    +0.045 C 
ATOM     16  C   UNL     1       3.758  -0.461  -0.037  0.00  0.00    -0.026 A 
ATOM     17  C   UNL     1       4.777   0.414  -0.042  0.00  0.00    -0.008 A 
ATOM     18  S   UNL     1       3.960   1.999  -0.025  0.00  0.00    -0.073 S 
ATOM     19  C   UNL     1       2.276   1.440  -0.012  0.00  0.00    +0.116 A 
ATOM     20  C   UNL     1       2.396   0.039  -0.021  0.00  0.00    +0.075 A 
ATOM     21  C   UNL     1       1.161  -0.688  -0.013  0.00  0.00    +0.260 A 
ATOM     22  O   UNL     1       1.160  -1.907  -0.020  0.00  0.00    -0.267 OA
ATOM     23  N   UNL     1       0.002  -0.004   0.002  0.00  0.00    -0.309 N 
ATOM     24  H   UNL     1      -0.837  -0.491   0.007  0.00  0.00    +0.170 HD
ATOM     25  C   UNL     1      -0.016   1.354   0.009  0.00  0.00    +0.124 A 
ATOM     26  N   UNL     1       1.092   2.045   0.003  0.00  0.00    -0.225 NA
ATOM     27  C   UNL     1       6.256   0.125  -0.058  0.00  0.00    +0.052 C 
ENDBRANCH  13  25
ENDBRANCH  12  13
ENDBRANCH   1  12
BRANCH   4  28
ATOM     28  C   UNL     1      -5.707   6.310   1.711  0.00  0.00    -0.001 C 
BRANCH  28  34
ATOM     29  C   UNL     1      -7.087   4.696   2.873  0.00  0.00    -0.078 C 
ATOM     30  C   UNL     1      -7.557   4.243   4.258  0.00  0.00    -0.019 C 
ATOM     31  C   UNL     1      -8.396   5.355   4.896  0.00  0.00    -0.004 C 
ATOM     32  C   UNL     1      -7.558   6.634   4.974  0.00  0.00    -0.019 C 
ATOM     33  C   UNL     1      -7.088   7.018   3.569  0.00  0.00    -0.078 C 
ATOM     34  N   UNL     1      -6.267   5.917   3.021  0.00  0.00    +0.384 N 
ATOM     35  H   UNL     1      -5.495   5.723   3.669  0.00  0.00    -0.081 HD
ENDBRANCH  28  34
ENDBRANCH   4  28
TORSDOF 6
