REMARK  Name = ZINC59277010
REMARK  7 active torsions:
REMARK  status: ('A' for Active; 'I' for Inactive)
REMARK    1  A    between atoms: C_1  and  O_2
REMARK    2  A    between atoms: O_2  and  C_3
REMARK    3  A    between atoms: C_8  and  N_9
REMARK    4  A    between atoms: N_12  and  C_13
REMARK    5  A    between atoms: N_12  and  C_23
REMARK    6  A    between atoms: C_13  and  C_14
REMARK    7  A    between atoms: C_23  and  C_24
REMARK                            x       y       z     vdW  Elec       q    Type
REMARK                         _______ _______ _______ _____ _____    ______ ____
ROOT
ATOM      1  N   UNL     1      -0.073  -2.780  -0.012  0.00  0.00    -0.266 N 
ATOM      2  C   UNL     1      -0.126  -4.124   0.083  0.00  0.00    +0.307 C 
ATOM      3  O   UNL     1      -1.202  -4.691   0.090  0.00  0.00    -0.252 OA
ATOM      4  N   UNL     1       1.013  -4.838   0.170  0.00  0.00    -0.281 N 
ATOM      5  H   UNL     1       0.783  -2.334  -0.101  0.00  0.00    +0.156 HD
ENDROOT
BRANCH   1  11
ATOM      6  C   UNL     1      -1.295  -0.765  -0.569  0.00  0.00    +0.141 A 
ATOM      7  C   UNL     1      -2.468  -0.029  -0.542  0.00  0.00    +0.047 A 
ATOM      8  C   UNL     1      -3.595  -0.546   0.069  0.00  0.00    +0.004 A 
ATOM      9  C   UNL     1      -3.556  -1.798   0.655  0.00  0.00    +0.002 A 
ATOM     10  C   UNL     1      -2.389  -2.538   0.633  0.00  0.00    +0.027 A 
ATOM     11  C   UNL     1      -1.256  -2.029   0.016  0.00  0.00    +0.077 A 
BRANCH   6  13
ATOM     12  C   UNL     1      -0.298   1.044  -1.748  0.00  0.00    +0.277 C 
ATOM     13  O   UNL     1      -0.185  -0.258  -1.169  0.00  0.00    -0.493 OA
ENDBRANCH   6  13
ENDBRANCH   1  11
BRANCH   4  14
ATOM     14  C   UNL     1       0.956  -6.299   0.273  0.00  0.00    +0.144 C 
BRANCH  14  15
ATOM     15  C   UNL     1       0.980  -6.901  -1.108  0.00  0.00    -0.026 A 
ATOM     16  C   UNL     1      -0.206  -7.128  -1.783  0.00  0.00    +0.009 A 
ATOM     17  C   UNL     1      -0.189  -7.680  -3.050  0.00  0.00    +0.050 A 
ATOM     18  C   UNL     1       1.018  -8.008  -3.647  0.00  0.00    +0.166 A 
ATOM     19  C   UNL     1       2.212  -7.780  -2.967  0.00  0.00    +0.167 A 
ATOM     20  C   UNL     1       2.187  -7.221  -1.700  0.00  0.00    +0.054 A 
ATOM     21  O   UNL     1       3.248  -8.184  -3.759  0.00  0.00    -0.453 OA
ATOM     22  C   UNL     1       2.659  -9.036  -4.759  0.00  0.00    +0.466 C 
ATOM     23  O   UNL     1       1.306  -8.555  -4.864  0.00  0.00    -0.453 OA
ENDBRANCH  14  15
ENDBRANCH   4  14
BRANCH   4  24
ATOM     24  C   UNL     1       2.309  -4.155   0.161  0.00  0.00    +0.113 C 
BRANCH  24  25
ATOM     25  C   UNL     1       2.715  -3.814   1.595  0.00  0.00    +0.010 C 
ATOM     26  C   UNL     1       4.014  -2.998   1.583  0.00  0.00    +0.009 C 
ATOM     27  C   UNL     1       4.300  -2.521   3.009  0.00  0.00    +0.027 C 
ATOM     28  C   UNL     1       4.197  -3.670   3.969  0.00  0.00    -0.031 C 
ATOM     29  C   UNL     1       3.611  -4.792   3.697  0.00  0.00    -0.031 C 
ATOM     30  C   UNL     1       2.956  -5.104   2.383  0.00  0.00    +0.032 C 
ENDBRANCH  24  25
ENDBRANCH   4  24
TORSDOF 6
