REMARK  Name = ZINC58505351
REMARK  3 active torsions:
REMARK  status: ('A' for Active; 'I' for Inactive)
REMARK    1  A    between atoms: N_10  and  C_11
REMARK    2  A    between atoms: C_11  and  C_12
REMARK    3  A    between atoms: C_12  and  C_18
REMARK                            x       y       z     vdW  Elec       q    Type
REMARK                         _______ _______ _______ _____ _____    ______ ____
ROOT
ATOM      1  C   UNL     1       2.930  -0.403  -5.378  0.00  0.00    +0.000 A 
ATOM      2  C   UNL     1       2.512  -0.484  -4.063  0.00  0.00    +0.002 A 
ATOM      3  C   UNL     1       3.229   0.155  -3.073  0.00  0.00    +0.022 A 
ATOM      4  C   UNL     1       4.373   0.881  -3.385  0.00  0.00    +0.017 A 
ATOM      5  C   UNL     1       4.790   0.955  -4.695  0.00  0.00    -0.028 A 
ATOM      6  C   UNL     1       4.066   0.315  -5.691  0.00  0.00    +0.005 A 
ATOM      7  C   UNL     1       6.032   1.709  -5.101  0.00  0.00    +0.038 C 
ATOM      8  C   UNL     1       6.474   2.623  -3.955  0.00  0.00    +0.022 C 
ATOM      9  C   UNL     1       6.434   1.801  -2.660  0.00  0.00    +0.085 C 
ATOM     10  N   UNL     1       5.038   1.509  -2.332  0.00  0.00    -0.392 NA
ATOM     11  H   UNL     1       4.565   2.373  -2.114  0.00  0.00    +0.126 HD
ENDROOT
BRANCH  10  12
ATOM     12  C   UNL     1       4.998   0.634  -1.153  0.00  0.00    +0.103 C 
BRANCH  12  13
ATOM     13  C   UNL     1       4.888   1.488   0.112  0.00  0.00    +0.086 C 
ATOM     14  C   UNL     1       6.106   2.408   0.214  0.00  0.00    +0.020 C 
ATOM     15  C   UNL     1       7.380   1.562   0.279  0.00  0.00    +0.001 C 
ATOM     16  C   UNL     1       7.325   0.651   1.506  0.00  0.00    +0.000 C 
ATOM     17  C   UNL     1       6.106  -0.269   1.404  0.00  0.00    +0.001 C 
ATOM     18  C   UNL     1       4.833   0.577   1.340  0.00  0.00    +0.020 C 
BRANCH  13  19
ATOM     19  C   UNL     1       3.634   2.321   0.048  0.00  0.00    +0.363 C 
ATOM     20  O   UNL     1       3.711   3.537  -0.010  0.00  0.00    -0.246 OA
ATOM     21  O   UNL     1       2.541   1.780   0.055  0.00  0.00    -0.246 OA
ENDBRANCH  13  19
ENDBRANCH  12  13
ENDBRANCH  10  12
TORSDOF 3
