REMARK  Name = ZINC66617174
REMARK  7 active torsions:
REMARK  status: ('A' for Active; 'I' for Inactive)
REMARK    1  A    between atoms: C_1  and  C_2
REMARK    2  A    between atoms: C_5  and  C_12
REMARK    3  A    between atoms: C_8  and  C_10
REMARK    4  A    between atoms: C_8  and  C_11
REMARK    5  A    between atoms: C_12  and  C_13
REMARK    6  A    between atoms: N_15  and  C_16
REMARK    7  A    between atoms: C_16  and  C_17
REMARK                            x       y       z     vdW  Elec       q    Type
REMARK                         _______ _______ _______ _____ _____    ______ ____
ROOT
ATOM      1  C   UNL     1       0.660  -2.126  -3.742  0.00  0.00    +0.214 C 
ATOM      2  O   UNL     1      -0.378  -1.511  -3.615  0.00  0.00    -0.276 OA
ATOM      3  N   UNL     1       1.101  -2.457  -4.971  0.00  0.00    -0.308 N 
ATOM      4  H   UNL     1       1.931  -2.949  -5.072  0.00  0.00    +0.149 HD
ENDROOT
BRANCH   1   5
ATOM      5  C   UNL     1       1.455  -2.521  -2.524  0.00  0.00    +0.099 C 
BRANCH   5   9
ATOM      6  C   UNL     1      -0.019   1.526   0.010  0.00  0.00    +0.007 C 
ATOM      7  C   UNL     1       0.002  -0.004   0.002  0.00  0.00    -0.013 C 
ATOM      8  C   UNL     1       0.718  -0.497  -1.257  0.00  0.00    +0.007 C 
ATOM      9  C   UNL     1       0.739  -2.027  -1.265  0.00  0.00    -0.002 C 
ATOM     10  C   UNL     1       1.479  -2.534  -0.026  0.00  0.00    +0.010 C 
ATOM     11  C   UNL     1       0.763  -2.041   1.233  0.00  0.00    -0.034 C 
ATOM     12  C   UNL     1       0.742  -0.511   1.242  0.00  0.00    +0.009 C 
ATOM     13  C   UNL     1      -0.673  -2.570   1.244  0.00  0.00    +0.011 C 
ATOM     14  C   UNL     1       1.503  -2.548   2.473  0.00  0.00    +0.011 C 
ENDBRANCH   5   9
ENDBRANCH   1   5
BRANCH   3  15
ATOM     15  C   UNL     1       0.328  -2.073  -6.155  0.00  0.00    +0.180 C 
BRANCH  15  16
ATOM     16  C   UNL     1       1.034  -2.559  -7.395  0.00  0.00    +0.151 A 
ATOM     17  N   UNL     1       1.933  -1.906  -8.085  0.00  0.00    -0.133 NA
ATOM     18  N   UNL     1       2.323  -2.623  -9.082  0.00  0.00    -0.134 NA
ATOM     19  C   UNL     1       1.693  -3.758  -9.072  0.00  0.00    +0.134 A 
ATOM     20  N   UNL     1       0.861  -3.751  -7.999  0.00  0.00    -0.314 N 
ATOM     21  C   UNL     1      -0.029  -4.849  -7.624  0.00  0.00    +0.125 C 
ATOM     22  C   UNL     1      -0.185  -5.789  -8.825  0.00  0.00    +0.022 C 
ATOM     23  C   UNL     1       1.197  -6.153  -9.376  0.00  0.00    +0.009 C 
ATOM     24  C   UNL     1       1.819  -4.912 -10.035  0.00  0.00    +0.076 C 
ENDBRANCH  15  16
ENDBRANCH   3  15
TORSDOF 4
