REMARK  Name = ZINC08870853
REMARK  7 active torsions:
REMARK  status: ('A' for Active; 'I' for Inactive)
REMARK    1  A    between atoms: C_7  and  N_19
REMARK    2  A    between atoms: C_9  and  S_12
REMARK    3  A    between atoms: C_10  and  O_11
REMARK    4  A    between atoms: S_12  and  C_13
REMARK    5  A    between atoms: C_13  and  C_14
REMARK    6  A    between atoms: N_19  and  S_20
REMARK    7  A    between atoms: S_20  and  C_23
REMARK                            x       y       z     vdW  Elec       q    Type
REMARK                         _______ _______ _______ _____ _____    ______ ____
ROOT
ATOM      1  C   UNL     1      -1.695   1.489   5.109  0.00  0.00    +0.001 A 
ATOM      2  C   UNL     1      -2.164   2.791   5.273  0.00  0.00    +0.001 A 
ATOM      3  C   UNL     1      -2.795   3.442   4.258  0.00  0.00    +0.012 A 
ATOM      4  C   UNL     1      -2.977   2.794   3.023  0.00  0.00    +0.026 A 
ATOM      5  C   UNL     1      -2.504   1.468   2.858  0.00  0.00    +0.008 A 
ATOM      6  C   UNL     1      -1.854   0.831   3.927  0.00  0.00    +0.010 A 
ATOM      7  C   UNL     1      -2.678   0.816   1.619  0.00  0.00    +0.057 A 
ATOM      8  C   UNL     1      -3.315   1.469   0.588  0.00  0.00    +0.043 A 
ATOM      9  C   UNL     1      -3.787   2.774   0.752  0.00  0.00    +0.052 A 
ATOM     10  C   UNL     1      -3.624   3.438   1.954  0.00  0.00    +0.138 A 
ENDROOT
BRANCH  10  11
ATOM     11  O   UNL     1      -4.088   4.709   2.100  0.00  0.00    -0.505 OA
ATOM     12  H   UNL     1      -4.998   4.761   2.422  0.00  0.00    +0.292 HD
ENDBRANCH  10  11
BRANCH   7  13
ATOM     13  N   UNL     1      -2.212  -0.488   1.441  0.00  0.00    -0.216 N 
ATOM     14  H   UNL     1      -2.219  -1.111   2.185  0.00  0.00    +0.174 HD
BRANCH  13  15
ATOM     15  S   UNL     1      -1.646  -0.971  -0.038  0.00  0.00    +0.073 S 
ATOM     16  O   UNL     1      -1.153  -2.293   0.127  0.00  0.00    -0.150 OA
ATOM     17  O   UNL     1      -0.835   0.088  -0.528  0.00  0.00    -0.150 OA
BRANCH  15  18
ATOM     18  C   UNL     1      -3.035  -1.083  -1.116  0.00  0.00    +0.116 A 
ATOM     19  C   UNL     1      -3.122  -0.291  -2.229  0.00  0.00    +0.031 A 
ATOM     20  C   UNL     1      -4.196  -0.336  -3.117  0.00  0.00    +0.026 A 
ATOM     21  C   UNL     1      -5.243  -1.212  -2.892  0.00  0.00    +0.042 A 
ATOM     22  C   UNL     1      -5.140  -2.010  -1.757  0.00  0.00    +0.017 A 
ATOM     23  C   UNL     1      -4.078  -1.986  -0.853  0.00  0.00    +0.011 A 
ATOM     24  C   UNL     1      -4.143  -2.871   0.237  0.00  0.00    +0.010 A 
ATOM     25  C   UNL     1      -5.231  -3.692   0.360  0.00  0.00    +0.001 A 
ATOM     26  C   UNL     1      -6.285  -3.704  -0.554  0.00  0.00    +0.014 A 
ATOM     27  C   UNL     1      -6.257  -2.850  -1.643  0.00  0.00    +0.047 A 
ATOM     28  C   UNL     1      -7.082  -2.514  -2.809  0.00  0.00    +0.249 C 
ATOM     29  O   UNL     1      -8.153  -3.016  -3.096  0.00  0.00    -0.270 OA
ATOM     30  N   UNL     1      -6.441  -1.544  -3.512  0.00  0.00    -0.281 N 
ATOM     31  H   UNL     1      -6.772  -1.141  -4.330  0.00  0.00    +0.155 HD
ENDBRANCH  15  18
ENDBRANCH  13  15
ENDBRANCH   7  13
BRANCH   9  32
ATOM     32  S   UNL     1      -4.598   3.582  -0.588  0.00  0.00    -0.114 S 
BRANCH  32  33
ATOM     33  C   UNL     1      -4.577   2.352  -1.920  0.00  0.00    +0.148 C 
BRANCH  33  34
ATOM     34  C   UNL     1      -5.249   2.923  -3.142  0.00  0.00    +0.115 A 
ATOM     35  C   UNL     1      -4.641   3.611  -4.125  0.00  0.00    +0.045 A 
ATOM     36  C   UNL     1      -5.641   3.954  -5.064  0.00  0.00    +0.041 A 
ATOM     37  C   UNL     1      -6.800   3.454  -4.599  0.00  0.00    +0.195 A 
ATOM     38  O   UNL     1      -6.556   2.826  -3.437  0.00  0.00    -0.467 OA
ENDBRANCH  33  34
ENDBRANCH  32  33
ENDBRANCH   9  32
TORSDOF 7
