REMARK  Name = ZINC57432638
REMARK  7 active torsions:
REMARK  status: ('A' for Active; 'I' for Inactive)
REMARK    1  A    between atoms: C_1  and  C_2
REMARK    2  A    between atoms: C_2  and  C_3
REMARK    3  A    between atoms: C_3  and  C_4
REMARK    4  A    between atoms: C_4  and  N_5
REMARK    5  A    between atoms: N_8  and  C_9
REMARK    6  A    between atoms: C_9  and  C_15
REMARK    7  A    between atoms: N_17  and  C_18
REMARK                            x       y       z     vdW  Elec       q    Type
REMARK                         _______ _______ _______ _____ _____    ______ ____
ROOT
ATOM      1  C   UNL     1      -4.743  -5.892  -0.196  0.00  0.00    +0.112 C 
ATOM      2  C   UNL     1      -4.538  -6.902   0.935  0.00  0.00    +0.035 C 
ATOM      3  C   UNL     1      -5.217  -6.388   2.206  0.00  0.00    +0.003 C 
ATOM      4  C   UNL     1      -6.715  -6.209   1.947  0.00  0.00    +0.000 C 
ATOM      5  C   UNL     1      -6.919  -5.199   0.816  0.00  0.00    +0.003 C 
ATOM      6  C   UNL     1      -6.240  -5.713  -0.455  0.00  0.00    +0.035 C 
ENDROOT
BRANCH   1  10
ATOM      7  N   UNL     1      -2.272  -3.297   0.621  0.00  0.00    -0.299 N 
ATOM      8  C   UNL     1      -2.825  -4.500   0.369  0.00  0.00    +0.300 C 
ATOM      9  O   UNL     1      -2.122  -5.490   0.307  0.00  0.00    -0.253 OA
ATOM     10  N   UNL     1      -4.156  -4.605   0.185  0.00  0.00    -0.285 N 
ATOM     11  H   UNL     1      -2.833  -2.506   0.670  0.00  0.00    +0.150 HD
ATOM     12  H   UNL     1      -4.725  -3.829   0.305  0.00  0.00    +0.151 HD
BRANCH   7  13
ATOM     13  C   UNL     1      -0.826  -3.182   0.820  0.00  0.00    +0.106 C 
BRANCH  13  14
ATOM     14  C   UNL     1      -0.462  -1.720   1.087  0.00  0.00    +0.018 C 
BRANCH  14  16
ATOM     15  C   UNL     1       1.413  -0.138   1.563  0.00  0.00    +0.004 C 
ATOM     16  C   UNL     1       1.049  -1.600   1.296  0.00  0.00    -0.002 C 
ENDBRANCH  14  16
ENDBRANCH  13  14
ENDBRANCH   7  13
ENDBRANCH   1  10
BRANCH   1  17
ATOM     17  C   UNL     1      -4.074  -6.398  -1.448  0.00  0.00    +0.237 C 
ATOM     18  O   UNL     1      -3.869  -7.586  -1.589  0.00  0.00    -0.273 OA
ATOM     19  N   UNL     1      -3.702  -5.532  -2.411  0.00  0.00    -0.302 N 
ATOM     20  H   UNL     1      -3.930  -4.592  -2.332  0.00  0.00    +0.150 HD
BRANCH  19  21
ATOM     21  C   UNL     1      -2.955  -6.009  -3.578  0.00  0.00    +0.159 C 
ATOM     22  C   UNL     1      -2.298  -4.823  -4.288  0.00  0.00    +0.032 C 
ATOM     23  C   UNL     1      -3.181  -3.591  -4.205  0.00  0.00    +0.004 C 
ATOM     24  C   UNL     1      -4.480  -3.715  -4.980  0.00  0.00    +0.019 C 
ATOM     25  C   UNL     1      -5.392  -4.769  -4.349  0.00  0.00    +0.104 C 
ATOM     26  N   UNL     1      -5.040  -6.087  -4.900  0.00  0.00    -0.314 N 
ATOM     27  C   UNL     1      -3.901  -6.689  -4.544  0.00  0.00    +0.233 C 
ATOM     28  O   UNL     1      -3.620  -7.778  -4.999  0.00  0.00    -0.274 OA
ATOM     29  H   UNL     1      -5.640  -6.524  -5.525  0.00  0.00    +0.149 HD
ENDBRANCH  19  21
ENDBRANCH   1  17
TORSDOF 6
