REMARK  Name = ZINC36278792
REMARK  7 active torsions:
REMARK  status: ('A' for Active; 'I' for Inactive)
REMARK    1  A    between atoms: C_1  and  C_2
REMARK    2  A    between atoms: C_5  and  C_9
REMARK    3  A    between atoms: C_7  and  C_8
REMARK    4  A    between atoms: C_14  and  N_19
REMARK    5  A    between atoms: N_19  and  C_20
REMARK    6  A    between atoms: C_20  and  C_21
REMARK    7  A    between atoms: C_20  and  C_22
REMARK                            x       y       z     vdW  Elec       q    Type
REMARK                         _______ _______ _______ _____ _____    ______ ____
ROOT
ATOM      1  C   UNL     1       0.029  -4.255   0.022  0.00  0.00    +0.002 A 
ATOM      2  C   UNL     1       0.980  -4.936   0.703  0.00  0.00    +0.056 A 
ATOM      3  S   UNL     1       0.583  -6.643   0.379  0.00  0.00    -0.076 S 
ATOM      4  C   UNL     1      -0.839  -6.410  -0.654  0.00  0.00    +0.115 A 
ATOM      5  C   UNL     1      -0.978  -5.008  -0.720  0.00  0.00    +0.055 A 
ATOM      6  C   UNL     1      -2.068  -4.538  -1.499  0.00  0.00    +0.133 A 
ATOM      7  N   UNL     1      -2.864  -5.413  -2.091  0.00  0.00    -0.202 NA
ATOM      8  C   UNL     1      -2.679  -6.718  -1.983  0.00  0.00    +0.225 A 
ATOM      9  N   UNL     1      -1.676  -7.213  -1.281  0.00  0.00    -0.210 NA
ATOM     10 CL   UNL     1      -3.768  -7.801  -2.791  0.00  0.00    -0.041 Cl
ENDROOT
BRANCH   1  15
ATOM     11  C   UNL     1      -0.059   1.502   0.073  0.00  0.00    +0.044 C 
ATOM     12  C   UNL     1      -0.036  -0.005   0.060  0.00  0.00    -0.048 A 
ATOM     13  C   UNL     1      -1.125  -0.715   0.533  0.00  0.00    +0.004 A 
ATOM     14  C   UNL     1      -1.110  -2.095   0.523  0.00  0.00    +0.009 A 
ATOM     15  C   UNL     1       0.006  -2.773   0.035  0.00  0.00    -0.016 A 
ATOM     16  C   UNL     1       1.100  -2.053  -0.441  0.00  0.00    +0.012 A 
ATOM     17  C   UNL     1       1.071  -0.673  -0.431  0.00  0.00    -0.047 A 
ATOM     18  C   UNL     1       2.251   0.108  -0.950  0.00  0.00    +0.044 C 
ENDBRANCH   1  15
BRANCH   6  19
ATOM     19  N   UNL     1      -2.296  -3.180  -1.636  0.00  0.00    -0.326 N 
ATOM     20  H   UNL     1      -1.661  -2.543  -1.275  0.00  0.00    +0.148 HD
BRANCH  19  21
ATOM     21  C   UNL     1      -3.498  -2.705  -2.326  0.00  0.00    +0.066 C 
ATOM     22  C   UNL     1      -4.666  -2.653  -1.340  0.00  0.00    +0.027 C 
ATOM     23  C   UNL     1      -3.243  -1.306  -2.890  0.00  0.00    +0.027 C 
ENDBRANCH  19  21
ENDBRANCH   6  19
TORSDOF 3
