REMARK  Name = ZINC13500074
REMARK  15 active torsions:
REMARK  status: ('A' for Active; 'I' for Inactive)
REMARK    1  A    between atoms: C_1  and  C_2
REMARK    2  A    between atoms: C_2  and  C_3
REMARK    3  A    between atoms: C_3  and  C_4
REMARK    4  A    between atoms: C_4  and  C_6
REMARK    5  A    between atoms: C_4  and  N_71
REMARK    6  A    between atoms: N_10  and  C_11
REMARK    7  A    between atoms: C_11  and  C_12
REMARK    8  A    between atoms: C_12  and  O_14
REMARK    9  A    between atoms: O_14  and  C_15
REMARK   10  A    between atoms: C_15  and  C_16
REMARK   11  A    between atoms: C_17  and  C_18
REMARK   12  A    between atoms: C_17  and  N_71
REMARK   13  A    between atoms: C_22  and  C_31
REMARK   14  A    between atoms: C_24  and  C_30
REMARK   15  A    between atoms: C_32  and  N_71
REMARK                            x       y       z     vdW  Elec       q    Type
REMARK                         _______ _______ _______ _____ _____    ______ ____
ROOT
ATOM      1  N   UNL     1      -1.175   8.035  -1.363  0.00  0.00    +0.391 N 
ATOM      2  H   UNL     1      -1.884   7.392  -1.735  0.00  0.00    -0.080 HD
ENDROOT
BRANCH   1   3
ATOM      3  C   UNL     1       0.078   7.861  -2.127  0.00  0.00    -0.067 C 
ATOM      4  C   UNL     1       1.152   8.870  -1.669  0.00  0.00    -0.015 C 
ATOM      5  C   UNL     1       1.887   9.261  -2.976  0.00  0.00    -0.002 C 
ATOM      6  C   UNL     1       0.737   9.315  -4.012  0.00  0.00    -0.002 C 
ATOM      7  C   UNL     1      -0.185   8.144  -3.616  0.00  0.00    -0.015 C 
ENDBRANCH   1   3
BRANCH   1   8
ATOM      8  C   UNL     1      -1.664   9.422  -1.503  0.00  0.00    +0.003 C 
BRANCH   8   9
ATOM      9  C   UNL     1      -1.034  10.309  -0.460  0.00  0.00    +0.139 A 
ATOM     10  N   UNL     1      -0.949  10.067   0.826  0.00  0.00    -0.115 NA
ATOM     11  N   UNL     1      -0.344  11.061   1.379  0.00  0.00    -0.023 NA
ATOM     12  N   UNL     1      -0.041  11.931   0.480  0.00  0.00    -0.043 NA
ATOM     13  N   UNL     1      -0.445  11.502  -0.668  0.00  0.00    -0.220 N 
BRANCH  13  14
ATOM     14  C   UNL     1      -0.295  12.185  -1.955  0.00  0.00    +0.267 C 
BRANCH  14  15
ATOM     15  C   UNL     1      -1.490  13.070  -2.196  0.00  0.00    +0.329 C 
ATOM     16  O   UNL     1      -2.377  13.125  -1.377  0.00  0.00    -0.249 OA
BRANCH  15  17
ATOM     17  O   UNL     1      -1.570  13.798  -3.321  0.00  0.00    -0.464 OA
BRANCH  17  18
ATOM     18  C   UNL     1      -2.750  14.628  -3.487  0.00  0.00    +0.229 C 
ATOM     19  C   UNL     1      -2.663  15.377  -4.818  0.00  0.00    +0.048 C 
ENDBRANCH  17  18
ENDBRANCH  15  17
ENDBRANCH  14  15
ENDBRANCH  13  14
ENDBRANCH   8   9
BRANCH   8  20
ATOM     20  C   UNL     1      -3.183   9.425  -1.325  0.00  0.00    -0.008 C 
BRANCH  20  22
ATOM     21  C   UNL     1      -5.353   8.721  -2.344  0.00  0.00    +0.004 C 
ATOM     22  C   UNL     1      -3.830   8.617  -2.451  0.00  0.00    -0.005 C 
ENDBRANCH  20  22
ENDBRANCH   8  20
ENDBRANCH   1   8
BRANCH   1  23
ATOM     23  C   UNL     1      -0.945   7.722   0.063  0.00  0.00    -0.036 C 
BRANCH  23  24
ATOM     24  C   UNL     1      -0.818   6.228   0.216  0.00  0.00    +0.001 A 
ATOM     25  C   UNL     1       0.410   5.658   0.293  0.00  0.00    +0.017 A 
ATOM     26  C   UNL     1       0.499   4.204   0.442  0.00  0.00    -0.001 A 
ATOM     27  C   UNL     1       1.738   3.560   0.525  0.00  0.00    +0.013 A 
ATOM     28  C   UNL     1       1.786   2.202   0.663  0.00  0.00    -0.050 A 
ATOM     29  C   UNL     1       0.617   1.455   0.721  0.00  0.00    +0.008 A 
ATOM     30  C   UNL     1      -0.614   2.068   0.635  0.00  0.00    -0.026 A 
ATOM     31  C   UNL     1      -0.689   3.451   0.500  0.00  0.00    +0.052 A 
ATOM     32  N   UNL     1      -1.907   4.091   0.416  0.00  0.00    -0.322 N 
ATOM     33  H   UNL     1      -2.724   3.570   0.456  0.00  0.00    +0.169 HD
ATOM     34  C   UNL     1      -1.978   5.426   0.280  0.00  0.00    +0.251 A 
ATOM     35  O   UNL     1      -3.073   5.959   0.209  0.00  0.00    -0.268 OA
ATOM     36  C   UNL     1      -1.875   1.245   0.692  0.00  0.00    +0.046 C 
ATOM     37  C   UNL     1       3.121   1.508   0.754  0.00  0.00    +0.044 C 
ENDBRANCH  23  24
ENDBRANCH   1  23
TORSDOF 11
