REMARK  Name = ZINC21919836
REMARK  10 active torsions:
REMARK  status: ('A' for Active; 'I' for Inactive)
REMARK    1  A    between atoms: C_1  and  C_2
REMARK    2  A    between atoms: C_2  and  N_3
REMARK    3  A    between atoms: C_16  and  C_17
REMARK    4  A    between atoms: C_16  and  C_18
REMARK    5  A    between atoms: N_20  and  C_21
REMARK    6  A    between atoms: C_21  and  C_22
REMARK    7  A    between atoms: N_24  and  C_25
REMARK    8  A    between atoms: C_25  and  C_26
REMARK    9  A    between atoms: C_31  and  O_32
REMARK   10  A    between atoms: O_32  and  C_33
REMARK                            x       y       z     vdW  Elec       q    Type
REMARK                         _______ _______ _______ _____ _____    ______ ____
ROOT
ATOM      1  C   UNL     1      -0.680  -1.974  -2.174  0.00  0.00    +0.239 C 
ATOM      2  O   UNL     1      -1.321  -1.053  -2.635  0.00  0.00    -0.273 OA
ATOM      3  N   UNL     1       0.051  -2.761  -2.987  0.00  0.00    -0.305 N 
ATOM      4  H   UNL     1       0.632  -3.596  -2.568  0.00  0.00    +0.149 HD
ENDROOT
BRANCH   1  18
ATOM      5  N   UNL     1       0.613  -2.716  -0.278  0.00  0.00    -0.281 N 
ATOM      6  C   UNL     1       1.650  -1.872  -0.070  0.00  0.00    +0.264 C 
ATOM      7  O   UNL     1       2.788  -2.278   0.076  0.00  0.00    -0.268 OA
ATOM      8  C   UNL     1       1.328  -0.433  -0.028  0.00  0.00    +0.106 A 
ATOM      9  C   UNL     1       2.143   0.638  -0.023  0.00  0.00    +0.041 A 
ATOM     10  C   UNL     1       1.326   1.798  -0.001  0.00  0.00    +0.001 A 
ATOM     11  C   UNL     1       1.610   3.169   0.009  0.00  0.00    +0.010 A 
ATOM     12  C   UNL     1       0.590   4.075   0.025  0.00  0.00    +0.001 A 
ATOM     13  C   UNL     1      -0.732   3.650   0.032  0.00  0.00    +0.002 A 
ATOM     14  C   UNL     1      -1.038   2.308   0.019  0.00  0.00    +0.026 A 
ATOM     15  C   UNL     1      -0.016   1.362   0.009  0.00  0.00    +0.050 A 
ATOM     16  N   UNL     1       0.002  -0.004   0.002  0.00  0.00    -0.334 N 
ATOM     17  C   UNL     1      -1.113  -0.955   0.033  0.00  0.00    +0.157 C 
ATOM     18  C   UNL     1      -0.701  -2.237  -0.690  0.00  0.00    +0.128 C 
ATOM     19  C   UNL     1      -1.738  -3.323  -0.396  0.00  0.00    +0.043 C 
BRANCH   5  21
ATOM     20  C   UNL     1       0.501  -4.520   1.369  0.00  0.00    +0.024 C 
ATOM     21  C   UNL     1       0.816  -4.153  -0.082  0.00  0.00    +0.106 C 
ENDBRANCH   5  21
ENDBRANCH   1  18
BRANCH   3  22
ATOM     22  C   UNL     1       0.071  -2.505  -4.430  0.00  0.00    +0.200 C 
BRANCH  22  23
ATOM     23  C   UNL     1       0.956  -3.519  -5.107  0.00  0.00    +0.230 C 
ATOM     24  O   UNL     1       1.515  -4.372  -4.450  0.00  0.00    -0.274 OA
ATOM     25  N   UNL     1       1.127  -3.479  -6.444  0.00  0.00    -0.310 N 
ATOM     26  H   UNL     1       0.620  -2.706  -7.040  0.00  0.00    +0.149 HD
BRANCH  25  27
ATOM     27  C   UNL     1       1.988  -4.465  -7.102  0.00  0.00    +0.143 C 
BRANCH  27  28
ATOM     28  C   UNL     1       2.009  -4.202  -8.586  0.00  0.00    +0.011 A 
ATOM     29  C   UNL     1       1.225  -4.961  -9.434  0.00  0.00    +0.009 A 
ATOM     30  C   UNL     1       1.241  -4.717 -10.795  0.00  0.00    +0.001 A 
ATOM     31  C   UNL     1       2.047  -3.720 -11.312  0.00  0.00    +0.004 A 
ATOM     32  C   UNL     1       2.836  -2.962 -10.469  0.00  0.00    +0.046 A 
ATOM     33  C   UNL     1       2.819  -3.201  -9.102  0.00  0.00    +0.125 A 
BRANCH  33  34
ATOM     34  O   UNL     1       3.594  -2.457  -8.271  0.00  0.00    -0.495 OA
ATOM     35  C   UNL     1       4.403  -1.444  -8.872  0.00  0.00    +0.277 C 
ENDBRANCH  33  34
ENDBRANCH  27  28
ENDBRANCH  25  27
ENDBRANCH  22  23
ENDBRANCH   3  22
TORSDOF 7
