REMARK  Name = ZINC13500099
REMARK  10 active torsions:
REMARK  status: ('A' for Active; 'I' for Inactive)
REMARK    1  A    between atoms: C_1  and  C_2
REMARK    2  A    between atoms: C_2  and  C_3
REMARK    3  A    between atoms: C_3  and  C_4
REMARK    4  A    between atoms: C_4  and  C_6
REMARK    5  A    between atoms: C_4  and  N_72
REMARK    6  A    between atoms: N_10  and  C_11
REMARK    7  A    between atoms: C_17  and  C_18
REMARK    8  A    between atoms: C_17  and  N_72
REMARK    9  A    between atoms: C_24  and  C_30
REMARK   10  A    between atoms: C_31  and  N_72
REMARK                            x       y       z     vdW  Elec       q    Type
REMARK                         _______ _______ _______ _____ _____    ______ ____
ROOT
ATOM      1  N   UNL     1      -0.485  -2.485  -1.374  0.00  0.00    +0.391 N 
ATOM      2  H   UNL     1      -0.666  -3.483  -1.215  0.00  0.00    -0.080 HD
ENDROOT
BRANCH   1   3
ATOM      3  C   UNL     1      -1.003  -2.109  -2.706  0.00  0.00    -0.067 C 
ATOM      4  C   UNL     1      -0.446  -3.083  -3.765  0.00  0.00    -0.015 C 
ATOM      5  C   UNL     1      -0.212  -2.194  -5.013  0.00  0.00    -0.002 C 
ATOM      6  C   UNL     1       0.303  -0.869  -4.397  0.00  0.00    -0.002 C 
ATOM      7  C   UNL     1      -0.527  -0.702  -3.108  0.00  0.00    -0.015 C 
ENDBRANCH   1   3
BRANCH   1   8
ATOM      8  C   UNL     1       0.972  -2.244  -1.312  0.00  0.00    +0.003 C 
BRANCH   8   9
ATOM      9  C   UNL     1       1.253  -0.843  -0.834  0.00  0.00    +0.138 A 
ATOM     10  N   UNL     1       0.630  -0.204   0.126  0.00  0.00    -0.115 NA
ATOM     11  N   UNL     1       1.160   0.965   0.235  0.00  0.00    -0.023 NA
ATOM     12  N   UNL     1       2.105   1.088  -0.630  0.00  0.00    -0.044 NA
ATOM     13  N   UNL     1       2.197  -0.008  -1.305  0.00  0.00    -0.228 N 
BRANCH  13  14
ATOM     14  C   UNL     1       3.148  -0.289  -2.383  0.00  0.00    +0.111 C 
ATOM     15  C   UNL     1       4.577  -0.177  -1.845  0.00  0.00    +0.027 C 
ATOM     16  C   UNL     1       5.570  -0.470  -2.972  0.00  0.00    +0.002 C 
ATOM     17  C   UNL     1       5.370   0.539  -4.104  0.00  0.00    +0.000 C 
ATOM     18  C   UNL     1       3.942   0.427  -4.641  0.00  0.00    +0.002 C 
ATOM     19  C   UNL     1       2.949   0.721  -3.515  0.00  0.00    +0.027 C 
ENDBRANCH  13  14
ENDBRANCH   8   9
BRANCH   8  20
ATOM     20  C   UNL     1       1.590  -3.250  -0.338  0.00  0.00    -0.008 C 
BRANCH  20  22
ATOM     21  C   UNL     1       2.146  -5.659   0.019  0.00  0.00    +0.004 C 
ATOM     22  C   UNL     1       1.421  -4.666  -0.891  0.00  0.00    -0.005 C 
ENDBRANCH  20  22
ENDBRANCH   8  20
ENDBRANCH   1   8
BRANCH   1  23
ATOM     23  C   UNL     1      -1.172  -1.700  -0.326  0.00  0.00    -0.036 C 
BRANCH  23  24
ATOM     24  C   UNL     1      -2.568  -2.240  -0.153  0.00  0.00    +0.001 A 
ATOM     25  C   UNL     1      -2.816  -3.185   0.788  0.00  0.00    +0.017 A 
ATOM     26  C   UNL     1      -4.183  -3.689   0.930  0.00  0.00    -0.001 A 
ATOM     27  C   UNL     1      -4.499  -4.662   1.883  0.00  0.00    +0.010 A 
ATOM     28  C   UNL     1      -5.785  -5.112   1.990  0.00  0.00    +0.001 A 
ATOM     29  C   UNL     1      -6.780  -4.611   1.162  0.00  0.00    +0.005 A 
ATOM     30  C   UNL     1      -6.491  -3.652   0.216  0.00  0.00    -0.026 A 
ATOM     31  C   UNL     1      -5.189  -3.179   0.088  0.00  0.00    +0.052 A 
ATOM     32  N   UNL     1      -4.872  -2.219  -0.849  0.00  0.00    -0.322 N 
ATOM     33  H   UNL     1      -5.566  -1.868  -1.428  0.00  0.00    +0.169 HD
ATOM     34  C   UNL     1      -3.614  -1.758  -0.969  0.00  0.00    +0.251 A 
ATOM     35  O   UNL     1      -3.371  -0.905  -1.805  0.00  0.00    -0.268 OA
ATOM     36  C   UNL     1      -7.581  -3.117  -0.677  0.00  0.00    +0.046 C 
ENDBRANCH  23  24
ENDBRANCH   1  23
TORSDOF 8
