REMARK  Name = ZINC13316364
REMARK  6 active torsions:
REMARK  status: ('A' for Active; 'I' for Inactive)
REMARK    1  A    between atoms: C_1  and  C_2
REMARK    2  A    between atoms: C_2  and  C_4
REMARK    3  A    between atoms: C_2  and  O_15
REMARK    4  A    between atoms: N_6  and  C_7
REMARK    5  A    between atoms: O_15  and  C_16
REMARK    6  A    between atoms: C_25  and  C_26
REMARK                            x       y       z     vdW  Elec       q    Type
REMARK                         _______ _______ _______ _____ _____    ______ ____
ROOT
ATOM      1  C   UNL     1       2.622   4.014  -1.258  0.00  0.00    +0.062 C 
ATOM      2  C   UNL     1       2.167   4.997  -2.339  0.00  0.00    +0.256 C 
ENDROOT
BRANCH   2   3
ATOM      3  C   UNL     1       2.853   6.322  -2.133  0.00  0.00    +0.258 C 
ATOM      4  O   UNL     1       2.202   7.304  -1.845  0.00  0.00    -0.271 OA
ATOM      5  N   UNL     1       4.191   6.417  -2.270  0.00  0.00    -0.278 N 
ATOM      6  H   UNL     1       4.720   5.620  -2.428  0.00  0.00    +0.155 HD
BRANCH   5   7
ATOM      7  C   UNL     1       4.817   7.668  -2.184  0.00  0.00    +0.105 A 
ATOM      8  C   UNL     1       4.985   8.443  -3.325  0.00  0.00    +0.147 A 
ATOM      9  C   UNL     1       5.599   9.680  -3.235  0.00  0.00    +0.040 A 
ATOM     10  C   UNL     1       6.055  10.140  -2.014  0.00  0.00    +0.006 A 
ATOM     11  C   UNL     1       5.895   9.369  -0.877  0.00  0.00    +0.040 A 
ATOM     12  C   UNL     1       5.277   8.134  -0.958  0.00  0.00    +0.147 A 
ATOM     13  F   UNL     1       5.122   7.381   0.153  0.00  0.00    -0.203 F 
ATOM     14  F   UNL     1       4.545   7.992  -4.520  0.00  0.00    -0.203 F 
ENDBRANCH   5   7
ENDBRANCH   2   3
BRANCH   2  15
ATOM     15  O   UNL     1       0.751   5.175  -2.255  0.00  0.00    -0.478 OA
BRANCH  15  16
ATOM     16  C   UNL     1      -0.018   4.334  -2.986  0.00  0.00    +0.143 A 
ATOM     17  C   UNL     1      -0.466   3.116  -2.434  0.00  0.00    +0.025 A 
ATOM     18  C   UNL     1      -0.128   2.747  -1.122  0.00  0.00    +0.012 A 
ATOM     19  C   UNL     1      -0.576   1.564  -0.617  0.00  0.00    +0.001 A 
ATOM     20  C   UNL     1      -1.367   0.713  -1.385  0.00  0.00    +0.001 A 
ATOM     21  C   UNL     1      -1.714   1.039  -2.661  0.00  0.00    +0.008 A 
ATOM     22  C   UNL     1      -1.270   2.251  -3.215  0.00  0.00    -0.014 A 
ATOM     23  C   UNL     1      -1.609   2.612  -4.534  0.00  0.00    +0.009 A 
ATOM     24  C   UNL     1      -1.177   3.788  -5.052  0.00  0.00    +0.019 A 
ATOM     25  C   UNL     1      -0.377   4.663  -4.292  0.00  0.00    +0.105 A 
BRANCH  25  26
ATOM     26  C   UNL     1       0.084   5.931  -4.880  0.00  0.00    +0.390 C 
ATOM     27  O   UNL     1       0.775   6.688  -4.227  0.00  0.00    -0.240 OA
ATOM     28  O   UNL     1      -0.261   6.252  -6.143  0.00  0.00    -0.240 OA
ENDBRANCH  25  26
ENDBRANCH  15  16
ENDBRANCH   2  15
TORSDOF 5
