REMARK  Name = ZINC35824067
REMARK  11 active torsions:
REMARK  status: ('A' for Active; 'I' for Inactive)
REMARK    1  A    between atoms: C_1  and  C_2
REMARK    2  A    between atoms: C_3  and  C_33
REMARK    3  A    between atoms: C_4  and  C_24
REMARK    4  A    between atoms: C_10  and  C_15
REMARK    5  A    between atoms: C_18  and  N_21
REMARK    6  A    between atoms: N_21  and  C_22
REMARK    7  A    between atoms: N_21  and  C_23
REMARK    8  A    between atoms: C_27  and  N_30
REMARK    9  A    between atoms: C_33  and  O_35
REMARK   10  A    between atoms: O_35  and  C_36
REMARK   11  A    between atoms: C_36  and  C_37
REMARK                            x       y       z     vdW  Elec       q    Type
REMARK                         _______ _______ _______ _____ _____    ______ ____
ROOT
ATOM      1  C   UNL     1      -0.018   1.503   0.010  0.00  0.00    +0.061 C 
ATOM      2  C   UNL     1       0.002  -0.004   0.002  0.00  0.00    +0.016 C 
ATOM      3  C   UNL     1      -1.155  -0.687   0.004  0.00  0.00    +0.065 C 
ATOM      4  C   UNL     1      -1.174  -2.188  -0.012  0.00  0.00    +0.092 C 
ATOM      5  C   UNL     1       0.164  -2.749   0.399  0.00  0.00    +0.024 C 
ATOM      6  C   UNL     1       1.272  -1.979   0.376  0.00  0.00    +0.016 C 
ATOM      7  N   UNL     1       1.198  -0.667  -0.013  0.00  0.00    -0.321 N 
ATOM      8  C   UNL     1       2.616  -2.539   0.768  0.00  0.00    +0.059 C 
ATOM      9  C   UNL     1       2.429  -3.633   1.822  0.00  0.00    +0.032 C 
ATOM     10  C   UNL     1       1.521  -4.720   1.240  0.00  0.00    +0.088 C 
ATOM     11  C   UNL     1       0.224  -4.094   0.806  0.00  0.00    +0.162 C 
ATOM     12  O   UNL     1      -0.791  -4.762   0.808  0.00  0.00    -0.292 OA
ATOM     13  H   UNL     1       2.000  -0.203  -0.298  0.00  0.00    +0.152 HD
ENDROOT
BRANCH   9  14
ATOM     14  C   UNL     1       3.768  -4.225   2.181  0.00  0.00    -0.043 A 
ATOM     15  C   UNL     1       4.540  -4.826   1.204  0.00  0.00    +0.006 A 
ATOM     16  C   UNL     1       5.768  -5.370   1.529  0.00  0.00    +0.023 A 
ATOM     17  C   UNL     1       6.226  -5.311   2.839  0.00  0.00    +0.029 A 
ATOM     18  C   UNL     1       5.448  -4.706   3.818  0.00  0.00    +0.023 A 
ATOM     19  C   UNL     1       4.224  -4.160   3.485  0.00  0.00    +0.006 A 
BRANCH  17  20
ATOM     20  N   UNL     1       7.467  -5.860   3.171  0.00  0.00    -0.336 N 
ATOM     21  C   UNL     1       8.286  -6.498   2.138  0.00  0.00    +0.129 C 
ATOM     22  C   UNL     1       7.949  -5.798   4.553  0.00  0.00    +0.129 C 
ENDBRANCH  17  20
ENDBRANCH   9  14
BRANCH   4  23
ATOM     23  C   UNL     1      -1.503  -2.664  -1.404  0.00  0.00    -0.035 A 
ATOM     24  C   UNL     1      -0.679  -2.329  -2.462  0.00  0.00    +0.007 A 
ATOM     25  C   UNL     1      -0.981  -2.765  -3.738  0.00  0.00    +0.033 A 
ATOM     26  C   UNL     1      -2.106  -3.538  -3.956  0.00  0.00    +0.126 A 
ATOM     27  C   UNL     1      -2.930  -3.873  -2.898  0.00  0.00    +0.033 A 
ATOM     28  C   UNL     1      -2.626  -3.440  -1.621  0.00  0.00    +0.007 A 
BRANCH  26  29
ATOM     29  N   UNL     1      -2.430  -4.004  -5.323  0.00  0.00    +0.056 N 
ATOM     30  O   UNL     1      -1.710  -3.710  -6.249  0.00  0.00    -0.126 OA
ATOM     31  O   UNL     1      -3.414  -4.679  -5.514  0.00  0.00    -0.126 OA
ENDBRANCH  26  29
ENDBRANCH   4  23
BRANCH   3  32
ATOM     32  C   UNL     1      -2.380   0.021   0.021  0.00  0.00    +0.338 C 
ATOM     33  O   UNL     1      -2.378   1.238   0.035  0.00  0.00    -0.245 OA
BRANCH  32  34
ATOM     34  O   UNL     1      -3.549  -0.652   0.024  0.00  0.00    -0.459 OA
BRANCH  34  35
ATOM     35  C   UNL     1      -4.746   0.128   0.042  0.00  0.00    +0.264 C 
BRANCH  35  36
ATOM     36  C   UNL     1      -5.961  -0.803   0.041  0.00  0.00    +0.156 C 
ATOM     37  C   UNL     1      -7.258   0.029  -0.061  0.00  0.00    +0.037 C 
ATOM     38  C   UNL     1      -8.213  -0.730   0.900  0.00  0.00    +0.031 C 
ATOM     39  C   UNL     1      -7.216  -1.212   1.985  0.00  0.00    +0.160 C 
ATOM     40  O   UNL     1      -6.011  -1.537   1.270  0.00  0.00    -0.373 OA
ENDBRANCH  35  36
ENDBRANCH  34  35
ENDBRANCH  32  34
ENDBRANCH   3  32
TORSDOF 8
