REMARK  Name = ZINC14263171
REMARK  9 active torsions:
REMARK  status: ('A' for Active; 'I' for Inactive)
REMARK    1  A    between atoms: C_1  and  N_58
REMARK    2  A    between atoms: C_2  and  N_58
REMARK    3  A    between atoms: C_3  and  C_5
REMARK    4  A    between atoms: C_3  and  C_26
REMARK    5  A    between atoms: C_3  and  N_58
REMARK    6  A    between atoms: C_5  and  N_6
REMARK    7  A    between atoms: C_7  and  C_9
REMARK    8  A    between atoms: N_14  and  S_16
REMARK    9  A    between atoms: S_16  and  C_19
REMARK                            x       y       z     vdW  Elec       q    Type
REMARK                         _______ _______ _______ _____ _____    ______ ____
ROOT
ATOM      1  N   UNL     1       2.704   4.154  -0.628  0.00  0.00    -0.316 N 
ATOM      2  C   UNL     1       1.578   3.419  -0.719  0.00  0.00    +0.217 C 
ATOM      3  O   UNL     1       0.496   3.946  -0.567  0.00  0.00    -0.275 OA
ATOM      4  H   UNL     1       3.569   3.732  -0.750  0.00  0.00    +0.149 HD
ENDROOT
BRANCH   2   5
ATOM      5  C   UNL     1       1.662   1.943  -1.010  0.00  0.00    +0.091 C 
ATOM      6  C   UNL     1       2.350   1.726  -2.360  0.00  0.00    +0.015 C 
ATOM      7  C   UNL     1       2.466   0.227  -2.641  0.00  0.00    +0.018 C 
ATOM      8  C   UNL     1       1.063  -0.386  -2.709  0.00  0.00    +0.109 C 
ATOM      9  N   UNL     1       0.343  -0.057  -1.472  0.00  0.00    -0.176 NA
ATOM     10  C   UNL     1       0.251   1.350  -1.060  0.00  0.00    +0.122 C 
BRANCH   9  11
ATOM     11  S   UNL     1      -0.352  -1.251  -0.558  0.00  0.00    +0.061 S 
ATOM     12  O   UNL     1       0.346  -2.452  -0.860  0.00  0.00    -0.153 OA
ATOM     13  O   UNL     1      -0.455  -0.742   0.765  0.00  0.00    -0.153 OA
BRANCH  11  14
ATOM     14  C   UNL     1      -1.999  -1.464  -1.145  0.00  0.00    +0.106 A 
ATOM     15  C   UNL     1      -3.031  -0.731  -0.591  0.00  0.00    +0.029 A 
ATOM     16  C   UNL     1      -4.323  -0.894  -1.055  0.00  0.00    +0.017 A 
ATOM     17  C   UNL     1      -4.585  -1.800  -2.067  0.00  0.00    +0.018 A 
ATOM     18  C   UNL     1      -3.553  -2.538  -2.618  0.00  0.00    +0.017 A 
ATOM     19  C   UNL     1      -2.260  -2.370  -2.157  0.00  0.00    +0.029 A 
ATOM     20 BR   UNL     1      -6.353  -2.030  -2.697  0.00  0.00    -0.050 Br
ENDBRANCH  11  14
ENDBRANCH   9  11
ENDBRANCH   2   5
BRANCH   1  21
ATOM     21  C   UNL     1       2.622   5.589  -0.346  0.00  0.00    +0.093 C 
BRANCH  21  22
ATOM     22  C   UNL     1       4.031   6.150  -0.142  0.00  0.00    -0.021 C 
BRANCH  22  23
ATOM     23  C   UNL     1       3.951   7.637   0.088  0.00  0.00    -0.059 A 
ATOM     24  C   UNL     1       3.518   8.126   1.306  0.00  0.00    +0.002 A 
ATOM     25  C   UNL     1       3.449   9.490   1.518  0.00  0.00    +0.000 A 
ATOM     26  C   UNL     1       3.804  10.365   0.508  0.00  0.00    +0.000 A 
ATOM     27  C   UNL     1       4.231   9.876  -0.712  0.00  0.00    +0.000 A 
ATOM     28  C   UNL     1       4.305   8.512  -0.922  0.00  0.00    +0.002 A 
ENDBRANCH  22  23
BRANCH  22  31
ATOM     29  C   UNL     1       3.631   5.089   1.998  0.00  0.00    -0.096 C 
ATOM     30  C   UNL     1       5.487   4.370   0.618  0.00  0.00    -0.096 C 
ATOM     31  N   UNL     1       4.667   5.526   1.038  0.00  0.00    +0.382 N 
ATOM     32  H   UNL     1       5.274   6.217   1.494  0.00  0.00    -0.082 HD
ENDBRANCH  22  31
ENDBRANCH  21  22
ENDBRANCH   1  21
TORSDOF 7
