REMARK  Name = ZINC02926737
REMARK  7 active torsions:
REMARK  status: ('A' for Active; 'I' for Inactive)
REMARK    1  A    between atoms: C_1  and  C_2
REMARK    2  A    between atoms: N_7  and  C_10
REMARK    3  A    between atoms: C_10  and  C_11
REMARK    4  A    between atoms: C_15  and  C_22
REMARK    5  A    between atoms: C_18  and  C_21
REMARK    6  A    between atoms: C_24  and  C_25
REMARK    7  A    between atoms: N_27  and  C_28
REMARK                            x       y       z     vdW  Elec       q    Type
REMARK                         _______ _______ _______ _____ _____    ______ ____
ROOT
ATOM      1  C   UNL     1       4.320  -0.559  -3.675  0.00  0.00    +0.046 C 
ATOM      2  C   UNL     1       4.724  -0.891  -2.262  0.00  0.00    -0.017 A 
ATOM      3  C   UNL     1       4.041  -0.319  -1.186  0.00  0.00    +0.076 A 
ATOM      4  C   UNL     1       4.494  -0.693   0.099  0.00  0.00    +0.116 A 
ATOM      5  N   UNL     1       3.931  -0.222   1.205  0.00  0.00    -0.230 NA
ATOM      6  C   UNL     1       2.932   0.617   1.160  0.00  0.00    +0.203 A 
ATOM      7  N   UNL     1       2.407   1.043  -0.015  0.00  0.00    -0.290 N 
ATOM      8  C   UNL     1       2.903   0.627  -1.197  0.00  0.00    +0.263 A 
ATOM      9  O   UNL     1       2.427   1.021  -2.247  0.00  0.00    -0.267 OA
ATOM     10  S   UNL     1       5.832  -1.807  -0.248  0.00  0.00    -0.064 S 
ATOM     11  C   UNL     1       5.758  -1.750  -2.031  0.00  0.00    +0.079 A 
ENDROOT
BRANCH  11  12
ATOM     12  C   UNL     1       6.599  -2.454  -3.004  0.00  0.00    +0.251 C 
ATOM     13  O   UNL     1       6.409  -2.299  -4.196  0.00  0.00    -0.270 OA
ATOM     14  N   UNL     1       7.583  -3.271  -2.579  0.00  0.00    -0.308 N 
ATOM     15  H   UNL     1       7.755  -3.410  -1.502  0.00  0.00    +0.149 HD
BRANCH  14  16
ATOM     16  C   UNL     1       8.423  -3.974  -3.552  0.00  0.00    +0.073 C 
ATOM     17  C   UNL     1       7.699  -5.259  -4.002  0.00  0.00    +0.022 C 
ATOM     18  C   UNL     1       8.276  -5.695  -5.322  0.00  0.00    +0.002 C 
ATOM     19  C   UNL     1       9.403  -6.733  -5.155  0.00  0.00    +0.000 C 
ATOM     20  C   UNL     1      10.355  -6.399  -3.991  0.00  0.00    +0.000 C 
ATOM     21  C   UNL     1      10.692  -4.934  -3.924  0.00  0.00    +0.002 C 
ATOM     22  C   UNL     1       9.716  -4.251  -2.944  0.00  0.00    +0.022 C 
ENDBRANCH  14  16
ENDBRANCH  11  12
BRANCH   7  23
ATOM     23  C   UNL     1       1.280   1.980   0.001  0.00  0.00    +0.222 C 
BRANCH  23  24
ATOM     24  C   UNL     1      -0.014   1.209   0.009  0.00  0.00    +0.236 C 
ATOM     25  O   UNL     1       0.002  -0.004   0.002  0.00  0.00    -0.274 OA
ATOM     26  N   UNL     1      -1.191   1.867   0.018  0.00  0.00    -0.300 N 
ATOM     27  C   UNL     1      -1.227   3.335   0.032  0.00  0.00    +0.111 C 
ATOM     28  C   UNL     1      -2.105   3.814  -1.134  0.00  0.00    +0.004 C 
ATOM     29  C   UNL     1      -3.481   3.151  -1.034  0.00  0.00    +0.009 C 
ATOM     30  C   UNL     1      -3.325   1.632  -1.141  0.00  0.00    +0.004 C 
ATOM     31  C   UNL     1      -2.461   1.129   0.020  0.00  0.00    +0.111 C 
ATOM     32  C   UNL     1      -2.653   1.279  -2.469  0.00  0.00    +0.009 C 
ATOM     33  C   UNL     1      -2.264   5.334  -1.061  0.00  0.00    +0.009 C 
ENDBRANCH  23  24
ENDBRANCH   7  23
TORSDOF 4
