REMARK  Name = ZINC33272511
REMARK  9 active torsions:
REMARK  status: ('A' for Active; 'I' for Inactive)
REMARK    1  A    between atoms: C_1  and  C_2
REMARK    2  A    between atoms: C_5  and  C_8
REMARK    3  A    between atoms: C_8  and  N_9
REMARK    4  A    between atoms: N_16  and  C_21
REMARK    5  A    between atoms: C_21  and  C_22
REMARK    6  A    between atoms: C_22  and  C_23
REMARK    7  A    between atoms: N_25  and  C_26
REMARK    8  A    between atoms: C_26  and  C_27
REMARK    9  A    between atoms: C_27  and  N_28
REMARK                            x       y       z     vdW  Elec       q    Type
REMARK                         _______ _______ _______ _____ _____    ______ ____
ROOT
ATOM      1  N   UNL     1      -3.866  -9.004   0.664  0.00  0.00    -0.298 N 
ATOM      2  C   UNL     1      -4.094  -8.279  -0.502  0.00  0.00    +0.069 A 
ATOM      3  C   UNL     1      -4.308  -8.952  -1.701  0.00  0.00    +0.028 A 
ATOM      4  C   UNL     1      -4.535  -8.241  -2.861  0.00  0.00    +0.002 A 
ATOM      5  C   UNL     1      -4.550  -6.856  -2.838  0.00  0.00    +0.002 A 
ATOM      6  C   UNL     1      -4.339  -6.178  -1.656  0.00  0.00    +0.028 A 
ATOM      7  C   UNL     1      -4.115  -6.884  -0.479  0.00  0.00    +0.069 A 
ATOM      8  N   UNL     1      -3.898  -6.192   0.710  0.00  0.00    -0.302 N 
ATOM      9  C   UNL     1      -3.675  -6.869   1.855  0.00  0.00    +0.317 A 
ATOM     10  O   UNL     1      -3.491  -6.270   2.895  0.00  0.00    -0.262 OA
ATOM     11  C   UNL     1      -3.658  -8.360   1.830  0.00  0.00    +0.317 A 
ATOM     12  O   UNL     1      -3.458  -8.988   2.851  0.00  0.00    -0.262 OA
ENDROOT
BRANCH   1  13
ATOM     13  C   UNL     1      -3.852 -10.469   0.624  0.00  0.00    +0.160 C 
BRANCH  13  18
ATOM     14  C   UNL     1      -9.189 -12.472   1.569  0.00  0.00    +0.044 C 
ATOM     15  C   UNL     1      -7.797 -11.950   1.322  0.00  0.00    -0.050 A 
ATOM     16  C   UNL     1      -7.378 -11.680   0.033  0.00  0.00    +0.004 A 
ATOM     17  C   UNL     1      -6.101 -11.201  -0.193  0.00  0.00    +0.005 A 
ATOM     18  C   UNL     1      -5.244 -10.991   0.871  0.00  0.00    -0.028 A 
ATOM     19  C   UNL     1      -5.661 -11.266   2.159  0.00  0.00    +0.005 A 
ATOM     20  C   UNL     1      -6.939 -11.742   2.386  0.00  0.00    +0.004 A 
ENDBRANCH  13  18
ENDBRANCH   1  13
BRANCH   8  21
ATOM     21  C   UNL     1      -3.918  -4.728   0.718  0.00  0.00    +0.135 C 
BRANCH  21  22
ATOM     22  C   UNL     1      -2.507  -4.197   0.457  0.00  0.00    +0.117 C 
BRANCH  22  23
ATOM     23  C   UNL     1      -2.527  -2.690   0.465  0.00  0.00    +0.215 C 
ATOM     24  O   UNL     1      -3.568  -2.099   0.660  0.00  0.00    -0.276 OA
ATOM     25  N   UNL     1      -1.389  -2.000   0.255  0.00  0.00    -0.317 N 
ATOM     26  H   UNL     1      -0.445  -2.536   0.078  0.00  0.00    +0.149 HD
BRANCH  25  27
ATOM     27  C   UNL     1      -1.409  -0.535   0.263  0.00  0.00    +0.085 C 
BRANCH  27  28
ATOM     28  C   UNL     1       0.002  -0.004   0.002  0.00  0.00    -0.060 C 
BRANCH  28  29
ATOM     29  N   UNL     1      -0.018   1.465   0.010  0.00  0.00    +0.381 N 
ATOM     30  C   UNL     1      -0.806   1.987  -1.113  0.00  0.00    -0.079 C 
ATOM     31  C   UNL     1      -0.927   3.507  -0.991  0.00  0.00    -0.019 C 
ATOM     32  C   UNL     1       0.473   4.127  -0.995  0.00  0.00    -0.004 C 
ATOM     33  C   UNL     1       1.290   3.531   0.155  0.00  0.00    -0.019 C 
ATOM     34  C   UNL     1       1.346   2.010   0.000  0.00  0.00    -0.079 C 
ATOM     35  H   UNL     1      -0.503   1.793   0.941  0.00  0.00    -0.082 HD
ENDBRANCH  28  29
ENDBRANCH  27  28
ENDBRANCH  25  27
ENDBRANCH  22  23
ENDBRANCH  21  22
ENDBRANCH   8  21
TORSDOF 8
