REMARK  Name = ZINC13406019
REMARK  10 active torsions:
REMARK  status: ('A' for Active; 'I' for Inactive)
REMARK    1  A    between atoms: C_1  and  C_2
REMARK    2  A    between atoms: C_6  and  C_26
REMARK    3  A    between atoms: C_8  and  O_11
REMARK    4  A    between atoms: O_11  and  C_12
REMARK    5  A    between atoms: C_12  and  C_14
REMARK    6  A    between atoms: C_14  and  C_16
REMARK    7  A    between atoms: C_14  and  C_18
REMARK    8  A    between atoms: C_18  and  C_20
REMARK    9  A    between atoms: C_26  and  C_27
REMARK   10  A    between atoms: C_26  and  C_28
REMARK                            x       y       z     vdW  Elec       q    Type
REMARK                         _______ _______ _______ _____ _____    ______ ____
ROOT
ATOM      1  C   UNL     1      -2.520   5.950  -0.345  0.00  0.00    +0.322 C 
ATOM      2  O   UNL     1      -3.287   5.283  -0.998  0.00  0.00    -0.250 OA
ENDROOT
BRANCH   1   3
ATOM      3  O   UNL     1      -1.464   5.371   0.249  0.00  0.00    -0.460 OA
BRANCH   3   9
ATOM      4  C   UNL     1       0.560   1.906  -2.621  0.00  0.00    +0.007 C 
ATOM      5  C   UNL     1      -0.290   2.169  -1.376  0.00  0.00    -0.011 C 
ATOM      6  C   UNL     1       0.401   1.569  -0.150  0.00  0.00    +0.004 C 
ATOM      7  C   UNL     1      -0.449   1.831   1.094  0.00  0.00    +0.007 C 
ATOM      8  C   UNL     1      -0.615   3.340   1.290  0.00  0.00    +0.032 C 
ATOM      9  C   UNL     1      -1.307   3.940   0.064  0.00  0.00    +0.180 C 
ATOM     10  C   UNL     1      -0.457   3.677  -1.181  0.00  0.00    +0.048 C 
BRANCH   8  11
ATOM     11  C   UNL     1      -1.466   3.603   2.534  0.00  0.00    -0.011 C 
ATOM     12  C   UNL     1      -2.802   2.869   2.403  0.00  0.00    +0.007 C 
ATOM     13  C   UNL     1      -0.726   3.096   3.774  0.00  0.00    +0.007 C 
ENDBRANCH   8  11
ENDBRANCH   3   9
ENDBRANCH   1   3
BRANCH   1  14
ATOM     14  C   UNL     1      -2.749   7.432  -0.197  0.00  0.00    +0.191 C 
BRANCH  14  15
ATOM     15  C   UNL     1      -1.564   8.181  -0.751  0.00  0.00    -0.012 C 
ATOM     16  C   UNL     1      -0.871   8.976   0.025  0.00  0.00    +0.005 C 
ENDBRANCH  14  15
BRANCH  14  17
ATOM     17  C   UNL     1      -3.991   7.827  -0.954  0.00  0.00    +0.181 C 
ATOM     18  O   UNL     1      -4.370   7.155  -1.889  0.00  0.00    -0.291 OA
BRANCH  17  19
ATOM     19  C   UNL     1      -4.743   9.028  -0.558  0.00  0.00    +0.019 A 
ATOM     20  C   UNL     1      -4.312   9.802   0.524  0.00  0.00    +0.011 A 
ATOM     21  C   UNL     1      -5.019  10.930   0.885  0.00  0.00    +0.001 A 
ATOM     22  C   UNL     1      -6.160  11.289   0.188  0.00  0.00    +0.000 A 
ATOM     23  C   UNL     1      -6.596  10.524  -0.880  0.00  0.00    +0.001 A 
ATOM     24  C   UNL     1      -5.896   9.397  -1.258  0.00  0.00    +0.011 A 
ENDBRANCH  17  19
ENDBRANCH  14  17
ENDBRANCH   1  14
TORSDOF 7
