REMARK  Name = ZINC39001409
REMARK  6 active torsions:
REMARK  status: ('A' for Active; 'I' for Inactive)
REMARK    1  A    between atoms: C_1  and  C_2
REMARK    2  A    between atoms: C_5  and  C_8
REMARK    3  A    between atoms: C_10  and  C_14
REMARK    4  A    between atoms: N_16  and  N_17
REMARK    5  A    between atoms: C_18  and  C_19
REMARK    6  A    between atoms: C_18  and  C_20
REMARK                            x       y       z     vdW  Elec       q    Type
REMARK                         _______ _______ _______ _____ _____    ______ ____
ROOT
ATOM      1  C   UNL     1       1.339  -7.169   0.966  0.00  0.00    +0.263 C 
ATOM      2  O   UNL     1       2.277  -7.273   0.204  0.00  0.00    -0.271 OA
ATOM      3  N   UNL     1       1.412  -7.700   2.203  0.00  0.00    -0.205 N 
ATOM      4  H   UNL     1       0.662  -7.617   2.812  0.00  0.00    +0.177 HD
ENDROOT
BRANCH   1   7
ATOM      5  C   UNL     1       0.061  -4.256  -0.021  0.00  0.00    +0.092 C 
ATOM      6  C   UNL     1       0.071  -5.030   1.081  0.00  0.00    +0.041 C 
ATOM      7  C   UNL     1       0.090  -6.445   0.530  0.00  0.00    +0.240 C 
ATOM      8  N   UNL     1       0.087  -6.239  -0.927  0.00  0.00    -0.170 NA
ATOM      9  N   UNL     1       0.065  -5.025  -1.142  0.00  0.00    -0.153 NA
BRANCH   5  14
ATOM     10  C   UNL     1      -0.018   1.503   0.010  0.00  0.00    +0.044 C 
ATOM     11  C   UNL     1       0.002  -0.004   0.002  0.00  0.00    -0.050 A 
ATOM     12  C   UNL     1       0.006  -0.686  -1.201  0.00  0.00    +0.004 A 
ATOM     13  C   UNL     1       0.025  -2.066  -1.215  0.00  0.00    +0.010 A 
ATOM     14  C   UNL     1       0.041  -2.772  -0.013  0.00  0.00    +0.002 A 
ATOM     15  C   UNL     1       0.037  -2.080   1.196  0.00  0.00    +0.010 A 
ATOM     16  C   UNL     1       0.023  -0.700   1.198  0.00  0.00    +0.004 A 
ENDBRANCH   5  14
ENDBRANCH   1   7
BRANCH   3  17
ATOM     17  N   UNL     1       2.573  -8.373   2.608  0.00  0.00    -0.184 NA
ATOM     18  C   UNL     1       2.644  -8.885   3.799  0.00  0.00    +0.063 C 
ATOM     19  C   UNL     1       1.478  -8.756   4.745  0.00  0.00    +0.068 C 
BRANCH  18  20
ATOM     20  C   UNL     1       3.865  -9.593   4.225  0.00  0.00    -0.002 A 
ATOM     21  C   UNL     1       3.934 -10.151   5.515  0.00  0.00    +0.010 A 
ATOM     22  C   UNL     1       5.047 -10.807   5.930  0.00  0.00    +0.009 A 
ATOM     23  C   UNL     1       6.151 -10.937   5.067  0.00  0.00    -0.018 A 
ATOM     24  C   UNL     1       7.313 -11.612   5.475  0.00  0.00    +0.008 A 
ATOM     25  C   UNL     1       8.366 -11.723   4.618  0.00  0.00    +0.001 A 
ATOM     26  C   UNL     1       8.310 -11.175   3.338  0.00  0.00    +0.001 A 
ATOM     27  C   UNL     1       7.201 -10.513   2.908  0.00  0.00    +0.008 A 
ATOM     28  C   UNL     1       6.094 -10.380   3.765  0.00  0.00    -0.017 A 
ATOM     29  C   UNL     1       4.934  -9.709   3.350  0.00  0.00    +0.018 A 
ENDBRANCH  18  20
ENDBRANCH   3  17
TORSDOF 4
