REMARK  Name = ZINC08962771
REMARK  12 active torsions:
REMARK  status: ('A' for Active; 'I' for Inactive)
REMARK    1  A    between atoms: C_1  and  C_2
REMARK    2  A    between atoms: C_2  and  O_3
REMARK    3  A    between atoms: O_3  and  C_4
REMARK    4  A    between atoms: C_11  and  C_13
REMARK    5  A    between atoms: C_13  and  N_15
REMARK    6  A    between atoms: N_17  and  C_29
REMARK    7  A    between atoms: C_21  and  S_25
REMARK    8  A    between atoms: S_25  and  N_28
REMARK    9  A    between atoms: C_29  and  C_30
REMARK   10  A    between atoms: C_30  and  O_32
REMARK   11  A    between atoms: O_32  and  C_33
REMARK   12  A    between atoms: C_33  and  C_34
REMARK                            x       y       z     vdW  Elec       q    Type
REMARK                         _______ _______ _______ _____ _____    ______ ____
ROOT
ATOM      1  N   UNL     1      -1.360   6.480  -0.607  0.00  0.00    -0.149 NA
ATOM      2  C   UNL     1      -1.758   7.649  -0.121  0.00  0.00    +0.167 A 
ATOM      3  N   UNL     1      -3.015   8.046   0.227  0.00  0.00    -0.310 N 
ATOM      4  C   UNL     1      -3.233   9.319   0.722  0.00  0.00    +0.058 A 
ATOM      5  C   UNL     1      -4.456   9.883   1.125  0.00  0.00    +0.029 A 
ATOM      6  C   UNL     1      -4.516  11.171   1.599  0.00  0.00    +0.030 A 
ATOM      7  C   UNL     1      -3.378  11.955   1.697  0.00  0.00    +0.106 A 
ATOM      8  C   UNL     1      -2.160  11.426   1.308  0.00  0.00    +0.045 A 
ATOM      9  C   UNL     1      -2.100  10.138   0.833  0.00  0.00    +0.041 A 
ATOM     10  S   UNL     1      -0.782   9.097   0.251  0.00  0.00    -0.052 S 
ENDROOT
BRANCH   7  11
ATOM     11  S   UNL     1      -3.481  13.604   2.309  0.00  0.00    +0.056 S 
ATOM     12  O   UNL     1      -2.359  14.302   1.786  0.00  0.00    -0.153 OA
ATOM     13  O   UNL     1      -4.816  14.036   2.090  0.00  0.00    -0.153 OA
BRANCH  11  14
ATOM     14  N   UNL     1      -3.270  13.531   3.950  0.00  0.00    -0.204 NA
ATOM     15  H   UNL     1      -2.867  14.277   4.421  0.00  0.00    +0.144 HD
ATOM     16  H   UNL     1      -3.550  12.743   4.441  0.00  0.00    +0.144 HD
ENDBRANCH  11  14
ENDBRANCH   7  11
BRANCH   1  17
ATOM     17  C   UNL     1      -0.067   6.278  -0.890  0.00  0.00    +0.305 C 
ATOM     18  O   UNL     1       0.745   7.169  -0.702  0.00  0.00    -0.265 OA
BRANCH  17  26
ATOM     19  C   UNL     1      -0.077   1.602  -2.575  0.00  0.00    +0.163 A 
ATOM     20  C   UNL     1       0.897   0.740  -3.045  0.00  0.00    +0.049 A 
ATOM     21  C   UNL     1       2.224   1.142  -3.116  0.00  0.00    +0.004 A 
ATOM     22  C   UNL     1       2.589   2.399  -2.722  0.00  0.00    +0.012 A 
ATOM     23  C   UNL     1       1.621   3.286  -2.244  0.00  0.00    +0.025 A 
ATOM     24  C   UNL     1       0.274   2.890  -2.173  0.00  0.00    +0.177 A 
ATOM     25  O   UNL     1      -0.430   3.928  -1.679  0.00  0.00    -0.446 OA
ATOM     26  C   UNL     1       0.376   4.980  -1.430  0.00  0.00    +0.193 A 
ATOM     27  C   UNL     1       1.655   4.664  -1.753  0.00  0.00    +0.063 A 
BRANCH  19  28
ATOM     28  O   UNL     1      -1.373   1.196  -2.509  0.00  0.00    -0.489 OA
BRANCH  28  30
ATOM     29  C   UNL     1      -3.156  -0.409  -2.797  0.00  0.00    +0.048 C 
ATOM     30  C   UNL     1      -1.658  -0.135  -2.943  0.00  0.00    +0.226 C 
ENDBRANCH  28  30
ENDBRANCH  19  28
ENDBRANCH  17  26
ENDBRANCH   1  17
BRANCH   3  31
ATOM     31  C   UNL     1      -4.140   7.120   0.076  0.00  0.00    +0.244 C 
BRANCH  31  32
ATOM     32  C   UNL     1      -3.995   6.360  -1.217  0.00  0.00    +0.327 C 
ATOM     33  O   UNL     1      -3.147   6.683  -2.016  0.00  0.00    -0.249 OA
BRANCH  32  34
ATOM     34  O   UNL     1      -4.807   5.324  -1.482  0.00  0.00    -0.464 OA
BRANCH  34  35
ATOM     35  C   UNL     1      -4.610   4.639  -2.747  0.00  0.00    +0.229 C 
ATOM     36  C   UNL     1      -5.620   3.496  -2.870  0.00  0.00    +0.048 C 
ENDBRANCH  34  35
ENDBRANCH  32  34
ENDBRANCH  31  32
ENDBRANCH   3  31
TORSDOF 10
