REMARK  Name = ZINC12991060
REMARK  5 active torsions:
REMARK  status: ('A' for Active; 'I' for Inactive)
REMARK    1  A    between atoms: C_1  and  C_2
REMARK    2  A    between atoms: C_2  and  C_22
REMARK    3  A    between atoms: N_5  and  C_9
REMARK    4  A    between atoms: C_9  and  C_10
REMARK    5  A    between atoms: C_13  and  C_15
REMARK                            x       y       z     vdW  Elec       q    Type
REMARK                         _______ _______ _______ _____ _____    ______ ____
ROOT
ATOM      1  C   UNL     1      -1.244   4.076  -1.221  0.00  0.00    +0.050 C 
ATOM      2  C   UNL     1      -0.727   3.357   0.027  0.00  0.00    +0.168 C 
ATOM      3  C   UNL     1       0.787   3.284   0.012  0.00  0.00    +0.254 C 
ATOM      4  O   UNL     1       1.565   4.213   0.010  0.00  0.00    -0.272 OA
ATOM      5  N   UNL     1       1.087   1.970   0.002  0.00  0.00    -0.215 N 
ATOM      6  C   UNL     1      -0.014   1.211   0.009  0.00  0.00    +0.310 C 
ATOM      7  O   UNL     1       0.002  -0.004   0.002  0.00  0.00    -0.252 OA
ATOM      8  N   UNL     1      -1.143   1.944   0.018  0.00  0.00    -0.279 N 
ATOM      9  H   UNL     1      -2.052   1.607   0.019  0.00  0.00    +0.152 HD
ENDROOT
BRANCH   2  10
ATOM     10  C   UNL     1      -1.212   4.049   1.275  0.00  0.00    +0.138 A 
ATOM     11  C   UNL     1      -2.383   3.807   1.881  0.00  0.00    +0.056 A 
ATOM     12  C   UNL     1      -2.433   4.698   3.046  0.00  0.00    +0.020 A 
ATOM     13  C   UNL     1      -3.361   4.926   4.060  0.00  0.00    +0.011 A 
ATOM     14  C   UNL     1      -3.098   5.860   5.024  0.00  0.00    +0.001 A 
ATOM     15  C   UNL     1      -1.913   6.581   4.997  0.00  0.00    +0.004 A 
ATOM     16  C   UNL     1      -0.983   6.370   4.002  0.00  0.00    +0.047 A 
ATOM     17  C   UNL     1      -1.231   5.426   3.013  0.00  0.00    +0.135 A 
ATOM     18  O   UNL     1      -0.536   5.003   1.938  0.00  0.00    -0.457 OA
ENDBRANCH   2  10
BRANCH   5  19
ATOM     19  C   UNL     1       2.453   1.438  -0.013  0.00  0.00    +0.215 C 
BRANCH  19  20
ATOM     20  C   UNL     1       2.908   1.264  -1.439  0.00  0.00    +0.235 A 
ATOM     21  N   UNL     1       3.517   2.157  -2.167  0.00  0.00    -0.110 NA
ATOM     22  N   UNL     1       3.761   1.668  -3.332  0.00  0.00    -0.107 NA
ATOM     23  C   UNL     1       3.303   0.440  -3.391  0.00  0.00    +0.249 A 
ATOM     24  O   UNL     1       2.754   0.161  -2.192  0.00  0.00    -0.419 OA
BRANCH  23  25
ATOM     25  C   UNL     1       3.376  -0.469  -4.554  0.00  0.00    +0.052 A 
ATOM     26  C   UNL     1       3.977  -0.043  -5.740  0.00  0.00    +0.014 A 
ATOM     27  C   UNL     1       4.042  -0.896  -6.822  0.00  0.00    +0.001 A 
ATOM     28  C   UNL     1       3.513  -2.171  -6.735  0.00  0.00    +0.001 A 
ATOM     29  C   UNL     1       2.916  -2.601  -5.564  0.00  0.00    +0.016 A 
ATOM     30  C   UNL     1       2.849  -1.759  -4.471  0.00  0.00    +0.030 A 
ATOM     31 BR   UNL     1       2.039  -2.350  -2.868  0.00  0.00    -0.050 Br
ENDBRANCH  23  25
ENDBRANCH  19  20
ENDBRANCH   5  19
TORSDOF 4
