REMARK  Name = ZINC03396557
REMARK  6 active torsions:
REMARK  status: ('A' for Active; 'I' for Inactive)
REMARK    1  A    between atoms: C_1  and  C_2
REMARK    2  A    between atoms: C_9  and  C_11
REMARK    3  A    between atoms: N_13  and  N_14
REMARK    4  A    between atoms: C_15  and  C_17
REMARK    5  A    between atoms: C_17  and  N_18
REMARK    6  A    between atoms: C_19  and  C_21
REMARK                            x       y       z     vdW  Elec       q    Type
REMARK                         _______ _______ _______ _____ _____    ______ ____
ROOT
ATOM      1  N   UNL     1       5.671   6.424  -0.753  0.00  0.00    -0.233 N 
ATOM      2  C   UNL     1       5.439   7.709  -1.087  0.00  0.00    +0.246 C 
ATOM      3  O   UNL     1       4.303   8.093  -1.269  0.00  0.00    -0.273 OA
ATOM      4  H   UNL     1       6.580   6.117  -0.607  0.00  0.00    +0.173 HD
ENDROOT
BRANCH   1   7
ATOM      5  C   UNL     1       4.831   4.247  -0.282  0.00  0.00    +0.267 C 
ATOM      6  O   UNL     1       5.971   3.861  -0.099  0.00  0.00    -0.268 OA
ATOM      7  N   UNL     1       4.600   5.532  -0.616  0.00  0.00    -0.230 N 
ATOM      8  H   UNL     1       3.691   5.839  -0.762  0.00  0.00    +0.173 HD
BRANCH   5  16
ATOM      9  C   UNL     1       0.830  -1.998   1.259  0.00  0.00    +0.008 C 
ATOM     10  C   UNL     1       0.991  -0.489   1.066  0.00  0.00    -0.009 C 
ATOM     11  C   UNL     1       0.002  -0.004   0.002  0.00  0.00    +0.009 C 
ATOM     12  C   UNL     1      -0.019   1.531   0.011  0.00  0.00    +0.043 C 
ATOM     13  C   UNL     1       1.396   2.023  -0.000  0.00  0.00    -0.006 A 
ATOM     14  C   UNL     1       2.522   1.297   0.266  0.00  0.00    -0.036 A 
ATOM     15  C   UNL     1       3.730   1.971   0.193  0.00  0.00    +0.024 A 
ATOM     16  C   UNL     1       3.710   3.313  -0.139  0.00  0.00    +0.076 A 
ATOM     17  S   UNL     1       1.963   3.612  -0.347  0.00  0.00    -0.088 S 
ATOM     18  C   UNL     1       2.423  -0.183   0.624  0.00  0.00    +0.039 C 
ENDBRANCH   5  16
ENDBRANCH   1   7
BRANCH   2  19
ATOM     19  C   UNL     1       6.592   8.669  -1.234  0.00  0.00    +0.202 C 
BRANCH  19  20
ATOM     20  N   UNL     1       6.081   9.993  -1.599  0.00  0.00    -0.303 N 
ATOM     21  C   UNL     1       6.937  11.017  -1.785  0.00  0.00    +0.247 C 
ATOM     22  O   UNL     1       8.132  10.843  -1.650  0.00  0.00    -0.270 OA
ATOM     23  H   UNL     1       5.127  10.132  -1.707  0.00  0.00    +0.150 HD
BRANCH  21  24
ATOM     24  C   UNL     1       6.422  12.352  -2.153  0.00  0.00    +0.072 A 
ATOM     25  C   UNL     1       5.050  12.554  -2.315  0.00  0.00    +0.016 A 
ATOM     26  C   UNL     1       4.575  13.804  -2.653  0.00  0.00    +0.001 A 
ATOM     27  C   UNL     1       5.456  14.855  -2.844  0.00  0.00    +0.003 A 
ATOM     28  C   UNL     1       6.816  14.663  -2.692  0.00  0.00    +0.039 A 
ATOM     29  C   UNL     1       7.307  13.417  -2.347  0.00  0.00    +0.135 A 
ATOM     30  F   UNL     1       8.636  13.229  -2.199  0.00  0.00    -0.205 F 
ENDBRANCH  21  24
ENDBRANCH  19  20
ENDBRANCH   2  19
TORSDOF 5
