REMARK  Name = ZINC08820993
REMARK  5 active torsions:
REMARK  status: ('A' for Active; 'I' for Inactive)
REMARK    1  A    between atoms: C_1  and  C_2
REMARK    2  A    between atoms: C_2  and  C_3
REMARK    3  A    between atoms: C_8  and  N_9
REMARK    4  A    between atoms: C_15  and  C_16
REMARK    5  A    between atoms: C_19  and  C_21
REMARK                            x       y       z     vdW  Elec       q    Type
REMARK                         _______ _______ _______ _____ _____    ______ ____
ROOT
ATOM      1  N   UNL     1      -2.529   0.923   0.020  0.00  0.00    -0.225 NA
ATOM      2  C   UNL     1      -1.400   1.531   0.312  0.00  0.00    +0.166 C 
ATOM      3  N   UNL     1      -0.127   1.007   0.342  0.00  0.00    -0.260 N 
ATOM      4  C   UNL     1       0.908   1.769   0.655  0.00  0.00    +0.257 C 
ATOM      5  O   UNL     1       2.041   1.323   0.682  0.00  0.00    -0.269 OA
ATOM      6  C   UNL     1       0.630   3.179   0.970  0.00  0.00    +0.081 C 
ATOM      7  C   UNL     1       1.496   4.174   1.319  0.00  0.00    +0.066 C 
ATOM      8  S   UNL     1      -1.145   3.238   0.770  0.00  0.00    -0.049 S 
ATOM      9  H   UNL     1       0.013   0.071   0.128  0.00  0.00    +0.157 HD
ENDROOT
BRANCH   1  15
ATOM     10  C   UNL     1      -4.822   1.191   0.663  0.00  0.00    -0.022 A 
ATOM     11  C   UNL     1      -5.995   1.914   0.603  0.00  0.00    +0.006 A 
ATOM     12  C   UNL     1      -6.058   3.076  -0.145  0.00  0.00    +0.000 A 
ATOM     13  C   UNL     1      -4.946   3.522  -0.839  0.00  0.00    +0.002 A 
ATOM     14  C   UNL     1      -3.765   2.812  -0.783  0.00  0.00    +0.028 A 
ATOM     15  C   UNL     1      -3.696   1.635  -0.034  0.00  0.00    +0.070 A 
BRANCH  10  17
ATOM     16  C   UNL     1      -4.202   0.243   2.869  0.00  0.00    +0.009 C 
ATOM     17  C   UNL     1      -4.755  -0.075   1.478  0.00  0.00    +0.034 C 
ENDBRANCH  10  17
ENDBRANCH   1  15
BRANCH   7  18
ATOM     18  C   UNL     1       2.853   3.875   1.566  0.00  0.00    +0.130 A 
ATOM     19  C   UNL     1       3.813   4.764   2.017  0.00  0.00    +0.050 A 
ATOM     20  C   UNL     1       5.008   4.047   2.123  0.00  0.00    +0.050 A 
ATOM     21  C   UNL     1       4.745   2.765   1.730  0.00  0.00    +0.136 A 
ATOM     22  O   UNL     1       3.444   2.673   1.397  0.00  0.00    -0.455 OA
BRANCH  21  23
ATOM     23  C   UNL     1       5.725   1.663   1.679  0.00  0.00    +0.019 A 
ATOM     24  C   UNL     1       7.053   1.889   2.049  0.00  0.00    +0.013 A 
ATOM     25  C   UNL     1       7.964   0.854   2.004  0.00  0.00    +0.022 A 
ATOM     26  C   UNL     1       7.566  -0.405   1.584  0.00  0.00    +0.059 A 
ATOM     27  C   UNL     1       6.251  -0.634   1.212  0.00  0.00    +0.060 A 
ATOM     28  C   UNL     1       5.329   0.392   1.257  0.00  0.00    +0.033 A 
ATOM     29 CL   UNL     1       5.763  -2.216   0.688  0.00  0.00    -0.082 Cl
ATOM     30 CL   UNL     1       8.721  -1.700   1.524  0.00  0.00    -0.082 Cl
ENDBRANCH  21  23
ENDBRANCH   7  18
TORSDOF 4
