REMARK  Name = ZINC36798599
REMARK  5 active torsions:
REMARK  status: ('A' for Active; 'I' for Inactive)
REMARK    1  A    between atoms: C_1  and  C_2
REMARK    2  A    between atoms: C_2  and  C_4
REMARK    3  A    between atoms: C_9  and  N_10
REMARK    4  A    between atoms: C_11  and  C_13
REMARK    5  A    between atoms: C_13  and  C_14
REMARK                            x       y       z     vdW  Elec       q    Type
REMARK                         _______ _______ _______ _____ _____    ______ ____
ROOT
ATOM      1  C   UNL     1      -0.341  -0.816  -1.300  0.00  0.00    +0.042 A 
ATOM      2  C   UNL     1      -0.439  -0.121  -2.513  0.00  0.00    +0.062 A 
ATOM      3  C   UNL     1      -0.067  -0.734  -3.690  0.00  0.00    +0.167 A 
ATOM      4  C   UNL     1       0.410  -2.049  -3.677  0.00  0.00    +0.168 A 
ATOM      5  C   UNL     1       0.511  -2.743  -2.482  0.00  0.00    +0.073 A 
ATOM      6  C   UNL     1       0.144  -2.136  -1.291  0.00  0.00    +0.048 A 
ATOM      7  O   UNL     1       0.706  -2.415  -4.957  0.00  0.00    -0.453 OA
ATOM      8  C   UNL     1       0.024  -1.466  -5.798  0.00  0.00    +0.466 C 
ATOM      9  O   UNL     1      -0.066  -0.284  -4.980  0.00  0.00    -0.453 OA
ENDROOT
BRANCH   6  10
ATOM     10  N   UNL     1       0.252  -2.834  -0.090  0.00  0.00    -0.285 N 
ATOM     11  C   UNL     1      -0.129  -4.125  -0.024  0.00  0.00    +0.222 C 
ATOM     12  O   UNL     1      -0.497  -4.701  -1.026  0.00  0.00    -0.275 OA
ATOM     13  H   UNL     1       0.600  -2.390   0.699  0.00  0.00    +0.155 HD
BRANCH  11  14
ATOM     14  C   UNL     1      -0.098  -4.853   1.295  0.00  0.00    +0.131 C 
BRANCH  14  15
ATOM     15  C   UNL     1      -0.568  -6.271   1.097  0.00  0.00    -0.039 A 
ATOM     16  C   UNL     1      -1.911  -6.577   1.217  0.00  0.00    +0.005 A 
ATOM     17  C   UNL     1      -2.343  -7.877   1.036  0.00  0.00    +0.020 A 
ATOM     18  C   UNL     1      -1.431  -8.873   0.734  0.00  0.00    +0.041 A 
ATOM     19  C   UNL     1      -0.087  -8.566   0.614  0.00  0.00    +0.020 A 
ATOM     20  C   UNL     1       0.343  -7.265   0.790  0.00  0.00    +0.005 A 
ATOM     21 CL   UNL     1      -1.972 -10.507   0.506  0.00  0.00    -0.084 Cl
ENDBRANCH  14  15
ENDBRANCH  11  14
ENDBRANCH   6  10
BRANCH   1  23
ATOM     22  C   UNL     1      -1.146   1.281  -0.044  0.00  0.00    +0.091 C 
ATOM     23  C   UNL     1      -0.736  -0.169  -0.046  0.00  0.00    +0.162 C 
ATOM     24  O   UNL     1      -0.733  -0.800   0.990  0.00  0.00    -0.292 OA
ENDBRANCH   1  23
TORSDOF 4
