REMARK  Name = ZINC14639636
REMARK  11 active torsions:
REMARK  status: ('A' for Active; 'I' for Inactive)
REMARK    1  A    between atoms: C_1  and  C_2
REMARK    2  A    between atoms: C_2  and  C_3
REMARK    3  A    between atoms: C_3  and  C_4
REMARK    4  A    between atoms: C_4  and  O_5
REMARK    5  A    between atoms: O_5  and  C_6
REMARK    6  A    between atoms: C_6  and  C_8
REMARK    7  A    between atoms: C_8  and  C_9
REMARK    8  A    between atoms: C_17  and  C_19
REMARK    9  A    between atoms: C_19  and  O_20
REMARK   10  A    between atoms: O_20  and  C_21
REMARK   11  A    between atoms: C_22  and  C_29
REMARK                            x       y       z     vdW  Elec       q    Type
REMARK                         _______ _______ _______ _____ _____    ______ ____
ROOT
ATOM      1  C   UNL     1       0.075  -4.440   1.964  0.00  0.00    +0.173 C 
ATOM      2  C   UNL     1      -0.868  -5.055   2.957  0.00  0.00    +0.234 C 
ATOM      3  O   UNL     1      -1.169  -6.222   2.823  0.00  0.00    -0.274 OA
ATOM      4  N   UNL     1      -1.393  -4.375   3.977  0.00  0.00    -0.312 N 
ATOM      5  C   UNL     1      -1.196  -2.951   4.211  0.00  0.00    +0.123 C 
ATOM      6  C   UNL     1       0.069  -2.456   3.507  0.00  0.00    +0.127 C 
ATOM      7  N   UNL     1       0.063  -2.979   2.130  0.00  0.00    -0.285 N 
ATOM      8  C   UNL     1       0.041  -2.152   1.066  0.00  0.00    +0.254 C 
ATOM      9  O   UNL     1       0.037  -2.610  -0.057  0.00  0.00    -0.272 OA
ATOM     10  H   UNL     1      -1.946  -4.864   4.607  0.00  0.00    +0.149 HD
ENDROOT
BRANCH   1  11
ATOM     11  C   UNL     1       1.488  -4.972   2.209  0.00  0.00    +0.152 C 
BRANCH  11  12
ATOM     12  C   UNL     1       2.416  -4.443   1.145  0.00  0.00    +0.309 C 
ATOM     13  O   UNL     1       1.990  -3.716   0.280  0.00  0.00    -0.251 OA
BRANCH  12  14
ATOM     14  O   UNL     1       3.715  -4.781   1.159  0.00  0.00    -0.465 OA
BRANCH  14  15
ATOM     15  C   UNL     1       4.549  -4.234   0.104  0.00  0.00    +0.232 C 
BRANCH  15  16
ATOM     16  C   UNL     1       5.987  -4.726   0.284  0.00  0.00    +0.041 C 
BRANCH  16  18
ATOM     17  C   UNL     1       8.303  -4.642  -0.647  0.00  0.00    +0.004 C 
ATOM     18  C   UNL     1       6.866  -4.150  -0.828  0.00  0.00    -0.000 C 
ENDBRANCH  16  18
ENDBRANCH  15  16
ENDBRANCH  14  15
ENDBRANCH  12  14
ENDBRANCH  11  12
ENDBRANCH   1  11
BRANCH   8  19
ATOM     19  C   UNL     1       0.023  -0.660   1.272  0.00  0.00    +0.324 C 
BRANCH  19  20
ATOM     20  O   UNL     1       0.002  -0.004   0.002  0.00  0.00    -0.481 OA
BRANCH  20  21
ATOM     21  C   UNL     1      -0.016   1.355   0.009  0.00  0.00    +0.138 A 
ATOM     22  C   UNL     1       1.175   2.066   0.002  0.00  0.00    -0.007 A 
ATOM     23  C   UNL     1       1.154   3.447   0.010  0.00  0.00    +0.022 A 
ATOM     24  C   UNL     1      -0.054   4.122   0.024  0.00  0.00    +0.019 A 
ATOM     25  C   UNL     1      -1.243   3.416   0.031  0.00  0.00    +0.034 A 
ATOM     26  C   UNL     1      -1.227   2.034   0.019  0.00  0.00    +0.061 A 
ATOM     27 BR   UNL     1      -2.853   1.068   0.021  0.00  0.00    -0.046 Br
ATOM     28 BR   UNL     1      -0.079   6.013   0.034  0.00  0.00    -0.050 Br
ATOM     29  C   UNL     1       2.491   1.332  -0.014  0.00  0.00    +0.047 C 
ENDBRANCH  20  21
ENDBRANCH  19  20
ENDBRANCH   8  19
TORSDOF 9
