REMARK  Name = ZINC41550218
REMARK  2 active torsions:
REMARK  status: ('A' for Active; 'I' for Inactive)
REMARK    1  A    between atoms: C_1  and  C_2
REMARK    2  A    between atoms: C_2  and  C_14
REMARK                            x       y       z     vdW  Elec       q    Type
REMARK                         _______ _______ _______ _____ _____    ______ ____
ROOT
ATOM      1  C   UNL     1       0.016   1.457   0.438  0.00  0.00    +0.076 C 
ATOM      2  C   UNL     1       0.004  -0.009   0.002  0.00  0.00    +0.258 C 
ATOM      3  C   UNL     1       0.566  -0.123  -1.393  0.00  0.00    +0.270 C 
ATOM      4  O   UNL     1      -0.175  -0.095  -2.352  0.00  0.00    -0.271 OA
ATOM      5  N   UNL     1       1.898  -0.256  -1.569  0.00  0.00    -0.279 N 
ATOM      6  C   UNL     1       2.724  -0.413  -0.447  0.00  0.00    +0.077 A 
ATOM      7  C   UNL     1       4.101  -0.324  -0.569  0.00  0.00    +0.047 A 
ATOM      8  C   UNL     1       4.902  -0.468   0.550  0.00  0.00    +0.043 A 
ATOM      9  C   UNL     1       4.330  -0.700   1.789  0.00  0.00    +0.024 A 
ATOM     10  C   UNL     1       2.957  -0.794   1.915  0.00  0.00    +0.049 A 
ATOM     11  C   UNL     1       2.150  -0.658   0.798  0.00  0.00    +0.144 A 
ATOM     12  O   UNL     1       0.799  -0.780   0.905  0.00  0.00    -0.465 OA
ATOM     13 CL   UNL     1       6.628  -0.358   0.399  0.00  0.00    -0.083 Cl
ATOM     14  H   UNL     1       2.278  -0.243  -2.461  0.00  0.00    +0.155 HD
ENDROOT
BRANCH   2  15
ATOM     15  C   UNL     1      -1.412  -0.525   0.015  0.00  0.00    +0.273 C 
ATOM     16  O   UNL     1      -1.994  -0.725  -1.030  0.00  0.00    -0.270 OA
ATOM     17  N   UNL     1      -2.032  -0.764   1.188  0.00  0.00    -0.267 N 
ATOM     18  C   UNL     1      -1.385  -0.414   2.459  0.00  0.00    +0.114 C 
ATOM     19  C   UNL     1      -1.573  -1.594   3.422  0.00  0.00    +0.024 C 
ATOM     20  C   UNL     1      -3.067  -1.777   3.691  0.00  0.00    +0.038 C 
ATOM     21  C   UNL     1      -3.831  -1.850   2.396  0.00  0.00    -0.026 A 
ATOM     22  C   UNL     1      -3.307  -1.346   1.214  0.00  0.00    +0.040 A 
ATOM     23  C   UNL     1      -4.042  -1.419   0.037  0.00  0.00    +0.024 A 
ATOM     24  C   UNL     1      -5.299  -1.991   0.042  0.00  0.00    +0.002 A 
ATOM     25  C   UNL     1      -5.824  -2.491   1.219  0.00  0.00    +0.000 A 
ATOM     26  C   UNL     1      -5.089  -2.429   2.392  0.00  0.00    +0.005 A 
ENDBRANCH   2  15
TORSDOF 1
