REMARK  Name = ZINC00042878
REMARK  8 active torsions:
REMARK  status: ('A' for Active; 'I' for Inactive)
REMARK    1  A    between atoms: C_1  and  C_2
REMARK    2  A    between atoms: C_4  and  S_11
REMARK    3  A    between atoms: N_8  and  C_9
REMARK    4  A    between atoms: N_8  and  C_10
REMARK    5  A    between atoms: S_11  and  C_12
REMARK    6  A    between atoms: C_12  and  C_13
REMARK    7  A    between atoms: N_15  and  N_16
REMARK    8  A    between atoms: C_17  and  C_18
REMARK                            x       y       z     vdW  Elec       q    Type
REMARK                         _______ _______ _______ _____ _____    ______ ____
ROOT
ATOM      1  C   UNL     1       6.128   6.284  -0.024  0.00  0.00    +0.173 C 
ENDROOT
BRANCH   1   2
ATOM      2  C   UNL     1       4.832   5.517  -0.016  0.00  0.00    +0.242 C 
ATOM      3  O   UNL     1       3.775   6.112  -0.003  0.00  0.00    -0.273 OA
ATOM      4  N   UNL     1       4.846   4.169  -0.023  0.00  0.00    -0.206 N 
ATOM      5  H   UNL     1       5.691   3.693  -0.033  0.00  0.00    +0.177 HD
BRANCH   4   6
ATOM      6  N   UNL     1       3.640   3.455  -0.015  0.00  0.00    -0.188 NA
ATOM      7  C   UNL     1       3.655   2.158  -0.022  0.00  0.00    +0.138 C 
BRANCH   7   8
ATOM      8  C   UNL     1       2.385   1.407  -0.014  0.00  0.00    -0.005 A 
ATOM      9  C   UNL     1       1.166   2.089   0.002  0.00  0.00    +0.009 A 
ATOM     10  C   UNL     1      -0.017   1.379   0.010  0.00  0.00    +0.001 A 
ATOM     11  C   UNL     1       0.002  -0.004   0.002  0.00  0.00    +0.000 A 
ATOM     12  C   UNL     1       1.206  -0.686  -0.013  0.00  0.00    +0.001 A 
ATOM     13  C   UNL     1       2.397   0.010  -0.021  0.00  0.00    +0.009 A 
ENDBRANCH   7   8
ENDBRANCH   4   6
ENDBRANCH   1   2
BRANCH   1  14
ATOM     14  S   UNL     1       5.779   8.060  -0.012  0.00  0.00    -0.096 S 
BRANCH  14  18
ATOM     15  C   UNL     1       9.246  12.005  -0.025  0.00  0.00    +0.066 C 
ATOM     16  C   UNL     1       8.953  10.527  -0.029  0.00  0.00    +0.044 A 
ATOM     17  C   UNL     1       7.649  10.074  -0.025  0.00  0.00    +0.058 A 
ATOM     18  C   UNL     1       7.422   8.696  -0.024  0.00  0.00    +0.103 A 
ATOM     19  N   UNL     1       8.465   7.870  -0.038  0.00  0.00    -0.208 NA
ATOM     20  C   UNL     1       9.700   8.346  -0.047  0.00  0.00    +0.219 A 
ATOM     21  N   UNL     1       9.945   9.648  -0.043  0.00  0.00    -0.220 NA
ATOM     22  N   UNL     1      10.764   7.460  -0.061  0.00  0.00    -0.306 N 
ATOM     23  C   UNL     1      10.515   6.016  -0.066  0.00  0.00    +0.132 C 
ATOM     24  C   UNL     1      12.139   7.966  -0.072  0.00  0.00    +0.132 C 
ENDBRANCH  14  18
ENDBRANCH   1  14
TORSDOF 5
