REMARK  Name = ZINC22173611
REMARK  9 active torsions:
REMARK  status: ('A' for Active; 'I' for Inactive)
REMARK    1  A    between atoms: C_1  and  C_2
REMARK    2  A    between atoms: C_9  and  N_15
REMARK    3  A    between atoms: C_10  and  C_11
REMARK    4  A    between atoms: C_11  and  O_13
REMARK    5  A    between atoms: O_13  and  C_14
REMARK    6  A    between atoms: C_16  and  C_18
REMARK    7  A    between atoms: C_18  and  S_19
REMARK    8  A    between atoms: S_19  and  C_20
REMARK    9  A    between atoms: N_25  and  C_26
REMARK                            x       y       z     vdW  Elec       q    Type
REMARK                         _______ _______ _______ _____ _____    ______ ____
ROOT
ATOM      1  N   UNL     1      -1.221  -2.349   2.488  0.00  0.00    -0.279 N 
ATOM      2  C   UNL     1      -1.240  -3.214   3.521  0.00  0.00    +0.228 C 
ATOM      3  O   UNL     1      -1.289  -4.407   3.312  0.00  0.00    -0.275 OA
ATOM      4  H   UNL     1      -1.176  -1.266   2.678  0.00  0.00    +0.155 HD
ENDROOT
BRANCH   1  12
ATOM      5  C   UNL     1      -1.520  -5.425  -4.698  0.00  0.00    +0.008 C 
ATOM      6  C   UNL     1      -1.755  -4.485  -3.514  0.00  0.00    -0.009 C 
ATOM      7  C   UNL     1      -0.871  -3.243  -3.657  0.00  0.00    +0.008 C 
ATOM      8  C   UNL     1      -1.276  -2.193  -2.622  0.00  0.00    +0.037 C 
ATOM      9  C   UNL     1      -1.289  -2.843  -1.244  0.00  0.00    -0.021 A 
ATOM     10  C   UNL     1      -1.340  -4.185  -1.108  0.00  0.00    -0.004 A 
ATOM     11  S   UNL     1      -1.334  -4.465   0.640  0.00  0.00    -0.077 S 
ATOM     12  C   UNL     1      -1.259  -2.822   1.186  0.00  0.00    +0.086 A 
ATOM     13  C   UNL     1      -1.248  -2.096   0.003  0.00  0.00    +0.091 A 
ATOM     14  C   UNL     1      -1.391  -5.203  -2.206  0.00  0.00    +0.046 C 
BRANCH  13  15
ATOM     15  C   UNL     1      -1.191  -0.633   0.010  0.00  0.00    +0.342 C 
ATOM     16  O   UNL     1      -2.220   0.016   0.023  0.00  0.00    -0.245 OA
BRANCH  15  17
ATOM     17  O   UNL     1       0.002  -0.004   0.002  0.00  0.00    -0.464 OA
ATOM     18  C   UNL     1      -0.018   1.448   0.010  0.00  0.00    +0.280 C 
ENDBRANCH  15  17
ENDBRANCH  13  15
ENDBRANCH   1  12
BRANCH   2  19
ATOM     19  C   UNL     1      -1.198  -2.699   4.937  0.00  0.00    +0.172 C 
BRANCH  19  20
ATOM     20  S   UNL     1      -1.236  -4.098   6.091  0.00  0.00    -0.088 S 
BRANCH  20  21
ATOM     21  C   UNL     1      -1.183  -3.340   7.681  0.00  0.00    +0.160 A 
ATOM     22  N   UNL     1      -1.122  -2.061   7.996  0.00  0.00    -0.133 NA
ATOM     23  N   UNL     1      -1.093  -1.682   9.318  0.00  0.00    -0.125 NA
ATOM     24  C   UNL     1      -1.115  -2.600  10.264  0.00  0.00    +0.183 A 
ATOM     25  S   UNL     1      -1.188  -4.100   9.297  0.00  0.00    -0.025 S 
ATOM     26  N   UNL     1      -1.089  -2.442  11.645  0.00  0.00    -0.319 N 
ATOM     27  H   UNL     1      -1.113  -3.326  12.300  0.00  0.00    +0.148 HD
BRANCH  26  28
ATOM     28  C   UNL     1      -1.027  -1.100  12.228  0.00  0.00    +0.072 C 
ATOM     29  C   UNL     1      -0.062  -0.879  13.394  0.00  0.00    +0.024 C 
ATOM     30  C   UNL     1      -1.571  -0.920  13.646  0.00  0.00    +0.024 C 
ENDBRANCH  26  28
ENDBRANCH  20  21
ENDBRANCH  19  20
ENDBRANCH   2  19
TORSDOF 7
