REMARK  Name = ZINC09716477
REMARK  9 active torsions:
REMARK  status: ('A' for Active; 'I' for Inactive)
REMARK    1  A    between atoms: C_1  and  C_2
REMARK    2  A    between atoms: C_5  and  C_8
REMARK    3  A    between atoms: C_11  and  S_20
REMARK    4  A    between atoms: N_12  and  C_13
REMARK    5  A    between atoms: S_20  and  C_21
REMARK    6  A    between atoms: C_21  and  C_22
REMARK    7  A    between atoms: N_24  and  C_25
REMARK    8  A    between atoms: C_26  and  C_32
REMARK    9  A    between atoms: C_30  and  C_31
REMARK                            x       y       z     vdW  Elec       q    Type
REMARK                         _______ _______ _______ _____ _____    ______ ____
ROOT
ATOM      1  C   UNL     1       5.650  -7.671  -1.282  0.00  0.00    +0.169 A 
ATOM      2  N   UNL     1       4.410  -7.672  -0.851  0.00  0.00    -0.128 NA
ATOM      3  N   UNL     1       3.987  -6.465  -0.727  0.00  0.00    -0.122 NA
ATOM      4  C   UNL     1       4.930  -5.617  -1.072  0.00  0.00    +0.197 A 
ATOM      5  N   UNL     1       6.021  -6.354  -1.443  0.00  0.00    -0.270 N 
ENDROOT
BRANCH   1  10
ATOM      6  C   UNL     1       8.913 -12.295  -2.324  0.00  0.00    +0.044 C 
ATOM      7  C   UNL     1       8.059 -11.084  -2.051  0.00  0.00    -0.050 A 
ATOM      8  C   UNL     1       6.690 -11.226  -1.902  0.00  0.00    +0.004 A 
ATOM      9  C   UNL     1       5.902 -10.122  -1.652  0.00  0.00    +0.012 A 
ATOM     10  C   UNL     1       6.488  -8.859  -1.550  0.00  0.00    +0.020 A 
ATOM     11  C   UNL     1       7.868  -8.722  -1.708  0.00  0.00    +0.012 A 
ATOM     12  C   UNL     1       8.646  -9.835  -1.951  0.00  0.00    +0.004 A 
ENDBRANCH   1  10
BRANCH   5  13
ATOM     13  C   UNL     1       7.258  -5.870  -1.890  0.00  0.00    +0.051 A 
ATOM     14  C   UNL     1       7.680  -6.131  -3.187  0.00  0.00    +0.028 A 
ATOM     15  C   UNL     1       8.897  -5.650  -3.627  0.00  0.00    +0.022 A 
ATOM     16  C   UNL     1       9.702  -4.916  -2.772  0.00  0.00    +0.041 A 
ATOM     17  C   UNL     1       9.286  -4.658  -1.478  0.00  0.00    +0.022 A 
ATOM     18  C   UNL     1       8.067  -5.133  -1.035  0.00  0.00    +0.028 A 
ATOM     19 CL   UNL     1      11.234  -4.317  -3.326  0.00  0.00    -0.084 Cl
ENDBRANCH   5  13
BRANCH   4  20
ATOM     20  S   UNL     1       4.809  -3.859  -1.065  0.00  0.00    -0.076 S 
BRANCH  20  21
ATOM     21  C   UNL     1       3.108  -3.664  -0.476  0.00  0.00    +0.173 C 
BRANCH  21  22
ATOM     22  C   UNL     1       2.772  -2.197  -0.388  0.00  0.00    +0.228 C 
ATOM     23  O   UNL     1       3.601  -1.366  -0.694  0.00  0.00    -0.275 OA
ATOM     24  N   UNL     1       1.551  -1.809   0.029  0.00  0.00    -0.282 N 
ATOM     25  H   UNL     1       0.914  -2.470   0.344  0.00  0.00    +0.155 HD
BRANCH  24  26
ATOM     26  C   UNL     1       1.200  -0.446   0.009  0.00  0.00    +0.077 A 
ATOM     27  C   UNL     1       0.379   0.155  -0.889  0.00  0.00    +0.054 A 
ATOM     28  N   UNL     1       0.302   1.470  -0.558  0.00  0.00    -0.280 N 
ATOM     29  H   UNL     1      -0.229   2.168  -1.039  0.00  0.00    +0.189 HD
ATOM     30  N   UNL     1       1.100   1.676   0.574  0.00  0.00    -0.177 NA
ATOM     31  C   UNL     1       1.637   0.532   0.914  0.00  0.00    +0.081 A 
ATOM     32  C   UNL     1       2.565   0.305   2.079  0.00  0.00    +0.069 C 
ATOM     33  C   UNL     1      -0.321  -0.515  -2.043  0.00  0.00    +0.067 C 
ENDBRANCH  24  26
ENDBRANCH  21  22
ENDBRANCH  20  21
ENDBRANCH   4  20
TORSDOF 6
