REMARK  Name = ZINC36006720
REMARK  16 active torsions:
REMARK  status: ('A' for Active; 'I' for Inactive)
REMARK    1  A    between atoms: C_1  and  C_2
REMARK    2  A    between atoms: C_2  and  C_3
REMARK    3  A    between atoms: C_3  and  N_4
REMARK    4  A    between atoms: N_10  and  C_13
REMARK    5  A    between atoms: C_13  and  C_14
REMARK    6  A    between atoms: C_15  and  C_34
REMARK    7  A    between atoms: C_16  and  C_24
REMARK    8  A    between atoms: N_21  and  C_22
REMARK    9  A    between atoms: C_22  and  C_23
REMARK   10  A    between atoms: C_27  and  C_30
REMARK   11  A    between atoms: C_30  and  C_31
REMARK   12  A    between atoms: C_30  and  C_32
REMARK   13  A    between atoms: C_30  and  C_33
REMARK   14  A    between atoms: C_34  and  O_36
REMARK   15  A    between atoms: O_36  and  C_37
REMARK   16  A    between atoms: C_37  and  C_38
REMARK                            x       y       z     vdW  Elec       q    Type
REMARK                         _______ _______ _______ _____ _____    ______ ____
ROOT
ATOM      1  C   UNL     1       3.769  -8.454  -2.190  0.00  0.00    +0.041 C 
ATOM      2  C   UNL     1       5.074  -8.600  -2.505  0.00  0.00    +0.080 C 
ATOM      3  C   UNL     1       5.429  -9.575  -3.609  0.00  0.00    +0.144 C 
ATOM      4  N   UNL     1       4.313 -10.288  -4.253  0.00  0.00    -0.288 N 
ATOM      5  C   UNL     1       3.059 -10.035  -3.828  0.00  0.00    +0.307 C 
ATOM      6  O   UNL     1       2.131 -10.619  -4.354  0.00  0.00    -0.252 OA
ATOM      7  N   UNL     1       2.803  -9.166  -2.842  0.00  0.00    -0.258 N 
ATOM      8  H   UNL     1       4.476 -10.924  -4.967  0.00  0.00    +0.151 HD
ENDROOT
BRANCH   3   9
ATOM      9  C   UNL     1       6.368 -10.604  -3.036  0.00  0.00    -0.022 A 
ATOM     10  C   UNL     1       5.869 -11.659  -2.295  0.00  0.00    +0.006 A 
ATOM     11  C   UNL     1       6.731 -12.603  -1.769  0.00  0.00    +0.004 A 
ATOM     12  C   UNL     1       8.092 -12.493  -1.986  0.00  0.00    -0.042 A 
ATOM     13  C   UNL     1       8.591 -11.440  -2.728  0.00  0.00    +0.004 A 
ATOM     14  C   UNL     1       7.729 -10.498  -3.257  0.00  0.00    +0.006 A 
BRANCH  12  15
ATOM     15  C   UNL     1       9.031 -13.523  -1.412  0.00  0.00    -0.013 C 
ATOM     16  C   UNL     1       8.678 -14.903  -1.970  0.00  0.00    +0.015 C 
ATOM     17  C   UNL     1      10.470 -13.170  -1.796  0.00  0.00    +0.015 C 
ATOM     18  C   UNL     1       8.900 -13.540   0.112  0.00  0.00    +0.015 C 
ENDBRANCH  12  15
ENDBRANCH   3   9
BRANCH   7  19
ATOM     19  C   UNL     1       1.407  -8.963  -2.446  0.00  0.00    +0.111 C 
ATOM     20  C   UNL     1       0.799  -7.834  -3.280  0.00  0.00    +0.025 C 
ENDBRANCH   7  19
BRANCH   2  21
ATOM     21  C   UNL     1       6.076  -7.867  -1.826  0.00  0.00    +0.339 C 
ATOM     22  O   UNL     1       6.613  -6.922  -2.372  0.00  0.00    -0.245 OA
BRANCH  21  23
ATOM     23  O   UNL     1       6.435  -8.217  -0.573  0.00  0.00    -0.462 OA
BRANCH  23  24
ATOM     24  C   UNL     1       7.454  -7.433   0.052  0.00  0.00    +0.229 C 
ATOM     25  C   UNL     1       7.725  -7.975   1.456  0.00  0.00    +0.048 C 
ENDBRANCH  23  24
ENDBRANCH  21  23
ENDBRANCH   2  21
BRANCH   1  26
ATOM     26  C   UNL     1       3.372  -7.495  -1.097  0.00  0.00    +0.136 C 
BRANCH  26  33
ATOM     27  N   UNL     1       1.367  -1.698  -1.288  0.00  0.00    -0.299 N 
ATOM     28  C   UNL     1       1.973  -2.387  -2.276  0.00  0.00    +0.302 C 
ATOM     29  O   UNL     1       2.554  -1.793  -3.163  0.00  0.00    -0.253 OA
ATOM     30  N   UNL     1       1.934  -3.734  -2.280  0.00  0.00    -0.283 N 
ATOM     31  C   UNL     1       1.141  -4.469  -1.283  0.00  0.00    +0.124 C 
ATOM     32  C   UNL     1       2.037  -5.529  -0.634  0.00  0.00    +0.104 C 
ATOM     33  N   UNL     1       2.643  -6.362  -1.682  0.00  0.00    -0.294 NA
ATOM     34  C   UNL     1       3.518  -5.566  -2.554  0.00  0.00    +0.104 C 
ATOM     35  C   UNL     1       2.678  -4.508  -3.285  0.00  0.00    +0.124 C 
ATOM     36  H   UNL     1       0.842  -2.167  -0.621  0.00  0.00    +0.150 HD
BRANCH  27  37
ATOM     37  C   UNL     1       1.503  -0.241  -1.222  0.00  0.00    +0.105 C 
BRANCH  37  39
ATOM     38  C   UNL     1       0.866   1.811   0.054  0.00  0.00    +0.005 C 
ATOM     39  C   UNL     1       0.725   0.289  -0.016  0.00  0.00    +0.015 C 
ENDBRANCH  37  39
ENDBRANCH  27  37
ENDBRANCH  26  33
ENDBRANCH   1  26
TORSDOF 10
