REMARK  Name = ZINC39523240
REMARK  4 active torsions:
REMARK  status: ('A' for Active; 'I' for Inactive)
REMARK    1  A    between atoms: C_4  and  O_7
REMARK    2  A    between atoms: O_7  and  S_8
REMARK    3  A    between atoms: S_8  and  C_11
REMARK    4  A    between atoms: N_23  and  O_24
REMARK                            x       y       z     vdW  Elec       q    Type
REMARK                         _______ _______ _______ _____ _____    ______ ____
ROOT
ATOM      1  C   UNL     1       3.008  -2.422   1.830  0.00  0.00    +0.173 C 
ATOM      2  C   UNL     1       1.538  -2.094   1.562  0.00  0.00    +0.030 C 
ATOM      3  C   UNL     1       0.669  -3.292   1.952  0.00  0.00    +0.004 C 
ATOM      4  C   UNL     1       0.860  -3.598   3.439  0.00  0.00    +0.025 C 
ATOM      5  C   UNL     1       2.330  -3.926   3.708  0.00  0.00    +0.050 C 
ATOM      6  C   UNL     1       3.199  -2.729   3.317  0.00  0.00    +0.054 C 
ATOM      7  C   UNL     1       2.519  -4.229   5.196  0.00  0.00    +0.025 C 
ATOM      8  C   UNL     1       3.986  -4.578   5.459  0.00  0.00    +0.005 C 
ATOM      9  C   UNL     1       4.383  -5.771   4.586  0.00  0.00    +0.037 C 
ATOM     10  C   UNL     1       4.141  -5.423   3.115  0.00  0.00    +0.175 C 
ATOM     11  N   UNL     1       2.723  -5.097   2.915  0.00  0.00    -0.167 NA
ATOM     12 CL   UNL     1       5.154  -4.003   2.660  0.00  0.00    -0.102 Cl
ENDROOT
BRANCH   1  13
ATOM     13  S   UNL     1       4.038  -1.003   1.368  0.00  0.00    +0.124 S 
ATOM     14  O   UNL     1       5.411  -1.371   1.378  0.00  0.00    -0.136 OA
ATOM     15  O   UNL     1       3.596   0.165   2.047  0.00  0.00    -0.136 OA
BRANCH  13  16
ATOM     16  O   UNL     1       3.716  -0.746  -0.097  0.00  0.00    -0.346 OA
BRANCH  16  20
ATOM     17  C   UNL     1       5.402  -3.476  -2.691  0.00  0.00    +0.000 A 
ATOM     18  C   UNL     1       4.137  -3.700  -2.179  0.00  0.00    +0.004 A 
ATOM     19  C   UNL     1       3.570  -2.788  -1.310  0.00  0.00    +0.048 A 
ATOM     20  C   UNL     1       4.272  -1.646  -0.951  0.00  0.00    +0.156 A 
ATOM     21  C   UNL     1       5.541  -1.423  -1.466  0.00  0.00    +0.048 A 
ATOM     22  C   UNL     1       6.103  -2.338  -2.334  0.00  0.00    +0.004 A 
ENDBRANCH  16  20
ENDBRANCH  13  16
ENDBRANCH   1  13
BRANCH  11  23
ATOM     23  O   UNL     1       1.873  -6.247   3.221  0.00  0.00    -0.310 OA
ATOM     24  H   UNL     1       2.095  -7.045   2.721  0.00  0.00    +0.237 HD
ENDBRANCH  11  23
TORSDOF 4
