REMARK  Name = ZINC33937362
REMARK  12 active torsions:
REMARK  status: ('A' for Active; 'I' for Inactive)
REMARK    1  A    between atoms: C_1  and  C_2
REMARK    2  A    between atoms: C_2  and  C_3
REMARK    3  A    between atoms: C_3  and  C_4
REMARK    4  A    between atoms: C_4  and  C_6
REMARK    5  A    between atoms: C_4  and  N_18
REMARK    6  A    between atoms: N_10  and  C_11
REMARK    7  A    between atoms: C_11  and  C_12
REMARK    8  A    between atoms: N_18  and  C_19
REMARK    9  A    between atoms: N_18  and  C_25
REMARK   10  A    between atoms: C_19  and  C_20
REMARK   11  A    between atoms: C_25  and  C_26
REMARK   12  A    between atoms: C_30  and  C_38
REMARK                            x       y       z     vdW  Elec       q    Type
REMARK                         _______ _______ _______ _____ _____    ______ ____
ROOT
ATOM      1  N   UNL     1       1.667  -1.912   0.097  0.00  0.00    +0.394 N 
ATOM      2  H   UNL     1       2.584  -1.616  -0.202  0.00  0.00    -0.080 HD
ENDROOT
BRANCH   1   3
ATOM      3  C   UNL     1       0.647  -1.277  -0.748  0.00  0.00    +0.004 C 
BRANCH   3   4
ATOM      4  C   UNL     1      -0.724  -1.657  -0.252  0.00  0.00    +0.138 A 
ATOM      5  N   UNL     1      -1.166  -2.870  -0.026  0.00  0.00    -0.115 NA
ATOM      6  N   UNL     1      -2.383  -2.779   0.388  0.00  0.00    -0.023 NA
ATOM      7  N   UNL     1      -2.728  -1.540   0.433  0.00  0.00    -0.044 NA
ATOM      8  N   UNL     1      -1.731  -0.816   0.050  0.00  0.00    -0.228 N 
BRANCH   8   9
ATOM      9  C   UNL     1      -1.701   0.646  -0.041  0.00  0.00    +0.178 C 
BRANCH   9  10
ATOM     10  C   UNL     1      -2.162   1.079  -1.434  0.00  0.00    +0.140 C 
ATOM     11  C   UNL     1      -2.225   2.625  -1.523  0.00  0.00    +0.035 C 
ATOM     12  C   UNL     1      -2.057   2.840  -3.052  0.00  0.00    +0.031 C 
ATOM     13  C   UNL     1      -1.105   1.689  -3.441  0.00  0.00    +0.160 C 
ATOM     14  O   UNL     1      -1.200   0.683  -2.424  0.00  0.00    -0.375 OA
ENDBRANCH   9  10
ENDBRANCH   8   9
ENDBRANCH   3   4
BRANCH   3  15
ATOM     15  C   UNL     1       0.816  -1.750  -2.193  0.00  0.00    -0.008 C 
BRANCH  15  17
ATOM     16  C   UNL     1       2.293  -1.651  -4.206  0.00  0.00    +0.004 C 
ATOM     17  C   UNL     1       2.181  -1.302  -2.721  0.00  0.00    -0.005 C 
ENDBRANCH  15  17
ENDBRANCH   3  15
ENDBRANCH   1   3
BRANCH   1  18
ATOM     18  C   UNL     1       1.561  -3.372  -0.021  0.00  0.00    -0.002 C 
BRANCH  18  19
ATOM     19  C   UNL     1       2.439  -3.849  -1.149  0.00  0.00    +0.089 A 
ATOM     20  C   UNL     1       3.767  -4.054  -1.081  0.00  0.00    +0.042 A 
ATOM     21  C   UNL     1       4.180  -4.497  -2.358  0.00  0.00    +0.041 A 
ATOM     22  C   UNL     1       3.080  -4.535  -3.132  0.00  0.00    +0.195 A 
ATOM     23  O   UNL     1       2.028  -4.148  -2.393  0.00  0.00    -0.470 OA
ENDBRANCH  18  19
ENDBRANCH   1  18
BRANCH   1  24
ATOM     24  C   UNL     1       1.458  -1.518   1.497  0.00  0.00    -0.036 C 
BRANCH  24  25
ATOM     25  C   UNL     1       2.580  -2.059   2.344  0.00  0.00    +0.001 A 
ATOM     26  C   UNL     1       3.651  -1.277   2.628  0.00  0.00    +0.017 A 
ATOM     27  C   UNL     1       4.723  -1.833   3.454  0.00  0.00    -0.001 A 
ATOM     28  C   UNL     1       5.853  -1.075   3.780  0.00  0.00    +0.013 A 
ATOM     29  C   UNL     1       6.836  -1.623   4.554  0.00  0.00    -0.050 A 
ATOM     30  C   UNL     1       6.725  -2.926   5.019  0.00  0.00    +0.005 A 
ATOM     31  C   UNL     1       5.622  -3.692   4.710  0.00  0.00    +0.026 A 
ATOM     32  C   UNL     1       4.607  -3.155   3.925  0.00  0.00    +0.049 A 
ATOM     33  N   UNL     1       3.492  -3.898   3.601  0.00  0.00    -0.322 N 
ATOM     34  H   UNL     1       3.414  -4.809   3.926  0.00  0.00    +0.169 HD
ATOM     35  C   UNL     1       2.509  -3.377   2.845  0.00  0.00    +0.251 A 
ATOM     36  O   UNL     1       1.535  -4.061   2.583  0.00  0.00    -0.268 OA
ATOM     37  C   UNL     1       8.052  -0.805   4.905  0.00  0.00    +0.044 C 
ENDBRANCH  24  25
ENDBRANCH   1  24
TORSDOF 10
