REMARK  Name = ZINC01409513
REMARK  8 active torsions:
REMARK  status: ('A' for Active; 'I' for Inactive)
REMARK    1  A    between atoms: C_1  and  C_2
REMARK    2  A    between atoms: C_2  and  N_3
REMARK    3  A    between atoms: N_3  and  C_4
REMARK    4  A    between atoms: N_3  and  C_6
REMARK    5  A    between atoms: C_4  and  C_5
REMARK    6  A    between atoms: C_9  and  C_12
REMARK    7  A    between atoms: C_24  and  S_27
REMARK    8  A    between atoms: S_27  and  C_28
REMARK                            x       y       z     vdW  Elec       q    Type
REMARK                         _______ _______ _______ _____ _____    ______ ____
ROOT
ATOM      1  C   UNL     1      -3.270   3.732   1.291  0.00  0.00    +0.294 C 
ATOM      2  N   UNL     1      -2.405   3.749   0.128  0.00  0.00    -0.305 N 
ATOM      3  C   UNL     1      -1.211   3.021   0.153  0.00  0.00    +0.039 A 
ATOM      4  C   UNL     1       0.018   3.653   0.174  0.00  0.00    +0.024 A 
ATOM      5  C   UNL     1       1.178   2.901   0.228  0.00  0.00    +0.002 A 
ATOM      6  C   UNL     1       1.116   1.518   0.260  0.00  0.00    +0.001 A 
ATOM      7  C   UNL     1      -0.105   0.873   0.234  0.00  0.00    +0.012 A 
ATOM      8  C   UNL     1      -1.278   1.615   0.169  0.00  0.00    +0.028 A 
ATOM      9  C   UNL     1      -2.603   0.964   0.107  0.00  0.00    +0.156 A 
ATOM     10  C   UNL     1      -3.640   1.413   0.954  0.00  0.00    +0.248 A 
ATOM     11  N   UNL     1      -4.822   0.826   0.878  0.00  0.00    -0.184 NA
ATOM     12  C   UNL     1      -4.999  -0.170   0.014  0.00  0.00    +0.212 A 
ATOM     13  N   UNL     1      -4.009  -0.581  -0.769  0.00  0.00    -0.122 NA
ATOM     14  N   UNL     1      -2.843  -0.035  -0.729  0.00  0.00    -0.141 NA
ATOM     15  O   UNL     1      -3.408   2.422   1.827  0.00  0.00    -0.449 OA
ATOM     16  H   UNL     1      -2.657   4.257  -0.659  0.00  0.00    +0.150 HD
ENDROOT
BRANCH   1  20
ATOM     17  C   UNL     1      -1.602   6.292   4.279  0.00  0.00    +0.030 A 
ATOM     18  C   UNL     1      -1.518   6.642   2.938  0.00  0.00    +0.023 A 
ATOM     19  C   UNL     1      -2.059   5.813   1.974  0.00  0.00    +0.011 A 
ATOM     20  C   UNL     1      -2.682   4.635   2.344  0.00  0.00    +0.011 A 
ATOM     21  C   UNL     1      -2.771   4.286   3.680  0.00  0.00    +0.011 A 
ATOM     22  C   UNL     1      -2.228   5.108   4.647  0.00  0.00    +0.023 A 
BRANCH  17  23
ATOM     23  N   UNL     1      -1.056   7.128   5.256  0.00  0.00    -0.330 N 
BRANCH  23  25
ATOM     24  C   UNL     1       0.082   5.929   7.059  0.00  0.00    +0.024 C 
ATOM     25  C   UNL     1      -1.145   6.757   6.670  0.00  0.00    +0.102 C 
ENDBRANCH  23  25
BRANCH  23  26
ATOM     26  C   UNL     1      -0.395   8.376   4.866  0.00  0.00    +0.102 C 
ATOM     27  C   UNL     1      -1.423   9.509   4.834  0.00  0.00    +0.024 C 
ENDBRANCH  23  26
ENDBRANCH  17  23
ENDBRANCH   1  20
BRANCH  12  28
ATOM     28  S   UNL     1      -6.572  -0.956  -0.092  0.00  0.00    -0.088 S 
ATOM     29  C   UNL     1      -6.226  -2.180  -1.380  0.00  0.00    +0.093 C 
ENDBRANCH  12  28
TORSDOF 5
