REMARK  Name = ZINC36111774
REMARK  6 active torsions:
REMARK  status: ('A' for Active; 'I' for Inactive)
REMARK    1  A    between atoms: C_1  and  C_2
REMARK    2  A    between atoms: C_7  and  S_8
REMARK    3  A    between atoms: S_8  and  N_11
REMARK    4  A    between atoms: N_11  and  C_12
REMARK    5  A    between atoms: C_15  and  N_18
REMARK    6  A    between atoms: N_21  and  C_24
REMARK                            x       y       z     vdW  Elec       q    Type
REMARK                         _______ _______ _______ _____ _____    ______ ____
ROOT
ATOM      1  C   UNL     1       1.214   2.191   2.133  0.00  0.00    +0.048 A 
ATOM      2  C   UNL     1       0.979   2.115   0.767  0.00  0.00    +0.026 A 
ATOM      3  C   UNL     1       1.017   3.260  -0.005  0.00  0.00    +0.025 A 
ATOM      4  C   UNL     1       1.291   4.487   0.585  0.00  0.00    +0.030 A 
ATOM      5  C   UNL     1       1.526   4.562   1.951  0.00  0.00    +0.025 A 
ATOM      6  C   UNL     1       1.482   3.419   2.724  0.00  0.00    +0.026 A 
ENDROOT
BRANCH   4   7
ATOM      7  N   UNL     1       1.331   5.646  -0.198  0.00  0.00    -0.333 N 
ATOM      8  C   UNL     1       1.744   6.935   0.380  0.00  0.00    +0.086 C 
ATOM      9  C   UNL     1       2.819   7.549  -0.523  0.00  0.00    -0.059 C 
ATOM     10  N   UNL     1       2.312   7.636  -1.898  0.00  0.00    +0.384 N 
ATOM     11  C   UNL     1       2.073   6.288  -2.429  0.00  0.00    -0.059 C 
ATOM     12  C   UNL     1       0.966   5.611  -1.623  0.00  0.00    +0.086 C 
ATOM     13  H   UNL     1       1.447   8.157  -1.904  0.00  0.00    -0.081 HD
BRANCH  10  14
ATOM     14  C   UNL     1       3.299   8.324  -2.740  0.00  0.00    -0.069 C 
ATOM     15  C   UNL     1       2.934   9.714  -3.266  0.00  0.00    -0.017 C 
ATOM     16  C   UNL     1       2.956   8.517  -4.218  0.00  0.00    -0.017 C 
ENDBRANCH  10  14
ENDBRANCH   4   7
BRANCH   1  17
ATOM     17  N   UNL     1       1.176   1.031   2.916  0.00  0.00    -0.216 N 
ATOM     18  H   UNL     1       1.877   0.860   3.563  0.00  0.00    +0.174 HD
BRANCH  17  19
ATOM     19  S   UNL     1      -0.067  -0.049   2.735  0.00  0.00    +0.073 S 
ATOM     20  O   UNL     1      -1.267   0.712   2.724  0.00  0.00    -0.150 OA
ATOM     21  O   UNL     1       0.164  -1.094   3.670  0.00  0.00    -0.150 OA
BRANCH  19  28
ATOM     22  C   UNL     1       2.266  -1.764   1.863  0.00  0.00    +0.046 C 
ATOM     23  C   UNL     1       1.197  -1.533   0.826  0.00  0.00    -0.021 A 
ATOM     24  C   UNL     1       1.320  -2.098  -0.430  0.00  0.00    +0.043 A 
ATOM     25  C   UNL     1       0.339  -1.887  -1.383  0.00  0.00    +0.124 A 
ATOM     26  C   UNL     1      -0.766  -1.110  -1.077  0.00  0.00    +0.040 A 
ATOM     27  C   UNL     1      -0.887  -0.546   0.179  0.00  0.00    +0.032 A 
ATOM     28  C   UNL     1       0.092  -0.762   1.132  0.00  0.00    +0.112 A 
ATOM     29  F   UNL     1       0.458  -2.438  -2.610  0.00  0.00    -0.205 F 
ENDBRANCH  19  28
ENDBRANCH  17  19
ENDBRANCH   1  17
TORSDOF 5
