REMARK  Name = ZINC39866005
REMARK  6 active torsions:
REMARK  status: ('A' for Active; 'I' for Inactive)
REMARK    1  A    between atoms: C_1  and  C_2
REMARK    2  A    between atoms: C_2  and  C_27
REMARK    3  A    between atoms: N_6  and  C_21
REMARK    4  A    between atoms: N_8  and  C_9
REMARK    5  A    between atoms: C_11  and  C_14
REMARK    6  A    between atoms: C_30  and  N_33
REMARK                            x       y       z     vdW  Elec       q    Type
REMARK                         _______ _______ _______ _____ _____    ______ ____
ROOT
ATOM      1  C   UNL     1       0.958   1.074   0.290  0.00  0.00    +0.045 C 
ATOM      2  C   UNL     1       0.413  -0.326   0.167  0.00  0.00    -0.024 C 
ATOM      3  C   UNL     1      -0.009  -0.990   1.273  0.00  0.00    +0.081 C 
ATOM      4  C   UNL     1      -0.035  -0.546   2.678  0.00  0.00    +0.264 C 
ATOM      5  O   UNL     1       0.357   0.560   3.003  0.00  0.00    -0.269 OA
ATOM      6  N   UNL     1      -0.503  -1.402   3.571  0.00  0.00    -0.214 N 
ATOM      7  C   UNL     1      -0.942  -2.650   3.184  0.00  0.00    +0.175 C 
ATOM      8  N   UNL     1      -1.432  -3.615   3.934  0.00  0.00    -0.199 NA
ATOM      9  S   UNL     1      -0.691  -2.636   1.416  0.00  0.00    -0.048 S 
ENDROOT
BRANCH   6  10
ATOM     10  C   UNL     1      -0.553  -1.037   4.923  0.00  0.00    +0.043 A 
ATOM     11  C   UNL     1       0.482  -1.394   5.778  0.00  0.00    +0.024 A 
ATOM     12  C   UNL     1       0.430  -1.032   7.110  0.00  0.00    +0.002 A 
ATOM     13  C   UNL     1      -0.651  -0.317   7.592  0.00  0.00    +0.000 A 
ATOM     14  C   UNL     1      -1.683   0.039   6.743  0.00  0.00    +0.002 A 
ATOM     15  C   UNL     1      -1.634  -0.314   5.409  0.00  0.00    +0.024 A 
ENDBRANCH   6  10
BRANCH   2  16
ATOM     16  C   UNL     1       0.340  -0.971  -1.150  0.00  0.00    -0.021 A 
ATOM     17  C   UNL     1       1.112  -2.108  -1.419  0.00  0.00    +0.010 A 
ATOM     18  C   UNL     1       1.040  -2.707  -2.650  0.00  0.00    +0.023 A 
ATOM     19  C   UNL     1       0.201  -2.187  -3.632  0.00  0.00    +0.025 A 
ATOM     20  C   UNL     1      -0.568  -1.057  -3.369  0.00  0.00    +0.023 A 
ATOM     21  C   UNL     1      -0.507  -0.454  -2.139  0.00  0.00    +0.010 A 
BRANCH  19  22
ATOM     22  N   UNL     1       0.131  -2.799  -4.881  0.00  0.00    -0.358 N 
ATOM     23  H   UNL     1       0.666  -3.586  -5.066  0.00  0.00    +0.142 HD
ATOM     24  H   UNL     1      -0.454  -2.438  -5.566  0.00  0.00    +0.142 HD
ENDBRANCH  19  22
ENDBRANCH   2  16
BRANCH   8  25
ATOM     25  C   UNL     1      -1.687  -3.390   5.248  0.00  0.00    +0.195 A 
ATOM     26  N   UNL     1      -0.906  -3.593   6.302  0.00  0.00    -0.221 NA
ATOM     27  C   UNL     1      -1.324  -3.312   7.526  0.00  0.00    +0.080 A 
ATOM     28  C   UNL     1      -2.582  -2.805   7.708  0.00  0.00    +0.077 A 
ATOM     29  S   UNL     1      -3.161  -2.735   6.018  0.00  0.00    -0.056 S 
BRANCH  27  30
ATOM     30  C   UNL     1      -0.437  -3.547   8.691  0.00  0.00    +0.001 A 
ATOM     31  C   UNL     1      -0.883  -3.256   9.980  0.00  0.00    +0.010 A 
ATOM     32  C   UNL     1      -0.053  -3.477  11.060  0.00  0.00    +0.001 A 
ATOM     33  C   UNL     1       1.219  -3.985  10.866  0.00  0.00    +0.000 A 
ATOM     34  C   UNL     1       1.667  -4.275   9.590  0.00  0.00    +0.001 A 
ATOM     35  C   UNL     1       0.844  -4.064   8.503  0.00  0.00    +0.010 A 
ENDBRANCH  27  30
ENDBRANCH   8  25
TORSDOF 5
