REMARK  Name = ZINC36207100
REMARK  12 active torsions:
REMARK  status: ('A' for Active; 'I' for Inactive)
REMARK    1  A    between atoms: C_1  and  C_2
REMARK    2  A    between atoms: C_5  and  C_36
REMARK    3  A    between atoms: C_6  and  C_8
REMARK    4  A    between atoms: C_17  and  C_19
REMARK    5  A    between atoms: C_19  and  N_20
REMARK    6  A    between atoms: N_20  and  C_21
REMARK    7  A    between atoms: N_20  and  C_33
REMARK    8  A    between atoms: C_21  and  C_22
REMARK    9  A    between atoms: C_22  and  C_24
REMARK   10  A    between atoms: C_22  and  O_32
REMARK   11  A    between atoms: C_24  and  O_25
REMARK   12  A    between atoms: O_25  and  C_26
REMARK                            x       y       z     vdW  Elec       q    Type
REMARK                         _______ _______ _______ _____ _____    ______ ____
ROOT
ATOM      1  C   UNL     1       4.246 -10.662   0.826  0.00  0.00    +0.004 A 
ATOM      2  C   UNL     1       3.894 -11.819   1.436  0.00  0.00    +0.056 A 
ATOM      3  S   UNL     1       3.514 -11.308   3.101  0.00  0.00    -0.076 S 
ATOM      4  C   UNL     1       3.833  -9.570   2.940  0.00  0.00    +0.116 A 
ATOM      5  C   UNL     1       4.232  -9.427   1.601  0.00  0.00    +0.080 A 
ATOM      6  C   UNL     1       4.561  -8.096   1.191  0.00  0.00    +0.260 A 
ATOM      7  O   UNL     1       4.915  -7.871   0.046  0.00  0.00    -0.267 OA
ATOM      8  N   UNL     1       4.475  -7.097   2.088  0.00  0.00    -0.312 N 
ATOM      9  H   UNL     1       4.697  -6.193   1.816  0.00  0.00    +0.170 HD
ATOM     10  C   UNL     1       4.083  -7.329   3.367  0.00  0.00    +0.094 A 
ATOM     11  N   UNL     1       3.767  -8.531   3.769  0.00  0.00    -0.229 NA
ENDROOT
BRANCH   1  17
ATOM     12  C   UNL     1       3.090 -11.330  -3.985  0.00  0.00    +0.044 C 
ATOM     13  C   UNL     1       4.091 -10.972  -2.917  0.00  0.00    -0.050 A 
ATOM     14  C   UNL     1       5.386 -10.635  -3.270  0.00  0.00    +0.003 A 
ATOM     15  C   UNL     1       6.311 -10.306  -2.295  0.00  0.00    +0.004 A 
ATOM     16  C   UNL     1       5.946 -10.313  -0.964  0.00  0.00    -0.043 A 
ATOM     17  C   UNL     1       4.643 -10.652  -0.603  0.00  0.00    -0.013 A 
ATOM     18  C   UNL     1       3.714 -10.977  -1.590  0.00  0.00    +0.012 A 
ATOM     19  C   UNL     1       6.955  -9.956   0.097  0.00  0.00    +0.044 C 
ENDBRANCH   1  17
BRANCH  10  20
ATOM     20  C   UNL     1       4.001  -6.179   4.338  0.00  0.00    -0.003 C 
BRANCH  20  21
ATOM     21  N   UNL     1       3.689  -6.691   5.679  0.00  0.00    +0.388 N 
ATOM     22  H   UNL     1       2.862  -7.267   5.634  0.00  0.00    -0.081 HD
BRANCH  21  23
ATOM     23  C   UNL     1       3.452  -5.564   6.590  0.00  0.00    -0.068 C 
ATOM     24  C   UNL     1       2.111  -5.519   7.325  0.00  0.00    -0.017 C 
ATOM     25  C   UNL     1       2.391  -4.538   6.185  0.00  0.00    -0.017 C 
ENDBRANCH  21  23
BRANCH  21  26
ATOM     26  C   UNL     1       4.817  -7.491   6.173  0.00  0.00    -0.043 C 
BRANCH  26  27
ATOM     27  C   UNL     1       4.444  -8.126   7.513  0.00  0.00    +0.135 C 
BRANCH  27  28
ATOM     28  O   UNL     1       4.139  -7.099   8.459  0.00  0.00    -0.390 OA
ATOM     29  H   UNL     1       4.870  -6.489   8.626  0.00  0.00    +0.210 HD
ENDBRANCH  27  28
BRANCH  27  30
ATOM     30  C   UNL     1       5.619  -8.960   8.028  0.00  0.00    +0.258 C 
BRANCH  30  31
ATOM     31  O   UNL     1       5.231  -9.646   9.220  0.00  0.00    -0.489 OA
BRANCH  31  32
ATOM     32  C   UNL     1       6.166 -10.436   9.809  0.00  0.00    +0.121 A 
ATOM     33  C   UNL     1       7.434 -10.545   9.255  0.00  0.00    +0.045 A 
ATOM     34  C   UNL     1       8.383 -11.348   9.856  0.00  0.00    +0.004 A 
ATOM     35  C   UNL     1       8.071 -12.045  11.009  0.00  0.00    +0.000 A 
ATOM     36  C   UNL     1       6.808 -11.939  11.563  0.00  0.00    +0.004 A 
ATOM     37  C   UNL     1       5.857 -11.132  10.969  0.00  0.00    +0.045 A 
ENDBRANCH  31  32
ENDBRANCH  30  31
ENDBRANCH  27  30
ENDBRANCH  26  27
ENDBRANCH  21  26
ENDBRANCH  20  21
ENDBRANCH  10  20
TORSDOF 10
