REMARK  Name = ZINC39000933
REMARK  7 active torsions:
REMARK  status: ('A' for Active; 'I' for Inactive)
REMARK    1  A    between atoms: C_1  and  C_2
REMARK    2  A    between atoms: C_5  and  C_8
REMARK    3  A    between atoms: C_10  and  C_14
REMARK    4  A    between atoms: C_18  and  S_22
REMARK    5  A    between atoms: N_20  and  N_21
REMARK    6  A    between atoms: S_22  and  C_23
REMARK    7  A    between atoms: C_23  and  C_24
REMARK                            x       y       z     vdW  Elec       q    Type
REMARK                         _______ _______ _______ _____ _____    ______ ____
ROOT
ATOM      1  C   UNL     1       1.358  -7.180   0.973  0.00  0.00    +0.185 C 
ATOM      2  N   UNL     1       1.387  -7.322   2.452  0.00  0.00    -0.234 NA
ATOM      3  N   UNL     1       2.268  -8.482   2.657  0.00  0.00    -0.228 NA
ATOM      4  C   UNL     1       1.929  -9.405   1.550  0.00  0.00    +0.214 C 
ATOM      5  N   UNL     1       1.351  -8.573   0.471  0.00  0.00    -0.197 NA
ATOM      6  H   UNL     1       0.463  -7.501   2.817  0.00  0.00    +0.143 HD
ATOM      7  H   UNL     1       2.095  -8.914   3.553  0.00  0.00    +0.143 HD
ENDROOT
BRANCH   1  10
ATOM      8  C   UNL     1       0.061  -4.256  -0.021  0.00  0.00    +0.091 C 
ATOM      9  C   UNL     1       0.071  -5.030   1.081  0.00  0.00    +0.034 C 
ATOM     10  C   UNL     1       0.090  -6.445   0.530  0.00  0.00    +0.187 C 
ATOM     11  N   UNL     1       0.087  -6.239  -0.927  0.00  0.00    -0.176 NA
ATOM     12  N   UNL     1       0.065  -5.025  -1.142  0.00  0.00    -0.154 NA
BRANCH   8  17
ATOM     13  C   UNL     1      -0.018   1.503   0.010  0.00  0.00    +0.044 C 
ATOM     14  C   UNL     1       0.002  -0.004   0.002  0.00  0.00    -0.050 A 
ATOM     15  C   UNL     1       0.006  -0.686  -1.201  0.00  0.00    +0.004 A 
ATOM     16  C   UNL     1       0.025  -2.066  -1.215  0.00  0.00    +0.010 A 
ATOM     17  C   UNL     1       0.041  -2.772  -0.013  0.00  0.00    +0.002 A 
ATOM     18  C   UNL     1       0.037  -2.080   1.196  0.00  0.00    +0.010 A 
ATOM     19  C   UNL     1       0.023  -0.700   1.198  0.00  0.00    +0.004 A 
ENDBRANCH   8  17
ENDBRANCH   1  10
BRANCH   5  20
ATOM     20  N   UNL     1       0.000  -9.005   0.149  0.00  0.00    -0.264 NA
ATOM     21  H   UNL     1      -0.004  -9.954  -0.194  0.00  0.00    +0.137 HD
ATOM     22  H   UNL     1      -0.611  -8.905   0.945  0.00  0.00    +0.137 HD
ENDBRANCH   5  20
BRANCH   4  23
ATOM     23  S   UNL     1       3.427 -10.238   0.955  0.00  0.00    -0.115 S 
BRANCH  23  24
ATOM     24  C   UNL     1       4.512  -8.878   0.443  0.00  0.00    +0.168 C 
BRANCH  24  25
ATOM     25  C   UNL     1       5.809  -9.440  -0.079  0.00  0.00    +0.229 C 
ATOM     26  O   UNL     1       5.984 -10.640  -0.103  0.00  0.00    -0.275 OA
ATOM     27  N   UNL     1       6.775  -8.610  -0.519  0.00  0.00    -0.264 N 
ATOM     28  C   UNL     1       7.972  -9.128  -1.001  0.00  0.00    +0.164 A 
ATOM     29  N   UNL     1       8.333 -10.388  -1.107  0.00  0.00    -0.233 NA
ATOM     30  C   UNL     1       9.516 -10.721  -1.589  0.00  0.00    +0.120 A 
ATOM     31  C   UNL     1      10.334  -9.709  -1.967  0.00  0.00    +0.068 A 
ATOM     32  S   UNL     1       9.308  -8.295  -1.596  0.00  0.00    -0.061 S 
ATOM     33  H   UNL     1       6.635  -7.650  -0.500  0.00  0.00    +0.157 HD
ENDBRANCH  24  25
ENDBRANCH  23  24
ENDBRANCH   4  23
TORSDOF 6
