REMARK  Name = ZINC11775216
REMARK  8 active torsions:
REMARK  status: ('A' for Active; 'I' for Inactive)
REMARK    1  A    between atoms: C_1  and  C_2
REMARK    2  A    between atoms: C_4  and  C_10
REMARK    3  A    between atoms: C_7  and  O_8
REMARK    4  A    between atoms: O_8  and  C_9
REMARK    5  A    between atoms: C_10  and  N_66
REMARK    6  A    between atoms: C_16  and  C_18
REMARK    7  A    between atoms: C_18  and  C_19
REMARK    8  A    between atoms: N_21  and  C_22
REMARK                            x       y       z     vdW  Elec       q    Type
REMARK                         _______ _______ _______ _____ _____    ______ ____
ROOT
ATOM      1  C   UNL     1      -2.459   1.200   7.359  0.00  0.00    -0.058 C 
ATOM      2  C   UNL     1      -1.765   0.520   8.540  0.00  0.00    +0.085 C 
ATOM      3  N   UNL     1      -0.316   0.626   8.398  0.00  0.00    -0.318 N 
ATOM      4  C   UNL     1       0.282   0.910   7.236  0.00  0.00    +0.200 C 
ATOM      5  O   UNL     1       1.494   0.948   7.199  0.00  0.00    -0.278 OA
ATOM      6  C   UNL     1      -0.485   1.184   5.973  0.00  0.00    +0.028 C 
ATOM      7  H   UNL     1       0.239   0.483   9.181  0.00  0.00    +0.149 HD
ATOM      8  N   UNL     1      -1.863   0.675   6.114  0.00  0.00    +0.391 N 
ATOM      9  H   UNL     1      -1.839  -0.350   6.160  0.00  0.00    -0.080 HD
ENDROOT
BRANCH   8  10
ATOM     10  C   UNL     1      -2.677   1.087   4.948  0.00  0.00    -0.042 C 
BRANCH  10  14
ATOM     11  C   UNL     1      -7.465   0.483   6.266  0.00  0.00    +0.047 C 
ATOM     12  C   UNL     1      -6.235  -0.018   5.555  0.00  0.00    -0.009 A 
ATOM     13  C   UNL     1      -5.072   0.729   5.575  0.00  0.00    +0.008 A 
ATOM     14  C   UNL     1      -3.943   0.271   4.924  0.00  0.00    -0.063 A 
ATOM     15  C   UNL     1      -3.975  -0.934   4.245  0.00  0.00    +0.005 A 
ATOM     16  C   UNL     1      -5.132  -1.687   4.226  0.00  0.00    +0.046 A 
ATOM     17  C   UNL     1      -6.267  -1.229   4.879  0.00  0.00    +0.123 A 
BRANCH  17  18
ATOM     18  O   UNL     1      -7.409  -1.966   4.858  0.00  0.00    -0.495 OA
ATOM     19  C   UNL     1      -7.370  -3.202   4.143  0.00  0.00    +0.277 C 
ENDBRANCH  17  18
ENDBRANCH  10  14
ENDBRANCH   8  10
BRANCH   6  20
ATOM     20  C   UNL     1       0.192   0.468   4.802  0.00  0.00    +0.089 C 
BRANCH  20  21
ATOM     21  C   UNL     1       0.161  -1.020   5.038  0.00  0.00    +0.212 C 
ATOM     22  O   UNL     1      -0.438  -1.471   5.991  0.00  0.00    -0.276 OA
ATOM     23  N   UNL     1       0.800  -1.850   4.190  0.00  0.00    -0.310 N 
ATOM     24  H   UNL     1       1.280  -1.489   3.427  0.00  0.00    +0.149 HD
BRANCH  23  25
ATOM     25  C   UNL     1       0.770  -3.297   4.419  0.00  0.00    +0.035 C 
ATOM     26  C   UNL     1       1.567  -4.003   3.320  0.00  0.00    +0.029 C 
ATOM     27  C   UNL     1       1.536  -5.514   3.559  0.00  0.00    -0.008 C 
ATOM     28  C   UNL     1       2.158  -5.828   4.921  0.00  0.00    +0.007 C 
ATOM     29  C   UNL     1       1.362  -5.121   6.020  0.00  0.00    -0.008 C 
ATOM     30  C   UNL     1       1.393  -3.610   5.781  0.00  0.00    +0.029 C 
ATOM     31  C   UNL     1      -0.087  -5.612   5.996  0.00  0.00    +0.007 C 
ATOM     32  C   UNL     1      -0.709  -5.298   4.634  0.00  0.00    -0.008 C 
ATOM     33  C   UNL     1       0.087  -6.005   3.535  0.00  0.00    +0.007 C 
ATOM     34  C   UNL     1      -0.678  -3.787   4.394  0.00  0.00    +0.029 C 
ENDBRANCH  23  25
ENDBRANCH  20  21
ENDBRANCH   6  20
TORSDOF 6
