REMARK  Name = ZINC35344979
REMARK  6 active torsions:
REMARK  status: ('A' for Active; 'I' for Inactive)
REMARK    1  A    between atoms: C_1  and  C_2
REMARK    2  A    between atoms: C_5  and  C_20
REMARK    3  A    between atoms: C_6  and  O_9
REMARK    4  A    between atoms: C_7  and  C_8
REMARK    5  A    between atoms: O_9  and  C_10
REMARK    6  A    between atoms: C_15  and  N_16
REMARK                            x       y       z     vdW  Elec       q    Type
REMARK                         _______ _______ _______ _____ _____    ______ ____
ROOT
ATOM      1  C   UNL     1       1.259  -3.083   2.903  0.00  0.00    +0.151 A 
ATOM      2  C   UNL     1       2.422  -2.682   2.254  0.00  0.00    +0.049 A 
ATOM      3  C   UNL     1       3.652  -2.992   2.805  0.00  0.00    +0.021 A 
ATOM      4  C   UNL     1       3.711  -3.692   3.987  0.00  0.00    +0.041 A 
ATOM      5  C   UNL     1       2.554  -4.116   4.676  0.00  0.00    +0.102 A 
ATOM      6  C   UNL     1       1.308  -3.781   4.095  0.00  0.00    +0.094 A 
ATOM      7  N   UNL     1       2.824  -4.787   5.815  0.00  0.00    -0.245 NA
ATOM      8  C   UNL     1       4.041  -5.008   6.217  0.00  0.00    +0.157 A 
ATOM      9  S   UNL     1       5.007  -4.296   5.037  0.00  0.00    -0.075 S 
ENDROOT
BRANCH   6  10
ATOM     10  N   UNL     1       0.119  -4.165   4.726  0.00  0.00    -0.353 N 
ATOM     11  H   UNL     1      -0.737  -3.940   4.327  0.00  0.00    +0.142 HD
ATOM     12  H   UNL     1       0.150  -4.655   5.562  0.00  0.00    +0.142 HD
ENDBRANCH   6  10
BRANCH   1  13
ATOM     13  O   UNL     1       0.051  -2.776   2.358  0.00  0.00    -0.454 OA
BRANCH  13  19
ATOM     14  C   UNL     1      -0.018   1.503   0.010  0.00  0.00    +0.044 C 
ATOM     15  C   UNL     1       0.002  -0.004   0.002  0.00  0.00    -0.044 A 
ATOM     16  C   UNL     1       0.006  -0.688  -1.200  0.00  0.00    +0.004 A 
ATOM     17  C   UNL     1       0.024  -2.071  -1.211  0.00  0.00    +0.007 A 
ATOM     18  C   UNL     1       0.040  -2.772  -0.021  0.00  0.00    -0.008 A 
ATOM     19  C   UNL     1       0.036  -2.088   1.186  0.00  0.00    +0.135 A 
ATOM     20  C   UNL     1       0.023  -0.700   1.195  0.00  0.00    -0.005 A 
ATOM     21  C   UNL     1       0.025   0.046   2.504  0.00  0.00    +0.048 C 
ATOM     22  C   UNL     1       0.059  -4.279  -0.034  0.00  0.00    +0.047 C 
ENDBRANCH  13  19
ENDBRANCH   1  13
TORSDOF 3
