REMARK  Name = ZINC59792655
REMARK  7 active torsions:
REMARK  status: ('A' for Active; 'I' for Inactive)
REMARK    1  A    between atoms: C_1  and  C_2
REMARK    2  A    between atoms: C_5  and  N_9
REMARK    3  A    between atoms: C_10  and  C_12
REMARK    4  A    between atoms: C_12  and  S_13
REMARK    5  A    between atoms: S_13  and  C_14
REMARK    6  A    between atoms: C_17  and  C_20
REMARK    7  A    between atoms: C_23  and  N_26
REMARK                            x       y       z     vdW  Elec       q    Type
REMARK                         _______ _______ _______ _____ _____    ______ ____
ROOT
ATOM      1  C   UNL     1      -0.358  -8.691  -2.732  0.00  0.00    +0.185 A 
ATOM      2  N   UNL     1      -0.345  -9.362  -1.601  0.00  0.00    -0.201 NA
ATOM      3  H   UNL     1      -0.507  -9.379  -4.692  0.00  0.00    +0.191 HD
ATOM      4  C   UNL     1      -0.441 -10.675  -1.854  0.00  0.00    +0.182 A 
ATOM      5  N   UNL     1      -0.515 -10.853  -3.153  0.00  0.00    -0.152 NA
ATOM      6  N   UNL     1      -0.469  -9.580  -3.744  0.00  0.00    -0.253 N 
ENDROOT
BRANCH   4   7
ATOM      7  C   UNL     1      -0.458 -11.752  -0.833  0.00  0.00    +0.021 A 
ATOM      8  C   UNL     1      -0.377 -11.433   0.521  0.00  0.00    +0.014 A 
ATOM      9  C   UNL     1      -0.394 -12.438   1.466  0.00  0.00    +0.033 A 
ATOM     10  C   UNL     1      -0.491 -13.760   1.072  0.00  0.00    +0.126 A 
ATOM     11  C   UNL     1      -0.572 -14.083  -0.271  0.00  0.00    +0.033 A 
ATOM     12  C   UNL     1      -0.561 -13.085  -1.224  0.00  0.00    +0.014 A 
BRANCH  10  13
ATOM     13  N   UNL     1      -0.509 -14.834   2.091  0.00  0.00    +0.056 N 
ATOM     14  O   UNL     1      -0.438 -14.555   3.265  0.00  0.00    -0.126 OA
ATOM     15  O   UNL     1      -0.594 -15.991   1.748  0.00  0.00    -0.126 OA
ENDBRANCH  10  13
ENDBRANCH   4   7
BRANCH   1  16
ATOM     16  S   UNL     1      -0.257  -6.940  -2.898  0.00  0.00    -0.077 S 
BRANCH  16  17
ATOM     17  C   UNL     1      -0.136  -6.343  -1.190  0.00  0.00    +0.173 C 
BRANCH  17  19
ATOM     18  N   UNL     1       0.057  -4.171  -0.023  0.00  0.00    -0.284 N 
ATOM     19  C   UNL     1      -0.042  -4.839  -1.189  0.00  0.00    +0.228 C 
ATOM     20  O   UNL     1      -0.055  -4.230  -2.238  0.00  0.00    -0.275 OA
ATOM     21  H   UNL     1       0.149  -4.660   0.810  0.00  0.00    +0.155 HD
BRANCH  18  26
ATOM     22  C   UNL     1      -0.063   1.502   0.016  0.00  0.00    +0.044 C 
ATOM     23  C   UNL     1      -0.031  -0.005   0.006  0.00  0.00    -0.049 A 
ATOM     24  C   UNL     1      -0.622  -0.701  -1.033  0.00  0.00    +0.005 A 
ATOM     25  C   UNL     1      -0.594  -2.081  -1.045  0.00  0.00    +0.024 A 
ATOM     26  C   UNL     1       0.028  -2.771  -0.013  0.00  0.00    +0.047 A 
ATOM     27  C   UNL     1       0.621  -2.070   1.029  0.00  0.00    +0.039 A 
ATOM     28  C   UNL     1       0.595  -0.688   1.032  0.00  0.00    +0.020 A 
ATOM     29 BR   UNL     1       1.470  -3.004   2.437  0.00  0.00    -0.048 Br
ENDBRANCH  18  26
ENDBRANCH  17  19
ENDBRANCH  16  17
ENDBRANCH   1  16
TORSDOF 6
