REMARK  Name = ZINC00754030
REMARK  1 active torsions:
REMARK  status: ('A' for Active; 'I' for Inactive)
REMARK    1  A    between atoms: C_4  and  C_7
REMARK                            x       y       z     vdW  Elec       q    Type
REMARK                         _______ _______ _______ _____ _____    ______ ____
ROOT
ATOM      1  C   UNL     1       3.697  -0.686  -0.038  0.00  0.00    +0.084 A 
ATOM      2  C   UNL     1       3.885  -1.862   0.731  0.00  0.00    +0.026 A 
ATOM      3  C   UNL     1       2.871  -2.394   1.535  0.00  0.00    +0.012 A 
ATOM      4  C   UNL     1       3.108  -3.528   2.254  0.00  0.00    +0.001 A 
ATOM      5  C   UNL     1       4.346  -4.164   2.199  0.00  0.00    +0.002 A 
ATOM      6  C   UNL     1       5.356  -3.671   1.427  0.00  0.00    +0.028 A 
ATOM      7  C   UNL     1       5.146  -2.507   0.673  0.00  0.00    +0.077 A 
ATOM      8  N   UNL     1       6.104  -1.983  -0.102  0.00  0.00    -0.214 NA
ATOM      9  C   UNL     1       5.875  -0.886  -0.798  0.00  0.00    +0.224 A 
ATOM     10  N   UNL     1       4.707  -0.251  -0.778  0.00  0.00    -0.213 NA
ATOM     11  N   UNL     1       6.893  -0.377  -1.587  0.00  0.00    -0.259 N 
ATOM     12  C   UNL     1       6.699   0.846  -2.380  0.00  0.00    +0.210 C 
ATOM     13  C   UNL     1       7.320   0.654  -3.740  0.00  0.00    +0.235 C 
ATOM     14  O   UNL     1       6.865   1.246  -4.696  0.00  0.00    -0.274 OA
ATOM     15  N   UNL     1       8.376  -0.166  -3.906  0.00  0.00    -0.283 N 
ATOM     16  C   UNL     1       8.889  -0.898  -2.829  0.00  0.00    +0.055 A 
ATOM     17  C   UNL     1       8.144  -1.008  -1.650  0.00  0.00    +0.058 A 
ATOM     18  C   UNL     1       8.636  -1.727  -0.577  0.00  0.00    +0.025 A 
ATOM     19  C   UNL     1       9.877  -2.335  -0.668  0.00  0.00    +0.002 A 
ATOM     20  C   UNL     1      10.621  -2.224  -1.828  0.00  0.00    +0.002 A 
ATOM     21  C   UNL     1      10.128  -1.511  -2.916  0.00  0.00    +0.025 A 
ATOM     22  H   UNL     1       8.784  -0.250  -4.782  0.00  0.00    +0.155 HD
ENDROOT
BRANCH   1  26
ATOM     23  C   UNL     1      -0.016   1.381   0.011  0.00  0.00    +0.000 A 
ATOM     24  C   UNL     1       0.537   0.930   1.196  0.00  0.00    +0.001 A 
ATOM     25  C   UNL     1       1.743   0.258   1.187  0.00  0.00    +0.010 A 
ATOM     26  C   UNL     1       2.403   0.034  -0.021  0.00  0.00    +0.001 A 
ATOM     27  C   UNL     1       1.839   0.490  -1.213  0.00  0.00    +0.010 A 
ATOM     28  C   UNL     1       0.634   1.161  -1.190  0.00  0.00    +0.001 A 
ENDBRANCH   1  26
TORSDOF 1
