REMARK  Name = ZINC08793274
REMARK  13 active torsions:
REMARK  status: ('A' for Active; 'I' for Inactive)
REMARK    1  A    between atoms: C_1  and  C_2
REMARK    2  A    between atoms: C_6  and  N_9
REMARK    3  A    between atoms: C_7  and  C_8
REMARK    4  A    between atoms: C_10  and  C_28
REMARK    5  A    between atoms: C_13  and  S_14
REMARK    6  A    between atoms: S_14  and  C_15
REMARK    7  A    between atoms: C_21  and  C_27
REMARK    8  A    between atoms: C_24  and  C_25
REMARK    9  A    between atoms: C_24  and  C_26
REMARK   10  A    between atoms: C_28  and  N_29
REMARK   11  A    between atoms: C_30  and  C_32
REMARK   12  A    between atoms: C_35  and  O_38
REMARK   13  A    between atoms: O_38  and  C_39
REMARK                            x       y       z     vdW  Elec       q    Type
REMARK                         _______ _______ _______ _____ _____    ______ ____
ROOT
ATOM      1  N   UNL     1      -0.281   0.940   4.078  0.00  0.00    -0.273 N 
ATOM      2  C   UNL     1       0.641   0.119   4.673  0.00  0.00    +0.156 A 
ATOM      3  N   UNL     1       1.371  -0.395   3.724  0.00  0.00    -0.132 NA
ATOM      4  N   UNL     1       0.977   0.035   2.579  0.00  0.00    -0.122 NA
ATOM      5  C   UNL     1      -0.037   0.856   2.735  0.00  0.00    +0.197 A 
ENDROOT
BRANCH   1  11
ATOM      6  C   UNL     1      -1.672   5.172   6.164  0.00  0.00    +0.044 C 
ATOM      7  C   UNL     1      -1.970   3.759   5.734  0.00  0.00    -0.046 A 
ATOM      8  C   UNL     1      -3.220   3.215   5.967  0.00  0.00    +0.004 A 
ATOM      9  C   UNL     1      -3.497   1.919   5.575  0.00  0.00    +0.002 A 
ATOM     10  C   UNL     1      -2.525   1.162   4.949  0.00  0.00    +0.026 A 
ATOM     11  C   UNL     1      -1.269   1.705   4.714  0.00  0.00    +0.053 A 
ATOM     12  C   UNL     1      -0.992   3.006   5.114  0.00  0.00    -0.024 A 
ATOM     13  C   UNL     1       0.372   3.597   4.867  0.00  0.00    +0.046 C 
ENDBRANCH   1  11
BRANCH   5  14
ATOM     14  S   UNL     1      -0.912   1.694   1.456  0.00  0.00    -0.074 S 
BRANCH  14  15
ATOM     15  C   UNL     1      -0.013   1.086   0.008  0.00  0.00    +0.124 C 
ATOM     16  C   UNL     1      -0.661   1.627  -1.303  0.00  0.00    +0.016 C 
ATOM     17  C   UNL     1      -0.831   3.156  -1.047  0.00  0.00    +0.006 C 
ATOM     18  C   UNL     1       0.614   3.708  -1.034  0.00  0.00    +0.015 C 
ATOM     19  C   UNL     1       1.513   2.461  -1.292  0.00  0.00    +0.033 C 
ATOM     20  C   UNL     1       1.407   1.635  -0.003  0.00  0.00    +0.153 C 
ATOM     21  O   UNL     1       2.266   1.457   0.827  0.00  0.00    -0.296 OA
ATOM     22  C   UNL     1       0.590   1.630  -2.252  0.00  0.00    -0.019 C 
ATOM     23  C   UNL     1       0.315   2.366  -3.565  0.00  0.00    +0.012 C 
ATOM     24  C   UNL     1       1.133   0.220  -2.493  0.00  0.00    +0.012 C 
ATOM     25  C   UNL     1       2.932   2.736  -1.793  0.00  0.00    +0.019 C 
ENDBRANCH  14  15
ENDBRANCH   5  14
BRANCH   2  26
ATOM     26  C   UNL     1       0.787  -0.137   6.151  0.00  0.00    +0.181 C 
BRANCH  26  27
ATOM     27  N   UNL     1       1.710   0.844   6.727  0.00  0.00    -0.304 N 
ATOM     28  C   UNL     1       1.995   0.809   8.044  0.00  0.00    +0.244 C 
ATOM     29  O   UNL     1       1.485  -0.037   8.754  0.00  0.00    -0.270 OA
ATOM     30  H   UNL     1       2.116   1.519   6.161  0.00  0.00    +0.149 HD
BRANCH  28  31
ATOM     31  C   UNL     1       2.925   1.797   8.625  0.00  0.00    +0.037 A 
ATOM     32  C   UNL     1       3.516   2.766   7.810  0.00  0.00    +0.016 A 
ATOM     33  C   UNL     1       4.379   3.689   8.357  0.00  0.00    +0.046 A 
ATOM     34  C   UNL     1       4.671   3.651   9.715  0.00  0.00    +0.120 A 
ATOM     35  C   UNL     1       4.090   2.685  10.528  0.00  0.00    +0.046 A 
ATOM     36  C   UNL     1       3.221   1.762   9.990  0.00  0.00    +0.016 A 
BRANCH  34  37
ATOM     37  O   UNL     1       5.526   4.559  10.249  0.00  0.00    -0.495 OA
ATOM     38  C   UNL     1       6.088   5.524   9.357  0.00  0.00    +0.277 C 
ENDBRANCH  34  37
ENDBRANCH  28  31
ENDBRANCH  26  27
ENDBRANCH   2  26
TORSDOF 7
