REMARK  Name = ZINC17015724
REMARK  5 active torsions:
REMARK  status: ('A' for Active; 'I' for Inactive)
REMARK    1  A    between atoms: C_1  and  C_2
REMARK    2  A    between atoms: C_5  and  C_8
REMARK    3  A    between atoms: N_9  and  N_10
REMARK    4  A    between atoms: C_11  and  C_13
REMARK    5  A    between atoms: C_15  and  C_19
REMARK                            x       y       z     vdW  Elec       q    Type
REMARK                         _______ _______ _______ _____ _____    ______ ____
ROOT
ATOM      1  C   UNL     1       0.127  -8.461   2.247  0.00  0.00    +0.149 A 
ATOM      2  C   UNL     1       0.139  -9.303   3.379  0.00  0.00    +0.062 A 
ATOM      3  C   UNL     1       0.156 -10.578   2.885  0.00  0.00    +0.067 A 
ATOM      4  N   UNL     1       0.154 -10.473   1.525  0.00  0.00    -0.276 N 
ATOM      5  H   UNL     1       0.164 -11.223   0.910  0.00  0.00    +0.189 HD
ATOM      6  N   UNL     1       0.132  -9.236   1.180  0.00  0.00    -0.169 NA
ENDROOT
BRANCH   3   7
ATOM      7  C   UNL     1       0.173 -11.830   3.674  0.00  0.00    +0.001 A 
ATOM      8  C   UNL     1       0.167 -11.779   5.068  0.00  0.00    +0.011 A 
ATOM      9  C   UNL     1       0.183 -12.949   5.799  0.00  0.00    +0.022 A 
ATOM     10  C   UNL     1       0.204 -14.173   5.151  0.00  0.00    +0.059 A 
ATOM     11  C   UNL     1       0.211 -14.230   3.767  0.00  0.00    +0.060 A 
ATOM     12  C   UNL     1       0.189 -13.065   3.026  0.00  0.00    +0.031 A 
ATOM     13 CL   UNL     1       0.239 -15.768   2.963  0.00  0.00    -0.082 Cl
ATOM     14 CL   UNL     1       0.225 -15.641   6.077  0.00  0.00    -0.082 Cl
ENDBRANCH   3   7
BRANCH   1  16
ATOM     15  N   UNL     1       0.093  -6.304   1.091  0.00  0.00    -0.202 N 
ATOM     16  C   UNL     1       0.108  -6.984   2.255  0.00  0.00    +0.283 C 
ATOM     17  O   UNL     1       0.105  -6.382   3.311  0.00  0.00    -0.267 OA
ATOM     18  H   UNL     1       0.095  -6.784   0.249  0.00  0.00    +0.178 HD
BRANCH  15  20
ATOM     19  C   UNL     1       0.060  -4.248  -0.021  0.00  0.00    +0.138 C 
ATOM     20  N   UNL     1       0.074  -4.903   1.099  0.00  0.00    -0.187 NA
BRANCH  19  25
ATOM     21  C   UNL     1      -0.018   1.503   0.010  0.00  0.00    +0.044 C 
ATOM     22  C   UNL     1       0.002  -0.004   0.002  0.00  0.00    -0.050 A 
ATOM     23  C   UNL     1       0.006  -0.686  -1.202  0.00  0.00    +0.004 A 
ATOM     24  C   UNL     1       0.024  -2.065  -1.217  0.00  0.00    +0.010 A 
ATOM     25  C   UNL     1       0.040  -2.773  -0.013  0.00  0.00    -0.005 A 
ATOM     26  C   UNL     1       0.037  -2.078   1.198  0.00  0.00    +0.010 A 
ATOM     27  C   UNL     1       0.023  -0.699   1.198  0.00  0.00    +0.004 A 
ENDBRANCH  19  25
ENDBRANCH  15  20
ENDBRANCH   1  16
TORSDOF 4
