REMARK  Name = ZINC35971795
REMARK  8 active torsions:
REMARK  status: ('A' for Active; 'I' for Inactive)
REMARK    1  A    between atoms: C_2  and  C_3
REMARK    2  A    between atoms: C_3  and  N_4
REMARK    3  A    between atoms: C_7  and  C_12
REMARK    4  A    between atoms: C_15  and  C_18
REMARK    5  A    between atoms: N_24  and  C_26
REMARK    6  A    between atoms: C_26  and  C_27
REMARK    7  A    between atoms: C_27  and  C_28
REMARK    8  A    between atoms: N_30  and  N_31
REMARK                            x       y       z     vdW  Elec       q    Type
REMARK                         _______ _______ _______ _____ _____    ______ ____
ROOT
ATOM      1  N   UNL     1       1.367  -1.676   1.111  0.00  0.00    -0.253 N 
ATOM      2  C   UNL     1       1.872  -1.230   2.300  0.00  0.00    +0.043 C 
ATOM      3  C   UNL     1       1.946  -2.039   3.375  0.00  0.00    +0.058 C 
ATOM      4  C   UNL     1       1.450  -3.463   3.221  0.00  0.00    +0.142 C 
ATOM      5  N   UNL     1       0.924  -3.846   1.900  0.00  0.00    -0.288 N 
ATOM      6  C   UNL     1       0.911  -2.920   0.921  0.00  0.00    +0.307 C 
ATOM      7  O   UNL     1       0.474  -3.226  -0.172  0.00  0.00    -0.252 OA
ATOM      8  C   UNL     1       2.501  -1.348   4.472  0.00  0.00    +0.247 C 
ATOM      9  O   UNL     1       2.685  -1.837   5.572  0.00  0.00    -0.270 OA
ATOM     10  N   UNL     1       2.802  -0.078   4.144  0.00  0.00    -0.292 N 
ATOM     11  C   UNL     1       2.428   0.108   2.734  0.00  0.00    +0.159 C 
ATOM     12  H   UNL     1       0.592  -4.743   1.740  0.00  0.00    +0.151 HD
ENDROOT
BRANCH   4  13
ATOM     13  C   UNL     1       2.590  -4.391   3.554  0.00  0.00    -0.023 A 
ATOM     14  C   UNL     1       3.572  -4.643   2.616  0.00  0.00    +0.006 A 
ATOM     15  C   UNL     1       4.618  -5.494   2.921  0.00  0.00    +0.013 A 
ATOM     16  C   UNL     1       4.680  -6.093   4.165  0.00  0.00    +0.055 A 
ATOM     17  C   UNL     1       3.698  -5.841   5.104  0.00  0.00    +0.013 A 
ATOM     18  C   UNL     1       2.655  -4.986   4.801  0.00  0.00    +0.006 A 
BRANCH  16  19
ATOM     19  C   UNL     1       5.819  -7.022   4.498  0.00  0.00    +0.417 C 
ATOM     20  F   UNL     1       6.871  -6.289   5.057  0.00  0.00    -0.166 F 
ATOM     21  F   UNL     1       5.383  -7.985   5.414  0.00  0.00    -0.166 F 
ATOM     22  F   UNL     1       6.261  -7.655   3.331  0.00  0.00    -0.166 F 
ENDBRANCH  16  19
ENDBRANCH   4  13
BRANCH   1  23
ATOM     23  C   UNL     1       1.317  -0.740  -0.015  0.00  0.00    +0.141 C 
BRANCH  23  25
ATOM     24  C   UNL     1      -0.016   1.306   0.009  0.00  0.00    +0.005 C 
ATOM     25  C   UNL     1       0.002  -0.004   0.002  0.00  0.00    -0.015 C 
ENDBRANCH  23  25
ENDBRANCH   1  23
BRANCH  10  26
ATOM     26  C   UNL     1       3.391   0.931   5.028  0.00  0.00    +0.118 C 
BRANCH  26  27
ATOM     27  C   UNL     1       4.917   0.865   4.930  0.00  0.00    +0.116 C 
BRANCH  27  28
ATOM     28  C   UNL     1       5.523   1.903   5.839  0.00  0.00    +0.228 C 
ATOM     29  O   UNL     1       4.806   2.625   6.500  0.00  0.00    -0.274 OA
ATOM     30  N   UNL     1       6.863   2.030   5.918  0.00  0.00    -0.248 N 
ATOM     31  H   UNL     1       7.436   1.454   5.390  0.00  0.00    +0.169 HD
BRANCH  30  32
ATOM     32  N   UNL     1       7.412   2.971   6.742  0.00  0.00    -0.223 NA
ATOM     33  C   UNL     1       8.158   3.976   5.970  0.00  0.00    +0.133 C 
ATOM     34  C   UNL     1       8.706   5.041   6.924  0.00  0.00    +0.177 C 
ATOM     35  O   UNL     1       9.516   4.411   7.919  0.00  0.00    -0.377 OA
ATOM     36  C   UNL     1       8.821   3.427   8.690  0.00  0.00    +0.177 C 
ATOM     37  C   UNL     1       8.275   2.346   7.754  0.00  0.00    +0.133 C 
ENDBRANCH  30  32
ENDBRANCH  27  28
ENDBRANCH  26  27
ENDBRANCH  10  26
TORSDOF 8
