REMARK  Name = ZINC59363117
REMARK  8 active torsions:
REMARK  status: ('A' for Active; 'I' for Inactive)
REMARK    1  A    between atoms: C_1  and  C_2
REMARK    2  A    between atoms: C_2  and  C_4
REMARK    3  A    between atoms: C_2  and  N_15
REMARK    4  A    between atoms: C_7  and  O_10
REMARK    5  A    between atoms: O_10  and  C_11
REMARK    6  A    between atoms: C_16  and  C_18
REMARK    7  A    between atoms: C_22  and  N_25
REMARK    8  A    between atoms: C_23  and  N_24
REMARK                            x       y       z     vdW  Elec       q    Type
REMARK                         _______ _______ _______ _____ _____    ______ ____
ROOT
ATOM      1  N   UNL     1      -1.873   0.410  -0.052  0.00  0.00    -0.305 N 
ATOM      2  C   UNL     1      -2.458   0.114   1.125  0.00  0.00    +0.246 C 
ATOM      3  O   UNL     1      -2.027   0.595   2.156  0.00  0.00    -0.270 OA
ATOM      4  H   UNL     1      -2.217   0.026  -0.874  0.00  0.00    +0.150 HD
ENDROOT
BRANCH   2   5
ATOM      5  C   UNL     1      -3.620  -0.792   1.164  0.00  0.00    +0.062 A 
ATOM      6  C   UNL     1      -4.193  -1.252  -0.025  0.00  0.00    +0.053 A 
ATOM      7  C   UNL     1      -5.280  -2.100   0.019  0.00  0.00    +0.126 A 
ATOM      8  C   UNL     1      -5.810  -2.498   1.238  0.00  0.00    +0.073 A 
ATOM      9  C   UNL     1      -5.255  -2.050   2.420  0.00  0.00    +0.150 A 
ATOM     10  C   UNL     1      -4.155  -1.202   2.395  0.00  0.00    +0.068 A 
ATOM     11  F   UNL     1      -5.833  -2.544  -1.131  0.00  0.00    -0.205 F 
BRANCH  10  12
ATOM     12  N   UNL     1      -3.591  -0.755   3.584  0.00  0.00    -0.356 N 
ATOM     13  H   UNL     1      -4.154  -0.590   4.357  0.00  0.00    +0.142 HD
ATOM     14  H   UNL     1      -2.633  -0.610   3.642  0.00  0.00    +0.142 HD
ENDBRANCH  10  12
BRANCH   9  15
ATOM     15  N   UNL     1      -5.828  -2.480   3.715  0.00  0.00    +0.058 N 
ATOM     16  O   UNL     1      -6.845  -3.132   3.739  0.00  0.00    -0.126 OA
ATOM     17  O   UNL     1      -5.278  -2.179   4.749  0.00  0.00    -0.126 OA
ENDBRANCH   9  15
ENDBRANCH   2   5
BRANCH   1  19
ATOM     18  C   UNL     1      -1.203   2.760  -0.135  0.00  0.00    +0.033 C 
ATOM     19  C   UNL     1      -0.718   1.310  -0.091  0.00  0.00    +0.100 C 
BRANCH  19  20
ATOM     20  C   UNL     1       0.106   1.018  -1.319  0.00  0.00    -0.027 A 
ATOM     21  C   UNL     1      -0.520   0.742  -2.520  0.00  0.00    +0.009 A 
ATOM     22  C   UNL     1       0.233   0.473  -3.647  0.00  0.00    +0.046 A 
ATOM     23  C   UNL     1       1.618   0.481  -3.572  0.00  0.00    +0.130 A 
ATOM     24  C   UNL     1       2.244   0.760  -2.366  0.00  0.00    +0.046 A 
ATOM     25  C   UNL     1       1.486   1.032  -1.243  0.00  0.00    +0.009 A 
BRANCH  23  26
ATOM     26  O   UNL     1       2.361   0.217  -4.679  0.00  0.00    -0.406 OA
BRANCH  26  27
ATOM     27  C   UNL     1       3.781   0.243  -4.528  0.00  0.00    +0.575 C 
ATOM     28  F   UNL     1       4.167  -0.710  -3.580  0.00  0.00    -0.133 F 
ATOM     29  F   UNL     1       4.386  -0.048  -5.756  0.00  0.00    -0.133 F 
ATOM     30  F   UNL     1       4.182   1.514  -4.101  0.00  0.00    -0.133 F 
ENDBRANCH  26  27
ENDBRANCH  23  26
ENDBRANCH  19  20
ENDBRANCH   1  19
TORSDOF 7
