REMARK  Name = ZINC41569707
REMARK  8 active torsions:
REMARK  status: ('A' for Active; 'I' for Inactive)
REMARK    1  A    between atoms: C_1  and  C_2
REMARK    2  A    between atoms: C_2  and  C_3
REMARK    3  A    between atoms: C_5  and  N_22
REMARK    4  A    between atoms: C_10  and  C_12
REMARK    5  A    between atoms: C_12  and  C_13
REMARK    6  A    between atoms: C_13  and  O_14
REMARK    7  A    between atoms: O_14  and  C_15
REMARK    8  A    between atoms: C_19  and  C_21
REMARK                            x       y       z     vdW  Elec       q    Type
REMARK                         _______ _______ _______ _____ _____    ______ ____
ROOT
ATOM      1  C   UNL     1       0.731  -0.503   1.223  0.00  0.00    -0.044 A 
ATOM      2  C   UNL     1       2.101  -0.708   1.170  0.00  0.00    +0.030 A 
ATOM      3  C   UNL     1       2.784  -1.167   2.285  0.00  0.00    +0.070 A 
ATOM      4  C   UNL     1       2.089  -1.423   3.465  0.00  0.00    +0.176 A 
ATOM      5  C   UNL     1       0.705  -1.214   3.516  0.00  0.00    +0.112 A 
ATOM      6  C   UNL     1       0.032  -0.747   2.384  0.00  0.00    +0.035 A 
ATOM      7  N   UNL     1       0.310  -1.544   4.776  0.00  0.00    -0.213 NA
ATOM      8  C   UNL     1       1.351  -1.924   5.455  0.00  0.00    +0.200 A 
ATOM      9  O   UNL     1       2.452  -1.864   4.690  0.00  0.00    -0.438 OA
ENDROOT
BRANCH   3  10
ATOM     10  N   UNL     1       4.166  -1.373   2.226  0.00  0.00    -0.355 N 
ATOM     11  H   UNL     1       4.648  -1.194   1.403  0.00  0.00    +0.142 HD
ATOM     12  H   UNL     1       4.643  -1.694   3.007  0.00  0.00    +0.142 HD
ENDBRANCH   3  10
BRANCH   1  14
ATOM     13  C   UNL     1      -0.019   1.526   0.010  0.00  0.00    +0.009 C 
ATOM     14  C   UNL     1       0.002  -0.004   0.002  0.00  0.00    +0.032 C 
ENDBRANCH   1  14
BRANCH   8  15
ATOM     15  C   UNL     1       1.325  -2.369   6.894  0.00  0.00    +0.137 C 
BRANCH  15  16
ATOM     16  C   UNL     1       1.096  -3.881   6.957  0.00  0.00    +0.238 C 
BRANCH  16  17
ATOM     17  O   UNL     1       1.071  -4.302   8.322  0.00  0.00    -0.491 OA
BRANCH  17  18
ATOM     18  C   UNL     1       0.876  -5.627   8.555  0.00  0.00    +0.121 A 
ATOM     19  C   UNL     1       0.717  -6.504   7.492  0.00  0.00    +0.045 A 
ATOM     20  C   UNL     1       0.519  -7.849   7.731  0.00  0.00    +0.004 A 
ATOM     21  C   UNL     1       0.479  -8.323   9.030  0.00  0.00    +0.003 A 
ATOM     22  C   UNL     1       0.637  -7.452  10.091  0.00  0.00    -0.047 A 
ATOM     23  C   UNL     1       0.841  -6.105   9.857  0.00  0.00    +0.049 A 
ATOM     24  C   UNL     1       0.593  -7.971  11.505  0.00  0.00    +0.044 C 
ENDBRANCH  17  18
ENDBRANCH  16  17
ENDBRANCH  15  16
ENDBRANCH   8  15
TORSDOF 6
