REMARK  Name = ZINC09429123
REMARK  7 active torsions:
REMARK  status: ('A' for Active; 'I' for Inactive)
REMARK    1  A    between atoms: C_1  and  C_2
REMARK    2  A    between atoms: C_2  and  C_3
REMARK    3  A    between atoms: C_3  and  C_4
REMARK    4  A    between atoms: C_4  and  N_5
REMARK    5  A    between atoms: C_10  and  C_27
REMARK    6  A    between atoms: C_27  and  C_28
REMARK    7  A    between atoms: C_31  and  O_34
REMARK                            x       y       z     vdW  Elec       q    Type
REMARK                         _______ _______ _______ _____ _____    ______ ____
ROOT
ATOM      1  N   UNL     1      -0.461  -5.463  -0.660  0.00  0.00    -0.242 N 
ATOM      2  C   UNL     1       0.641  -4.804  -0.283  0.00  0.00    +0.224 C 
ATOM      3  O   UNL     1       1.030  -4.687   0.859  0.00  0.00    -0.275 OA
ATOM      4  C   UNL     1       1.324  -4.228  -1.502  0.00  0.00    +0.073 C 
ATOM      5  C   UNL     1       1.218  -2.689  -1.467  0.00  0.00    -0.053 C 
ATOM      6  C   UNL     1      -0.179  -3.355  -3.218  0.00  0.00    +0.050 C 
ATOM      7  C   UNL     1       0.399  -4.666  -2.672  0.00  0.00    +0.088 C 
ATOM      8  C   UNL     1      -0.690  -5.452  -1.978  0.00  0.00    +0.225 C 
ATOM      9  O   UNL     1      -1.627  -5.988  -2.530  0.00  0.00    -0.275 OA
ATOM     10  C   UNL     1       0.568  -2.885  -4.434  0.00  0.00    -0.026 A 
ATOM     11  C   UNL     1       1.885  -2.558  -4.669  0.00  0.00    +0.024 A 
ATOM     12  C   UNL     1       2.282  -2.147  -5.930  0.00  0.00    +0.041 A 
ATOM     13  C   UNL     1       1.351  -2.065  -6.952  0.00  0.00    +0.022 A 
ATOM     14  C   UNL     1       0.032  -2.393  -6.720  0.00  0.00    +0.025 A 
ATOM     15  C   UNL     1      -0.375  -2.809  -5.454  0.00  0.00    +0.036 A 
ATOM     16  N   UNL     1      -1.632  -3.191  -4.979  0.00  0.00    -0.286 N 
ATOM     17  C   UNL     1      -1.601  -3.529  -3.676  0.00  0.00    +0.211 C 
ATOM     18  O   UNL     1      -2.538  -3.901  -3.002  0.00  0.00    -0.277 OA
ATOM     19 CL   UNL     1       3.941  -1.735  -6.230  0.00  0.00    -0.084 Cl
ATOM     20  H   UNL     1      -2.434  -3.209  -5.524  0.00  0.00    +0.155 HD
ATOM     21  N   UNL     1      -0.059  -2.404  -2.125  0.00  0.00    +0.394 N 
ATOM     22  H   UNL     1      -0.065  -1.444  -2.488  0.00  0.00    -0.083 HD
ATOM     23  H   UNL     1      -0.834  -2.525  -1.463  0.00  0.00    -0.083 HD
ENDROOT
BRANCH   1  24
ATOM     24  C   UNL     1      -1.342  -6.143   0.292  0.00  0.00    +0.116 C 
BRANCH  24  25
ATOM     25  C   UNL     1      -0.875  -7.588   0.478  0.00  0.00    +0.019 C 
BRANCH  25  27
ATOM     26  C   UNL     1      -1.329  -9.743   1.659  0.00  0.00    +0.004 C 
ATOM     27  C   UNL     1      -1.796  -8.298   1.473  0.00  0.00    -0.002 C 
ENDBRANCH  25  27
ENDBRANCH  24  25
ENDBRANCH   1  24
BRANCH   5  28
ATOM     28  C   UNL     1       1.226  -2.187  -0.022  0.00  0.00    +0.020 C 
BRANCH  28  29
ATOM     29  C   UNL     1       1.208  -0.680  -0.013  0.00  0.00    -0.049 A 
ATOM     30  C   UNL     1       0.002  -0.004   0.002  0.00  0.00    +0.007 A 
ATOM     31  C   UNL     1      -0.017   1.377   0.010  0.00  0.00    +0.045 A 
ATOM     32  C   UNL     1       1.176   2.086   0.002  0.00  0.00    +0.117 A 
ATOM     33  C   UNL     1       2.385   1.405  -0.013  0.00  0.00    +0.045 A 
ATOM     34  C   UNL     1       2.398   0.024  -0.021  0.00  0.00    +0.007 A 
BRANCH  32  35
ATOM     35  O   UNL     1       1.160   3.445   0.009  0.00  0.00    -0.507 OA
ATOM     36  H   UNL     1       1.164   3.834   0.894  0.00  0.00    +0.292 HD
ENDBRANCH  32  35
ENDBRANCH  28  29
ENDBRANCH   5  28
TORSDOF 6
