REMARK  Name = ZINC13333976
REMARK  14 active torsions:
REMARK  status: ('A' for Active; 'I' for Inactive)
REMARK    1  A    between atoms: C_1  and  C_2
REMARK    2  A    between atoms: C_8  and  C_33
REMARK    3  A    between atoms: C_8  and  C_34
REMARK    4  A    between atoms: C_9  and  C_10
REMARK    5  A    between atoms: C_9  and  O_32
REMARK    6  A    between atoms: C_11  and  C_12
REMARK    7  A    between atoms: C_12  and  C_14
REMARK    8  A    between atoms: C_12  and  O_15
REMARK    9  A    between atoms: O_15  and  C_16
REMARK   10  A    between atoms: C_18  and  O_31
REMARK   11  A    between atoms: C_20  and  O_30
REMARK   12  A    between atoms: C_22  and  O_29
REMARK   13  A    between atoms: C_24  and  C_27
REMARK   14  A    between atoms: C_27  and  O_28
REMARK                            x       y       z     vdW  Elec       q    Type
REMARK                         _______ _______ _______ _____ _____    ______ ____
ROOT
ATOM      1  C   UNL     1       0.130   1.359   4.539  0.00  0.00    +0.141 C 
ATOM      2  C   UNL     1       0.869   0.853   5.779  0.00  0.00    +0.042 C 
ENDROOT
BRANCH   1   4
ATOM      3  C   UNL     1       0.090   0.050   2.478  0.00  0.00    +0.006 C 
ATOM      4  C   UNL     1       0.782   0.798   3.301  0.00  0.00    +0.002 C 
BRANCH   3  12
ATOM      5  C   UNL     1      -0.019   1.526   0.010  0.00  0.00    +0.011 C 
ATOM      6  C   UNL     1       0.002  -0.004   0.002  0.00  0.00    +0.029 C 
ATOM      7  C   UNL     1       0.720  -0.498  -1.258  0.00  0.00    +0.080 C 
ATOM      8  C   UNL     1       0.846  -2.004  -1.180  0.00  0.00    +0.134 C 
ATOM      9  O   UNL     1       0.487  -2.704  -2.096  0.00  0.00    -0.297 OA
ATOM     10  C   UNL     1       1.435  -2.610   0.074  0.00  0.00    +0.083 C 
ATOM     11  C   UNL     1       0.691  -2.039   1.286  0.00  0.00    +0.004 C 
ATOM     12  C   UNL     1       0.742  -0.511   1.241  0.00  0.00    +0.093 C 
ATOM     13  C   UNL     1      -0.767  -2.502   1.255  0.00  0.00    +0.014 C 
ATOM     14  C   UNL     1       1.356  -2.534   2.573  0.00  0.00    +0.014 C 
BRANCH  12  15
ATOM     15  O   UNL     1       2.105  -0.083   1.188  0.00  0.00    -0.384 OA
ATOM     16  H   UNL     1       2.215   0.877   1.163  0.00  0.00    +0.211 HD
ENDBRANCH  12  15
ENDBRANCH   3  12
ENDBRANCH   1   4
BRANCH   1  17
ATOM     17  O   UNL     1       0.185   2.787   4.501  0.00  0.00    -0.342 OA
BRANCH  17  18
ATOM     18  C   UNL     1      -0.902   3.428   5.172  0.00  0.00    +0.282 C 
ATOM     19  C   UNL     1      -0.881   4.927   4.861  0.00  0.00    +0.201 C 
ATOM     20  C   UNL     1      -2.012   5.616   5.631  0.00  0.00    +0.179 C 
ATOM     21  C   UNL     1      -1.844   5.330   7.127  0.00  0.00    +0.177 C 
ATOM     22  C   UNL     1      -1.828   3.816   7.350  0.00  0.00    +0.178 C 
ATOM     23  O   UNL     1      -0.773   3.233   6.582  0.00  0.00    -0.341 OA
BRANCH  21  24
ATOM     24  O   UNL     1      -0.615   5.895   7.586  0.00  0.00    -0.386 OA
ATOM     25  H   UNL     1      -0.554   6.853   7.471  0.00  0.00    +0.210 HD
ENDBRANCH  21  24
BRANCH  20  26
ATOM     26  O   UNL     1      -1.955   7.025   5.403  0.00  0.00    -0.386 OA
ATOM     27  H   UNL     1      -2.049   7.277   4.474  0.00  0.00    +0.210 HD
ENDBRANCH  20  26
BRANCH  19  28
ATOM     28  O   UNL     1       0.375   5.479   5.259  0.00  0.00    -0.384 OA
ATOM     29  H   UNL     1       1.137   5.085   4.813  0.00  0.00    +0.210 HD
ENDBRANCH  19  28
BRANCH  22  30
ATOM     30  C   UNL     1      -1.601   3.521   8.834  0.00  0.00    +0.190 C 
BRANCH  30  31
ATOM     31  O   UNL     1      -1.702   2.114   9.062  0.00  0.00    -0.392 OA
ATOM     32  H   UNL     1      -1.569   1.854   9.983  0.00  0.00    +0.210 HD
ENDBRANCH  30  31
ENDBRANCH  22  30
ENDBRANCH  17  18
ENDBRANCH   1  17
TORSDOF 10
