REMARK  Name = ZINC13357354
REMARK  8 active torsions:
REMARK  status: ('A' for Active; 'I' for Inactive)
REMARK    1  A    between atoms: C_1  and  C_2
REMARK    2  A    between atoms: C_2  and  C_3
REMARK    3  A    between atoms: C_3  and  N_4
REMARK    4  A    between atoms: C_5  and  C_7
REMARK    5  A    between atoms: C_13  and  C_15
REMARK    6  A    between atoms: C_19  and  N_21
REMARK    7  A    between atoms: N_21  and  S_22
REMARK    8  A    between atoms: S_22  and  C_25
REMARK                            x       y       z     vdW  Elec       q    Type
REMARK                         _______ _______ _______ _____ _____    ______ ____
ROOT
ATOM      1  C   UNL     1      -1.227   1.750   0.000  0.00  0.00    +0.039 A 
ATOM      2  C   UNL     1      -0.045   1.109  -0.373  0.00  0.00    +0.013 A 
ATOM      3  C   UNL     1       1.143   1.810  -0.396  0.00  0.00    +0.003 A 
ATOM      4  C   UNL     1       1.169   3.147  -0.045  0.00  0.00    +0.024 A 
ATOM      5  C   UNL     1      -0.001   3.793   0.333  0.00  0.00    +0.049 A 
ATOM      6  C   UNL     1      -1.200   3.098   0.360  0.00  0.00    +0.037 A 
ENDROOT
BRANCH   1  13
ATOM      7  C   UNL     1      -2.930  -2.316   2.401  0.00  0.00    +0.078 C 
ATOM      8  C   UNL     1      -4.128  -1.566   1.814  0.00  0.00    +0.032 C 
ATOM      9  C   UNL     1      -3.769  -1.055   0.415  0.00  0.00    +0.109 C 
ATOM     10  N   UNL     1      -2.541  -0.253   0.506  0.00  0.00    -0.297 N 
ATOM     11  C   UNL     1      -1.352  -0.850   1.132  0.00  0.00    +0.109 C 
ATOM     12  C   UNL     1      -1.740  -1.362   2.527  0.00  0.00    +0.032 C 
ATOM     13  C   UNL     1      -2.503   1.003   0.019  0.00  0.00    +0.247 C 
ATOM     14  O   UNL     1      -3.518   1.522  -0.404  0.00  0.00    -0.270 OA
BRANCH   7  16
ATOM     15  N   UNL     1      -2.385  -3.550   4.475  0.00  0.00    -0.315 N 
ATOM     16  C   UNL     1      -3.291  -2.850   3.764  0.00  0.00    +0.216 C 
ATOM     17  O   UNL     1      -4.397  -2.651   4.219  0.00  0.00    -0.276 OA
ATOM     18  H   UNL     1      -1.500  -3.709   4.111  0.00  0.00    +0.149 HD
BRANCH  15  19
ATOM     19  C   UNL     1      -2.736  -4.069   5.799  0.00  0.00    +0.104 C 
BRANCH  19  21
ATOM     20  C   UNL     1      -1.905  -5.361   7.770  0.00  0.00    +0.005 C 
ATOM     21  C   UNL     1      -1.538  -4.819   6.387  0.00  0.00    +0.015 C 
ENDBRANCH  19  21
ENDBRANCH  15  19
ENDBRANCH   7  16
ENDBRANCH   1  13
BRANCH   5  22
ATOM     22  N   UNL     1       0.031   5.145   0.686  0.00  0.00    -0.216 N 
ATOM     23  H   UNL     1      -0.444   5.451   1.475  0.00  0.00    +0.174 HD
BRANCH  22  24
ATOM     24  S   UNL     1       0.878   6.224  -0.241  0.00  0.00    +0.072 S 
ATOM     25  O   UNL     1       0.697   7.501   0.354  0.00  0.00    -0.150 OA
ATOM     26  O   UNL     1       2.164   5.656  -0.451  0.00  0.00    -0.150 OA
BRANCH  24  27
ATOM     27  C   UNL     1       0.092   6.286  -1.817  0.00  0.00    +0.109 A 
ATOM     28  C   UNL     1       0.490   5.429  -2.826  0.00  0.00    +0.029 A 
ATOM     29  C   UNL     1      -0.132   5.481  -4.055  0.00  0.00    +0.006 A 
ATOM     30  C   UNL     1      -1.149   6.397  -4.293  0.00  0.00    -0.044 A 
ATOM     31  C   UNL     1      -1.545   7.253  -3.289  0.00  0.00    -0.042 A 
ATOM     32  C   UNL     1      -0.920   7.194  -2.050  0.00  0.00    +0.032 A 
ATOM     33  C   UNL     1      -2.646   8.264  -3.472  0.00  0.00    +0.035 C 
ATOM     34  C   UNL     1      -2.919   8.497  -4.957  0.00  0.00    +0.005 C 
ATOM     35  C   UNL     1      -3.120   7.135  -5.632  0.00  0.00    +0.005 C 
ATOM     36  C   UNL     1      -1.776   6.410  -5.663  0.00  0.00    +0.035 C 
ENDBRANCH  24  27
ENDBRANCH  22  24
ENDBRANCH   5  22
TORSDOF 7
