REMARK  Name = ZINC40308904
REMARK  9 active torsions:
REMARK  status: ('A' for Active; 'I' for Inactive)
REMARK    1  A    between atoms: C_1  and  C_2
REMARK    2  A    between atoms: C_7  and  C_8
REMARK    3  A    between atoms: N_9  and  C_14
REMARK    4  A    between atoms: C_10  and  C_12
REMARK    5  A    between atoms: C_12  and  O_13
REMARK    6  A    between atoms: C_14  and  C_15
REMARK    7  A    between atoms: N_17  and  C_18
REMARK    8  A    between atoms: N_17  and  C_25
REMARK    9  A    between atoms: C_18  and  C_19
REMARK                            x       y       z     vdW  Elec       q    Type
REMARK                         _______ _______ _______ _____ _____    ______ ____
ROOT
ATOM      1  C   UNL     1      -1.559  -5.639   0.943  0.00  0.00    +0.236 C 
ATOM      2  O   UNL     1      -0.506  -5.228   0.504  0.00  0.00    -0.274 OA
ATOM      3  N   UNL     1      -1.565  -6.552   1.935  0.00  0.00    -0.293 N 
ENDROOT
BRANCH   3   4
ATOM      4  C   UNL     1      -0.305  -6.959   2.563  0.00  0.00    +0.076 C 
ATOM      5  C   UNL     1       0.424  -5.723   3.093  0.00  0.00    +0.022 C 
ATOM      6  C   UNL     1       1.739  -6.148   3.749  0.00  0.00    +0.002 C 
ATOM      7  C   UNL     1       2.619  -6.855   2.716  0.00  0.00    +0.000 C 
ATOM      8  C   UNL     1       1.890  -8.091   2.185  0.00  0.00    +0.002 C 
ATOM      9  C   UNL     1       0.575  -7.666   1.530  0.00  0.00    +0.022 C 
ENDBRANCH   3   4
BRANCH   1  10
ATOM     10  C   UNL     1      -2.861  -5.131   0.380  0.00  0.00    +0.219 C 
BRANCH  10  19
ATOM     11  C   UNL     1      -1.633  -3.670  -6.117  0.00  0.00    +0.044 C 
ATOM     12  C   UNL     1      -1.895  -3.855  -4.644  0.00  0.00    -0.045 A 
ATOM     13  C   UNL     1      -1.921  -2.765  -3.820  0.00  0.00    +0.033 A 
ATOM     14  C   UNL     1      -2.165  -2.931  -2.454  0.00  0.00    +0.090 A 
ATOM     15  C   UNL     1      -2.382  -4.222  -1.943  0.00  0.00    +0.070 A 
ATOM     16  C   UNL     1      -2.352  -5.317  -2.795  0.00  0.00    +0.031 A 
ATOM     17  C   UNL     1      -2.115  -5.128  -4.140  0.00  0.00    -0.045 A 
ATOM     18  C   UNL     1      -2.088  -6.315  -5.069  0.00  0.00    +0.044 C 
ATOM     19  N   UNL     1      -2.591  -4.064  -0.587  0.00  0.00    -0.317 N 
ATOM     20  C   UNL     1      -2.500  -2.734  -0.316  0.00  0.00    +0.137 A 
ATOM     21  N   UNL     1      -2.251  -2.071  -1.407  0.00  0.00    -0.230 NA
BRANCH  20  22
ATOM     22  C   UNL     1      -2.664  -2.118   1.050  0.00  0.00    +0.230 C 
BRANCH  22  23
ATOM     23  O   UNL     1      -1.393  -2.059   1.701  0.00  0.00    -0.387 OA
ATOM     24  H   UNL     1      -1.423  -1.673   2.587  0.00  0.00    +0.210 HD
ENDBRANCH  22  23
ENDBRANCH  20  22
ENDBRANCH  10  19
ENDBRANCH   1  10
BRANCH   3  25
ATOM     25  C   UNL     1      -2.830  -7.137   2.385  0.00  0.00    +0.143 C 
BRANCH  25  26
ATOM     26  C   UNL     1      -3.044  -8.461   1.697  0.00  0.00    -0.030 A 
ATOM     27  C   UNL     1      -3.634  -8.503   0.448  0.00  0.00    +0.005 A 
ATOM     28  C   UNL     1      -3.831  -9.717  -0.183  0.00  0.00    +0.000 A 
ATOM     29  C   UNL     1      -3.437 -10.889   0.436  0.00  0.00    +0.000 A 
ATOM     30  C   UNL     1      -2.846 -10.847   1.685  0.00  0.00    +0.000 A 
ATOM     31  C   UNL     1      -2.646  -9.632   2.314  0.00  0.00    +0.005 A 
ENDBRANCH  25  26
ENDBRANCH   3  25
TORSDOF 7
