REMARK  Name = ZINC22607027
REMARK  5 active torsions:
REMARK  status: ('A' for Active; 'I' for Inactive)
REMARK    1  A    between atoms: C_1  and  C_2
REMARK    2  A    between atoms: C_2  and  C_3
REMARK    3  A    between atoms: C_3  and  O_4
REMARK    4  A    between atoms: O_4  and  C_5
REMARK    5  A    between atoms: C_8  and  C_11
REMARK                            x       y       z     vdW  Elec       q    Type
REMARK                         _______ _______ _______ _____ _____    ______ ____
ROOT
ATOM      1  C   UNL     1       3.240  -4.426  -5.648  0.00  0.00    +0.092 C 
ATOM      2  C   UNL     1       2.233  -5.268  -6.374  0.00  0.00    +0.069 A 
ATOM      3  C   UNL     1       2.208  -6.619  -6.218  0.00  0.00    +0.112 A 
ATOM      4  N   UNL     1       1.268  -7.354  -6.891  0.00  0.00    -0.315 N 
ATOM      5  H   UNL     1       1.241  -8.318  -6.786  0.00  0.00    +0.170 HD
ATOM      6  C   UNL     1       0.373  -6.734  -7.708  0.00  0.00    +0.200 A 
ATOM      7  N   UNL     1       0.389  -5.428  -7.870  0.00  0.00    -0.177 NA
ATOM      8  C   UNL     1       1.290  -4.664  -7.234  0.00  0.00    +0.280 A 
ATOM      9  O   UNL     1       1.293  -3.452  -7.396  0.00  0.00    -0.265 OA
ATOM     10  N   UNL     1      -0.561  -7.483  -8.374  0.00  0.00    -0.301 N 
ATOM     11  C   UNL     1      -1.612  -6.834  -9.169  0.00  0.00    +0.108 C 
ATOM     12  C   UNL     1      -1.590  -7.418 -10.585  0.00  0.00    +0.019 C 
ATOM     13  C   UNL     1      -1.711  -8.942 -10.507  0.00  0.00    +0.003 C 
ATOM     14  C   UNL     1      -0.521  -9.510  -9.731  0.00  0.00    +0.019 C 
ATOM     15  C   UNL     1      -0.527  -8.951  -8.310  0.00  0.00    +0.108 C 
ATOM     16  N   UNL     1       3.119  -7.237  -5.395  0.00  0.00    -0.304 N 
ATOM     17  C   UNL     1       4.277  -6.602  -5.035  0.00  0.00    +0.017 C 
ATOM     18  C   UNL     1       4.385  -5.262  -5.136  0.00  0.00    +0.024 C 
ATOM     19  C   UNL     1       5.570  -4.603  -4.764  0.00  0.00    +0.162 C 
ATOM     20  O   UNL     1       5.642  -3.396  -4.882  0.00  0.00    -0.292 OA
ATOM     21  C   UNL     1       6.749  -5.364  -4.223  0.00  0.00    +0.080 C 
ATOM     22  C   UNL     1       6.246  -6.632  -3.525  0.00  0.00    +0.014 C 
ATOM     23  C   UNL     1       5.425  -7.439  -4.527  0.00  0.00    +0.051 C 
ATOM     24  H   UNL     1       2.940  -8.132  -5.067  0.00  0.00    +0.153 HD
ENDROOT
BRANCH   1  28
ATOM     25  C   UNL     1       1.332  -2.496  -2.347  0.00  0.00    +0.121 A 
ATOM     26  C   UNL     1       1.909  -1.738  -3.356  0.00  0.00    +0.046 A 
ATOM     27  C   UNL     1       2.525  -2.364  -4.422  0.00  0.00    +0.008 A 
ATOM     28  C   UNL     1       2.567  -3.745  -4.484  0.00  0.00    -0.035 A 
ATOM     29  C   UNL     1       1.993  -4.502  -3.480  0.00  0.00    +0.008 A 
ATOM     30  C   UNL     1       1.380  -3.881  -2.409  0.00  0.00    +0.046 A 
BRANCH  25  31
ATOM     31  O   UNL     1       0.725  -1.882  -1.297  0.00  0.00    -0.492 OA
BRANCH  31  32
ATOM     32  C   UNL     1       0.713  -0.453  -1.300  0.00  0.00    +0.229 C 
BRANCH  32  34
ATOM     33  C   UNL     1      -0.021   1.583  -0.052  0.00  0.00    +0.007 C 
ATOM     34  C   UNL     1      -0.008   0.053  -0.049  0.00  0.00    +0.038 C 
ENDBRANCH  32  34
ENDBRANCH  31  32
ENDBRANCH  25  31
ENDBRANCH   1  28
TORSDOF 4
