REMARK  Name = ZINC62323748
REMARK  2 active torsions:
REMARK  status: ('A' for Active; 'I' for Inactive)
REMARK    1  A    between atoms: C_1  and  C_2
REMARK    2  A    between atoms: C_8  and  N_10
REMARK                            x       y       z     vdW  Elec       q    Type
REMARK                         _______ _______ _______ _____ _____    ______ ____
ROOT
ATOM      1  N   UNL     1       0.056  -0.038   2.447  0.00  0.00    -0.313 N 
ATOM      2  C   UNL     1       0.752   0.096   3.626  0.00  0.00    +0.205 C 
ATOM      3  N   UNL     1       2.010  -0.205   3.608  0.00  0.00    -0.097 NA
ATOM      4  S   UNL     1       2.933  -0.087   4.980  0.00  0.00    +0.103 S 
ATOM      5  O   UNL     1       3.633   1.147   4.899  0.00  0.00    -0.146 OA
ATOM      6  O   UNL     1       3.597  -1.334   5.136  0.00  0.00    -0.146 OA
ATOM      7  C   UNL     1       1.794   0.061   6.319  0.00  0.00    +0.136 A 
ATOM      8  C   UNL     1       2.208  -0.112   7.620  0.00  0.00    +0.069 A 
ATOM      9  C   UNL     1       1.294   0.006   8.655  0.00  0.00    +0.125 A 
ATOM     10  C   UNL     1      -0.031   0.296   8.378  0.00  0.00    +0.040 A 
ATOM     11  C   UNL     1      -0.447   0.471   7.073  0.00  0.00    +0.028 A 
ATOM     12  C   UNL     1       0.466   0.354   6.032  0.00  0.00    +0.061 A 
ATOM     13  N   UNL     1       0.059   0.539   4.710  0.00  0.00    -0.285 N 
ATOM     14  F   UNL     1       1.696  -0.162   9.934  0.00  0.00    -0.205 F 
ATOM     15  H   UNL     1      -0.888   0.180   2.413  0.00  0.00    +0.149 HD
ATOM     16  H   UNL     1      -0.773   1.011   4.553  0.00  0.00    +0.155 HD
ENDROOT
BRANCH   1  23
ATOM     17  C   UNL     1      -0.019   1.526   0.010  0.00  0.00    +0.009 C 
ATOM     18  C   UNL     1       0.002  -0.004   0.002  0.00  0.00    +0.006 C 
ATOM     19  C   UNL     1       0.718  -0.497  -1.257  0.00  0.00    +0.005 C 
ATOM     20  C   UNL     1       0.739  -2.027  -1.265  0.00  0.00    +0.000 C 
ATOM     21  C   UNL     1       1.479  -2.534  -0.026  0.00  0.00    +0.002 C 
ATOM     22  C   UNL     1       0.763  -2.041   1.233  0.00  0.00    +0.022 C 
ATOM     23  C   UNL     1       0.742  -0.511   1.242  0.00  0.00    +0.076 C 
ENDBRANCH   1  23
TORSDOF 1
