REMARK  Name = ZINC32774223
REMARK  8 active torsions:
REMARK  status: ('A' for Active; 'I' for Inactive)
REMARK    1  A    between atoms: C_1  and  C_2
REMARK    2  A    between atoms: C_2  and  C_4
REMARK    3  A    between atoms: C_2  and  S_17
REMARK    4  A    between atoms: N_6  and  C_7
REMARK    5  A    between atoms: C_11  and  S_13
REMARK    6  A    between atoms: S_13  and  N_16
REMARK    7  A    between atoms: S_17  and  C_18
REMARK    8  A    between atoms: C_18  and  C_19
REMARK                            x       y       z     vdW  Elec       q    Type
REMARK                         _______ _______ _______ _____ _____    ______ ____
ROOT
ATOM      1  C   UNL     1      -3.754  -2.600  -2.877  0.00  0.00    +0.230 C 
ATOM      2  O   UNL     1      -3.062  -2.519  -3.870  0.00  0.00    -0.274 OA
ATOM      3  N   UNL     1      -5.058  -2.925  -2.988  0.00  0.00    -0.285 N 
ATOM      4  H   UNL     1      -5.667  -3.072  -2.084  0.00  0.00    +0.155 HD
ENDROOT
BRANCH   3   5
ATOM      5  C   UNL     1      -5.636  -3.074  -4.253  0.00  0.00    +0.035 A 
ATOM      6  C   UNL     1      -4.893  -3.606  -5.300  0.00  0.00    +0.023 A 
ATOM      7  C   UNL     1      -5.466  -3.752  -6.547  0.00  0.00    +0.004 A 
ATOM      8  C   UNL     1      -6.779  -3.370  -6.756  0.00  0.00    +0.028 A 
ATOM      9  C   UNL     1      -7.521  -2.840  -5.716  0.00  0.00    +0.107 A 
ATOM     10  C   UNL     1      -6.955  -2.696  -4.464  0.00  0.00    +0.051 A 
BRANCH   9  11
ATOM     11  S   UNL     1      -9.194  -2.355  -5.987  0.00  0.00    +0.056 S 
ATOM     12  O   UNL     1      -9.500  -1.384  -4.995  0.00  0.00    -0.153 OA
ATOM     13  O   UNL     1      -9.320  -2.090  -7.377  0.00  0.00    -0.153 OA
BRANCH  11  14
ATOM     14  N   UNL     1     -10.143  -3.673  -5.668  0.00  0.00    -0.204 NA
ATOM     15  H   UNL     1     -11.200  -3.411  -5.826  0.00  0.00    +0.144 HD
ATOM     16  H   UNL     1      -9.996  -3.988  -4.624  0.00  0.00    +0.144 HD
ENDBRANCH  11  14
ENDBRANCH   9  11
ENDBRANCH   3   5
BRANCH   1  18
ATOM     17  C   UNL     1      -2.729  -3.661  -0.884  0.00  0.00    +0.029 C 
ATOM     18  C   UNL     1      -3.156  -2.336  -1.519  0.00  0.00    +0.130 C 
BRANCH  18  19
ATOM     19  S   UNL     1      -1.710  -1.256  -1.694  0.00  0.00    -0.141 S 
BRANCH  19  20
ATOM     20  C   UNL     1      -1.207  -0.916   0.015  0.00  0.00    +0.144 C 
BRANCH  20  21
ATOM     21  C   UNL     1       0.002  -0.015   0.013  0.00  0.00    +0.115 A 
ATOM     22  C   UNL     1      -0.019   1.329   0.030  0.00  0.00    +0.045 A 
ATOM     23  C   UNL     1       1.328   1.760   0.020  0.00  0.00    +0.041 A 
ATOM     24  C   UNL     1       2.091   0.652  -0.002  0.00  0.00    +0.195 A 
ATOM     25  O   UNL     1       1.282  -0.420  -0.006  0.00  0.00    -0.467 OA
ENDBRANCH  20  21
ENDBRANCH  19  20
ENDBRANCH  18  19
ENDBRANCH   1  18
TORSDOF 7
