REMARK  Name = ZINC53006506
REMARK  5 active torsions:
REMARK  status: ('A' for Active; 'I' for Inactive)
REMARK    1  A    between atoms: C_1  and  C_2
REMARK    2  A    between atoms: C_5  and  N_17
REMARK    3  A    between atoms: C_6  and  C_8
REMARK    4  A    between atoms: C_13  and  C_16
REMARK    5  A    between atoms: N_17  and  N_18
REMARK                            x       y       z     vdW  Elec       q    Type
REMARK                         _______ _______ _______ _____ _____    ______ ____
ROOT
ATOM      1  C   UNL     1       0.029   1.479   0.359  0.00  0.00    +0.044 C 
ATOM      2  C   UNL     1       0.025  -0.016   0.169  0.00  0.00    -0.050 A 
ATOM      3  C   UNL     1       0.015  -0.548  -1.111  0.00  0.00    +0.005 A 
ATOM      4  C   UNL     1       0.012  -1.915  -1.300  0.00  0.00    +0.025 A 
ATOM      5  C   UNL     1       0.018  -2.769  -0.203  0.00  0.00    +0.053 A 
ATOM      6  C   UNL     1       0.027  -2.233   1.094  0.00  0.00    +0.059 A 
ATOM      7  C   UNL     1       0.036  -0.847   1.268  0.00  0.00    +0.018 A 
ENDROOT
BRANCH   6   8
ATOM      8  C   UNL     1       0.033  -3.127   2.265  0.00  0.00    +0.252 C 
ATOM      9  O   UNL     1       0.129  -4.330   2.112  0.00  0.00    -0.270 OA
ATOM     10  N   UNL     1      -0.069  -2.612   3.507  0.00  0.00    -0.261 N 
ATOM     11  C   UNL     1      -0.064  -3.455   4.611  0.00  0.00    +0.165 A 
ATOM     12  N   UNL     1      -0.158  -3.136   5.884  0.00  0.00    -0.230 NA
ATOM     13  C   UNL     1      -0.137  -4.063   6.823  0.00  0.00    +0.047 A 
ATOM     14  C   UNL     1      -0.016  -5.351   6.416  0.00  0.00    +0.071 A 
ATOM     15  S   UNL     1       0.058  -5.134   4.645  0.00  0.00    -0.060 S 
ATOM     16  C   UNL     1      -0.244  -3.707   8.283  0.00  0.00    +0.066 C 
ATOM     17  H   UNL     1      -0.145  -1.653   3.629  0.00  0.00    +0.157 HD
ENDBRANCH   6   8
BRANCH   5  18
ATOM     18  N   UNL     1       0.014  -4.145  -0.391  0.00  0.00    -0.282 N 
ATOM     19  H   UNL     1       0.098  -4.738   0.372  0.00  0.00    +0.166 HD
BRANCH  18  20
ATOM     20  N   UNL     1      -0.109  -4.663  -1.649  0.00  0.00    -0.256 NA
ATOM     21  H   UNL     1      -0.096  -5.672  -1.627  0.00  0.00    +0.140 HD
ATOM     22  H   UNL     1      -0.944  -4.322  -2.100  0.00  0.00    +0.140 HD
ENDBRANCH  18  20
ENDBRANCH   5  18
TORSDOF 3
