REMARK  Name = ZINC51729512
REMARK  8 active torsions:
REMARK  status: ('A' for Active; 'I' for Inactive)
REMARK    1  A    between atoms: C_1  and  C_2
REMARK    2  A    between atoms: C_2  and  C_3
REMARK    3  A    between atoms: C_3  and  C_5
REMARK    4  A    between atoms: C_3  and  N_23
REMARK    5  A    between atoms: C_5  and  C_7
REMARK    6  A    between atoms: C_5  and  N_13
REMARK    7  A    between atoms: C_16  and  C_22
REMARK    8  A    between atoms: C_19  and  C_21
REMARK                            x       y       z     vdW  Elec       q    Type
REMARK                         _______ _______ _______ _____ _____    ______ ____
ROOT
ATOM      1  C   UNL     1       0.364  -1.778  -1.613  0.00  0.00    -0.045 C 
ENDROOT
BRANCH   1   2
ATOM      2  N   UNL     1      -1.038  -1.906  -1.194  0.00  0.00    +0.385 N 
ATOM      3  C   UNL     1      -1.457  -3.307  -1.318  0.00  0.00    -0.077 C 
ATOM      4  C   UNL     1      -2.940  -3.433  -0.961  0.00  0.00    -0.015 C 
ATOM      5  C   UNL     1      -3.154  -2.960   0.480  0.00  0.00    -0.017 C 
ATOM      6  C   UNL     1      -2.645  -1.522   0.615  0.00  0.00    -0.012 C 
ATOM      7  C   UNL     1      -1.173  -1.467   0.200  0.00  0.00    -0.071 C 
ATOM      8  C   UNL     1      -0.659  -0.032   0.334  0.00  0.00    -0.013 C 
ATOM      9  C   UNL     1      -4.646  -3.010   0.818  0.00  0.00    +0.007 C 
ATOM     10  H   UNL     1      -1.619  -1.330  -1.785  0.00  0.00    -0.081 HD
ENDBRANCH   1   2
BRANCH   1  11
ATOM     11  C   UNL     1       1.242  -2.570  -0.679  0.00  0.00    -0.024 A 
ATOM     12  C   UNL     1       2.306  -2.155   0.051  0.00  0.00    +0.010 A 
ATOM     13  C   UNL     1       2.970  -3.068   0.849  0.00  0.00    +0.023 A 
ATOM     14  C   UNL     1       2.536  -4.353   0.877  0.00  0.00    +0.055 A 
ATOM     15  S   UNL     1       1.145  -4.298  -0.240  0.00  0.00    -0.088 S 
ATOM     16 BR   UNL     1       3.221  -5.820   1.854  0.00  0.00    -0.043 Br
ENDBRANCH   1  11
BRANCH   1  17
ATOM     17  C   UNL     1       0.522  -2.312  -3.038  0.00  0.00    -0.085 C 
BRANCH  17  18
ATOM     18  N   UNL     1       1.901  -2.089  -3.494  0.00  0.00    +0.379 N 
ATOM     19  H   UNL     1       2.540  -2.572  -2.881  0.00  0.00    -0.090 HD
ATOM     20  H   UNL     1       2.005  -2.441  -4.434  0.00  0.00    -0.090 HD
ATOM     21  H   UNL     1       2.103  -1.101  -3.481  0.00  0.00    -0.090 HD
ENDBRANCH  17  18
BRANCH  17  23
ATOM     22  C   UNL     1      -0.336  -2.159  -5.379  0.00  0.00    +0.002 C 
ATOM     23  C   UNL     1      -0.448  -1.580  -3.967  0.00  0.00    -0.021 C 
ENDBRANCH  17  23
ENDBRANCH   1  17
TORSDOF 5
