REMARK  Name = ZINC40034100
REMARK  6 active torsions:
REMARK  status: ('A' for Active; 'I' for Inactive)
REMARK    1  A    between atoms: C_1  and  N_2
REMARK    2  A    between atoms: C_3  and  C_5
REMARK    3  A    between atoms: C_5  and  S_6
REMARK    4  A    between atoms: S_6  and  C_7
REMARK    5  A    between atoms: C_11  and  C_20
REMARK    6  A    between atoms: N_12  and  C_13
REMARK                            x       y       z     vdW  Elec       q    Type
REMARK                         _______ _______ _______ _____ _____    ______ ____
ROOT
ATOM      1  C   UNL     1      -2.369  -4.295  -0.080  0.00  0.00    +0.241 C 
ATOM      2  N   UNL     1      -1.627  -4.944  -1.174  0.00  0.00    -0.237 N 
ATOM      3  N   UNL     1      -0.835  -5.936  -0.583  0.00  0.00    -0.169 NA
ATOM      4  C   UNL     1      -1.004  -5.969   0.713  0.00  0.00    +0.151 C 
ATOM      5  N   UNL     1      -1.927  -5.003   1.132  0.00  0.00    -0.254 N 
ATOM      6  H   UNL     1      -1.676  -4.727  -2.118  0.00  0.00    +0.171 HD
ENDROOT
BRANCH   4   7
ATOM      7  C   UNL     1      -0.344  -6.859   1.574  0.00  0.00    +0.022 C 
ATOM      8  C   UNL     1       0.505  -7.906   1.216  0.00  0.00    +0.006 A 
ATOM      9  C   UNL     1       0.952  -8.386  -0.034  0.00  0.00    +0.010 A 
ATOM     10  C   UNL     1       1.797  -9.448  -0.084  0.00  0.00    +0.001 A 
ATOM     11  C   UNL     1       2.241 -10.086   1.076  0.00  0.00    +0.002 A 
ATOM     12  C   UNL     1       1.852  -9.678   2.309  0.00  0.00    +0.026 A 
ATOM     13  C   UNL     1       0.970  -8.575   2.442  0.00  0.00    +0.043 A 
ATOM     14  N   UNL     1       0.454  -7.994   3.508  0.00  0.00    -0.380 N 
ATOM     15  C   UNL     1      -0.400  -6.880   3.086  0.00  0.00    +0.152 C 
ATOM     16  H   UNL     1       0.616  -8.261   4.426  0.00  0.00    +0.160 HD
ENDBRANCH   4   7
BRANCH   5  17
ATOM     17  C   UNL     1      -2.346  -4.758   2.443  0.00  0.00    +0.038 A 
ATOM     18  C   UNL     1      -1.611  -3.911   3.262  0.00  0.00    +0.025 A 
ATOM     19  C   UNL     1      -2.028  -3.670   4.556  0.00  0.00    +0.022 A 
ATOM     20  C   UNL     1      -3.177  -4.272   5.038  0.00  0.00    +0.041 A 
ATOM     21  C   UNL     1      -3.912  -5.117   4.224  0.00  0.00    +0.022 A 
ATOM     22  C   UNL     1      -3.503  -5.356   2.927  0.00  0.00    +0.025 A 
ATOM     23 CL   UNL     1      -3.698  -3.968   6.665  0.00  0.00    -0.084 Cl
ENDBRANCH   5  17
BRANCH   1  24
ATOM     24  S   UNL     1      -1.940  -2.535   0.021  0.00  0.00    -0.108 S 
BRANCH  24  25
ATOM     25  C   UNL     1      -0.139  -2.534   0.233  0.00  0.00    +0.168 C 
BRANCH  25  28
ATOM     26  C   UNL     1       2.149   0.515   0.591  0.00  0.00    +0.128 C 
ATOM     27  N   UNL     1       1.669  -0.866   0.495  0.00  0.00    -0.318 N 
ATOM     28  C   UNL     1       0.354  -1.113   0.332  0.00  0.00    +0.223 C 
ATOM     29  O   UNL     1      -0.432  -0.193   0.266  0.00  0.00    -0.275 OA
ATOM     30  H   UNL     1       2.298  -1.603   0.548  0.00  0.00    +0.148 HD
ENDBRANCH  25  28
ENDBRANCH  24  25
ENDBRANCH   1  24
TORSDOF 5
