REMARK  Name = ZINC33128702
REMARK  7 active torsions:
REMARK  status: ('A' for Active; 'I' for Inactive)
REMARK    1  A    between atoms: C_1  and  C_2
REMARK    2  A    between atoms: C_5  and  C_8
REMARK    3  A    between atoms: C_16  and  N_19
REMARK    4  A    between atoms: N_22  and  C_23
REMARK    5  A    between atoms: C_24  and  C_32
REMARK    6  A    between atoms: C_32  and  O_34
REMARK    7  A    between atoms: O_34  and  C_35
REMARK                            x       y       z     vdW  Elec       q    Type
REMARK                         _______ _______ _______ _____ _____    ______ ____
ROOT
ATOM      1  N   UNL     1      -3.426   2.906   0.062  0.00  0.00    -0.269 N 
ATOM      2  C   UNL     1      -2.429   2.207  -0.515  0.00  0.00    +0.308 C 
ATOM      3  O   UNL     1      -2.654   1.117  -1.004  0.00  0.00    -0.252 OA
ATOM      4  N   UNL     1      -1.181   2.716  -0.549  0.00  0.00    -0.263 N 
ATOM      5  H   UNL     1      -3.209   3.857   0.571  0.00  0.00    +0.156 HD
ATOM      6  H   UNL     1      -0.977   3.702  -0.106  0.00  0.00    +0.157 HD
ENDROOT
BRANCH   1  15
ATOM      7  C   UNL     1      -8.400   4.886  -0.337  0.00  0.00    +0.251 C 
ATOM      8  O   UNL     1      -7.394   5.563  -0.419  0.00  0.00    -0.270 OA
ATOM      9  N   UNL     1      -8.305   3.544  -0.255  0.00  0.00    -0.267 N 
ATOM     10  C   UNL     1      -9.442   2.620  -0.268  0.00  0.00    +0.118 C 
ATOM     11  C   UNL     1      -8.823   1.218  -0.153  0.00  0.00    +0.056 C 
ATOM     12  C   UNL     1      -7.332   1.464  -0.081  0.00  0.00    -0.024 A 
ATOM     13  C   UNL     1      -7.108   2.831  -0.145  0.00  0.00    +0.042 A 
ATOM     14  C   UNL     1      -5.798   3.307  -0.092  0.00  0.00    +0.047 A 
ATOM     15  C   UNL     1      -4.738   2.422   0.014  0.00  0.00    +0.037 A 
ATOM     16  C   UNL     1      -4.977   1.055   0.078  0.00  0.00    +0.024 A 
ATOM     17  C   UNL     1      -6.274   0.583   0.030  0.00  0.00    +0.007 A 
BRANCH   7  22
ATOM     18  C   UNL     1     -13.570   7.413  -0.293  0.00  0.00    +0.044 C 
ATOM     19  C   UNL     1     -12.216   6.751  -0.305  0.00  0.00    -0.050 A 
ATOM     20  C   UNL     1     -12.124   5.373  -0.386  0.00  0.00    +0.004 A 
ATOM     21  C   UNL     1     -10.887   4.761  -0.397  0.00  0.00    +0.013 A 
ATOM     22  C   UNL     1      -9.728   5.535  -0.326  0.00  0.00    +0.037 A 
ATOM     23  C   UNL     1      -9.829   6.925  -0.238  0.00  0.00    +0.013 A 
ATOM     24  C   UNL     1     -11.071   7.525  -0.234  0.00  0.00    +0.004 A 
ENDBRANCH   7  22
ENDBRANCH   1  15
BRANCH   4  25
ATOM     25  C   UNL     1      -0.155   1.997  -1.142  0.00  0.00    +0.087 A 
ATOM     26  C   UNL     1       1.180   2.352  -1.280  0.00  0.00    +0.091 A 
ATOM     27  C   UNL     1       2.059   1.411  -1.954  0.00  0.00    -0.021 A 
ATOM     28  C   UNL     1       1.466   0.275  -2.381  0.00  0.00    -0.004 A 
ATOM     29  S   UNL     1      -0.230   0.440  -1.899  0.00  0.00    -0.077 S 
ATOM     30  C   UNL     1       2.114  -0.866  -3.102  0.00  0.00    +0.043 C 
ATOM     31  C   UNL     1       3.481  -0.397  -3.621  0.00  0.00    +0.005 C 
ATOM     32  C   UNL     1       4.222   0.316  -2.486  0.00  0.00    +0.005 C 
ATOM     33  C   UNL     1       3.546   1.653  -2.182  0.00  0.00    +0.037 C 
BRANCH  26  34
ATOM     34  C   UNL     1       1.684   3.627  -0.765  0.00  0.00    +0.342 C 
ATOM     35  O   UNL     1       2.111   3.697   0.372  0.00  0.00    -0.245 OA
BRANCH  34  36
ATOM     36  O   UNL     1       1.675   4.722  -1.551  0.00  0.00    -0.464 OA
ATOM     37  C   UNL     1       2.190   5.952  -0.974  0.00  0.00    +0.280 C 
ENDBRANCH  34  36
ENDBRANCH  26  34
ENDBRANCH   4  25
TORSDOF 5
