REMARK  Name = ZINC63667302
REMARK  11 active torsions:
REMARK  status: ('A' for Active; 'I' for Inactive)
REMARK    1  A    between atoms: C_1  and  C_2
REMARK    2  A    between atoms: C_2  and  N_3
REMARK    3  A    between atoms: C_7  and  C_17
REMARK    4  A    between atoms: N_9  and  C_10
REMARK    5  A    between atoms: C_13  and  C_16
REMARK    6  A    between atoms: C_19  and  C_22
REMARK    7  A    between atoms: C_22  and  C_23
REMARK    8  A    between atoms: C_23  and  C_24
REMARK    9  A    between atoms: N_26  and  C_27
REMARK   10  A    between atoms: C_27  and  C_28
REMARK   11  A    between atoms: C_28  and  C_29
REMARK                            x       y       z     vdW  Elec       q    Type
REMARK                         _______ _______ _______ _____ _____    ______ ____
ROOT
ATOM      1  N   UNL     1       0.091   0.355  -1.648  0.00  0.00    -0.272 N 
ATOM      2  C   UNL     1      -0.408  -0.549  -2.687  0.00  0.00    +0.233 C 
ATOM      3  C   UNL     1       0.647  -1.325  -3.463  0.00  0.00    +0.100 C 
ATOM      4  C   UNL     1       0.125  -2.551  -3.662  0.00  0.00    +0.044 C 
ATOM      5  N   UNL     1      -1.062  -2.692  -2.997  0.00  0.00    -0.265 N 
ATOM      6  N   UNL     1      -1.250  -1.599  -2.104  0.00  0.00    -0.227 N 
ATOM      7  C   UNL     1       0.764  -3.624  -4.505  0.00  0.00    +0.064 C 
ATOM      8  N   UNL     1       1.817  -0.723  -3.671  0.00  0.00    -0.246 NA
ATOM      9  C   UNL     1       2.194   0.257  -2.892  0.00  0.00    +0.104 C 
ATOM     10  C   UNL     1       1.391   0.730  -1.768  0.00  0.00    +0.263 C 
ATOM     11  O   UNL     1       1.882   1.485  -0.949  0.00  0.00    -0.269 OA
ATOM     12  H   UNL     1      -1.690  -3.420  -3.121  0.00  0.00    +0.170 HD
ENDROOT
BRANCH   6  13
ATOM     13  C   UNL     1      -2.029  -1.539  -0.946  0.00  0.00    +0.050 A 
ATOM     14  C   UNL     1      -3.157  -0.730  -0.907  0.00  0.00    +0.025 A 
ATOM     15  C   UNL     1      -3.925  -0.673   0.239  0.00  0.00    +0.005 A 
ATOM     16  C   UNL     1      -3.573  -1.421   1.347  0.00  0.00    -0.050 A 
ATOM     17  C   UNL     1      -2.450  -2.228   1.312  0.00  0.00    +0.005 A 
ATOM     18  C   UNL     1      -1.681  -2.294   0.167  0.00  0.00    +0.025 A 
ATOM     19  C   UNL     1      -4.414  -1.357   2.596  0.00  0.00    +0.044 C 
ENDBRANCH   6  13
BRANCH   1  21
ATOM     20  C   UNL     1      -1.591   2.021  -1.034  0.00  0.00    +0.024 C 
ATOM     21  C   UNL     1      -0.759   0.830  -0.553  0.00  0.00    +0.107 C 
ENDBRANCH   1  21
BRANCH   9  22
ATOM     22  C   UNL     1       3.522   0.918  -3.159  0.00  0.00    +0.070 C 
BRANCH  22  23
ATOM     23  C   UNL     1       4.189   0.254  -4.366  0.00  0.00    +0.102 C 
BRANCH  23  24
ATOM     24  C   UNL     1       5.517   0.914  -4.633  0.00  0.00    +0.213 C 
ATOM     25  O   UNL     1       5.893   1.826  -3.927  0.00  0.00    -0.276 OA
ATOM     26  N   UNL     1       6.286   0.491  -5.655  0.00  0.00    -0.315 N 
ATOM     27  H   UNL     1       5.985  -0.238  -6.219  0.00  0.00    +0.149 HD
BRANCH  26  28
ATOM     28  C   UNL     1       7.577   1.133  -5.915  0.00  0.00    +0.108 C 
BRANCH  28  29
ATOM     29  C   UNL     1       8.244   0.469  -7.121  0.00  0.00    +0.052 C 
BRANCH  29  30
ATOM     30  C   UNL     1       9.572   1.130  -7.388  0.00  0.00    -0.040 C 
ATOM     31  C   UNL     1      10.786   0.720  -6.955  0.00  0.00    -0.001 A 
ATOM     32  C   UNL     1      11.216  -0.419  -6.136  0.00  0.00    +0.010 A 
ATOM     33  C   UNL     1      12.532  -0.570  -5.862  0.00  0.00    +0.001 A 
ATOM     34  C   UNL     1      13.492   0.333  -6.339  0.00  0.00    +0.002 A 
ATOM     35  C   UNL     1      13.174   1.403  -7.097  0.00  0.00    +0.026 A 
ATOM     36  C   UNL     1      11.819   1.658  -7.447  0.00  0.00    +0.043 A 
ATOM     37  N   UNL     1      11.266   2.612  -8.157  0.00  0.00    -0.380 N 
ATOM     38  C   UNL     1       9.818   2.382  -8.200  0.00  0.00    +0.144 C 
ATOM     39  H   UNL     1      11.736   3.344  -8.585  0.00  0.00    +0.160 HD
ENDBRANCH  29  30
ENDBRANCH  28  29
ENDBRANCH  26  28
ENDBRANCH  23  24
ENDBRANCH  22  23
ENDBRANCH   9  22
TORSDOF 8
