REMARK  Name = ZINC36203787
REMARK  5 active torsions:
REMARK  status: ('A' for Active; 'I' for Inactive)
REMARK    1  A    between atoms: C_1  and  C_2
REMARK    2  A    between atoms: C_5  and  C_8
REMARK    3  A    between atoms: C_16  and  C_18
REMARK    4  A    between atoms: C_18  and  N_19
REMARK    5  A    between atoms: N_22  and  C_25
REMARK                            x       y       z     vdW  Elec       q    Type
REMARK                         _______ _______ _______ _____ _____    ______ ____
ROOT
ATOM      1  C   UNL     1       0.059  -4.255  -0.021  0.00  0.00    +0.004 A 
ATOM      2  C   UNL     1      -0.825  -4.953  -0.774  0.00  0.00    +0.056 A 
ATOM      3  S   UNL     1      -0.394  -6.651  -0.441  0.00  0.00    -0.078 S 
ATOM      4  C   UNL     1       0.946  -6.382   0.687  0.00  0.00    +0.092 A 
ATOM      5  C   UNL     1       1.034  -4.989   0.776  0.00  0.00    +0.080 A 
ATOM      6  C   UNL     1       2.098  -4.483   1.669  0.00  0.00    +0.282 A 
ATOM      7  O   UNL     1       2.259  -3.283   1.823  0.00  0.00    -0.265 OA
ATOM      8  N   UNL     1       2.885  -5.363   2.308  0.00  0.00    -0.197 NA
ATOM      9  C   UNL     1       2.746  -6.652   2.172  0.00  0.00    +0.095 A 
ATOM     10  N   UNL     1       1.791  -7.185   1.383  0.00  0.00    -0.339 N 
ATOM     11  H   UNL     1       1.715  -8.149   1.303  0.00  0.00    +0.167 HD
ENDROOT
BRANCH   1  16
ATOM     12  C   UNL     1      -0.018   1.503   0.010  0.00  0.00    +0.044 C 
ATOM     13  C   UNL     1       0.002  -0.004   0.002  0.00  0.00    -0.050 A 
ATOM     14  C   UNL     1       0.006  -0.686  -1.201  0.00  0.00    +0.004 A 
ATOM     15  C   UNL     1       0.024  -2.066  -1.215  0.00  0.00    +0.009 A 
ATOM     16  C   UNL     1       0.040  -2.772  -0.013  0.00  0.00    -0.017 A 
ATOM     17  C   UNL     1       0.036  -2.079   1.196  0.00  0.00    +0.009 A 
ATOM     18  C   UNL     1       0.023  -0.699   1.198  0.00  0.00    +0.004 A 
ENDBRANCH   1  16
BRANCH   9  19
ATOM     19  C   UNL     1       3.671  -7.572   2.926  0.00  0.00    -0.003 C 
BRANCH  19  20
ATOM     20  N   UNL     1       4.613  -6.775   3.722  0.00  0.00    +0.386 N 
ATOM     21  C   UNL     1       5.473  -5.994   2.823  0.00  0.00    -0.059 C 
ATOM     22  C   UNL     1       6.378  -5.077   3.652  0.00  0.00    +0.086 C 
ATOM     23  N   UNL     1       7.108  -5.900   4.628  0.00  0.00    -0.331 N 
ATOM     24  C   UNL     1       6.337  -6.835   5.461  0.00  0.00    +0.086 C 
ATOM     25  C   UNL     1       5.434  -7.670   4.547  0.00  0.00    -0.059 C 
ATOM     26  H   UNL     1       4.098  -6.146   4.320  0.00  0.00    -0.081 HD
BRANCH  23  27
ATOM     27  C   UNL     1       8.497  -5.797   4.758  0.00  0.00    +0.065 A 
ATOM     28  C   UNL     1       9.046  -4.893   5.657  0.00  0.00    +0.026 A 
ATOM     29  C   UNL     1      10.418  -4.793   5.785  0.00  0.00    +0.002 A 
ATOM     30  C   UNL     1      11.245  -5.593   5.019  0.00  0.00    +0.003 A 
ATOM     31  C   UNL     1      10.704  -6.495   4.121  0.00  0.00    +0.040 A 
ATOM     32  C   UNL     1       9.331  -6.604   3.993  0.00  0.00    +0.144 A 
ATOM     33  F   UNL     1       8.802  -7.490   3.121  0.00  0.00    -0.204 F 
ENDBRANCH  23  27
ENDBRANCH  19  20
ENDBRANCH   9  19
TORSDOF 4
