REMARK  Name = ZINC67042043
REMARK  4 active torsions:
REMARK  status: ('A' for Active; 'I' for Inactive)
REMARK    1  A    between atoms: C_1  and  C_2
REMARK    2  A    between atoms: C_6  and  C_7
REMARK    3  A    between atoms: C_7  and  N_8
REMARK    4  A    between atoms: C_15  and  C_17
REMARK                            x       y       z     vdW  Elec       q    Type
REMARK                         _______ _______ _______ _____ _____    ______ ____
ROOT
ATOM      1  N   UNL     1      -1.349  -0.028   3.053  0.00  0.00    -0.295 N 
ATOM      2  C   UNL     1      -1.589   0.425   4.299  0.00  0.00    +0.303 C 
ATOM      3  O   UNL     1      -0.661   0.710   5.032  0.00  0.00    -0.253 OA
ATOM      4  N   UNL     1      -2.857   0.564   4.733  0.00  0.00    -0.278 N 
ATOM      5  C   UNL     1      -4.071   0.251   3.956  0.00  0.00    +0.110 C 
ATOM      6  C   UNL     1      -5.184   1.120   4.592  0.00  0.00    +0.021 C 
ATOM      7  C   UNL     1      -4.803   1.063   6.095  0.00  0.00    +0.029 C 
ATOM      8  C   UNL     1      -3.260   1.045   6.063  0.00  0.00    +0.111 C 
ATOM      9  H   UNL     1      -2.089  -0.255   2.468  0.00  0.00    +0.151 HD
ENDROOT
BRANCH   8  10
ATOM     10  C   UNL     1      -2.733   0.116   7.126  0.00  0.00    +0.018 A 
ATOM     11  C   UNL     1      -2.331  -1.163   6.787  0.00  0.00    +0.009 A 
ATOM     12  C   UNL     1      -1.848  -2.018   7.760  0.00  0.00    +0.004 A 
ATOM     13  C   UNL     1      -1.766  -1.597   9.074  0.00  0.00    +0.049 A 
ATOM     14  C   UNL     1      -2.168  -0.316   9.420  0.00  0.00    +0.162 A 
ATOM     15  C   UNL     1      -2.647   0.546   8.441  0.00  0.00    +0.167 A 
ATOM     16  O   UNL     1      -3.034   1.812   8.757  0.00  0.00    -0.485 OA
ATOM     17  C   UNL     1      -3.284   2.082  10.140  0.00  0.00    +0.270 C 
ATOM     18  C   UNL     1      -2.127   1.496  10.961  0.00  0.00    +0.270 C 
ATOM     19  O   UNL     1      -2.085   0.082  10.719  0.00  0.00    -0.485 OA
ENDBRANCH   8  10
BRANCH   1  20
ATOM     20  C   UNL     1       0.030  -0.179   2.581  0.00  0.00    +0.148 C 
BRANCH  20  26
ATOM     21  C   UNL     1      -0.018   1.503   0.010  0.00  0.00    +0.044 C 
ATOM     22  C   UNL     1       0.002  -0.004   0.002  0.00  0.00    -0.039 A 
ATOM     23  C   UNL     1       0.006  -0.699  -1.193  0.00  0.00    +0.011 A 
ATOM     24  C   UNL     1       0.024  -2.054  -1.165  0.00  0.00    +0.046 A 
ATOM     25  S   UNL     1       0.037  -2.387   0.589  0.00  0.00    -0.100 S 
ATOM     26  C   UNL     1       0.023  -0.698   1.166  0.00  0.00    +0.010 A 
ENDBRANCH  20  26
ENDBRANCH   1  20
TORSDOF 3
