REMARK  Name = ZINC02073610
REMARK  3 active torsions:
REMARK  status: ('A' for Active; 'I' for Inactive)
REMARK    1  A    between atoms: C_2  and  C_3
REMARK    2  A    between atoms: C_3  and  S_4
REMARK    3  A    between atoms: S_4  and  C_5
REMARK                            x       y       z     vdW  Elec       q    Type
REMARK                         _______ _______ _______ _____ _____    ______ ____
ROOT
ATOM      1  C   UNL     1      -0.417  -3.974   1.973  0.00  0.00    +0.213 A 
ATOM      2  N   UNL     1      -0.135  -2.674   1.971  0.00  0.00    -0.184 NA
ATOM      3  C   UNL     1      -0.847  -1.858   1.213  0.00  0.00    +0.248 A 
ATOM      4  C   UNL     1      -1.888  -2.399   0.424  0.00  0.00    +0.156 A 
ATOM      5  N   UNL     1      -2.120  -3.702   0.475  0.00  0.00    -0.141 NA
ATOM      6  N   UNL     1      -1.402  -4.461   1.229  0.00  0.00    -0.122 NA
ATOM      7  C   UNL     1      -2.689  -1.509  -0.441  0.00  0.00    +0.028 A 
ATOM      8  C   UNL     1      -4.077  -1.565  -0.455  0.00  0.00    +0.012 A 
ATOM      9  C   UNL     1      -4.790  -0.724  -1.287  0.00  0.00    +0.001 A 
ATOM     10  C   UNL     1      -4.129   0.173  -2.108  0.00  0.00    +0.002 A 
ATOM     11  C   UNL     1      -2.748   0.243  -2.101  0.00  0.00    +0.024 A 
ATOM     12  C   UNL     1      -2.021  -0.587  -1.268  0.00  0.00    +0.040 A 
ATOM     13  N   UNL     1      -0.626  -0.521  -1.210  0.00  0.00    -0.295 N 
ATOM     14  C   UNL     1       0.002  -0.004   0.002  0.00  0.00    +0.283 C 
ATOM     15  O   UNL     1      -0.599  -0.527   1.181  0.00  0.00    -0.437 OA
ATOM     16  C   UNL     1      -0.018   1.494   0.010  0.00  0.00    +0.046 A 
ATOM     17  C   UNL     1      -1.065   2.391   0.020  0.00  0.00    +0.027 A 
ATOM     18  C   UNL     1      -0.736   3.744   0.025  0.00  0.00    +0.018 A 
ATOM     19  C   UNL     1       0.579   4.164   0.012  0.00  0.00    +0.017 A 
ATOM     20  C   UNL     1       1.635   3.267  -0.000  0.00  0.00    +0.025 A 
ATOM     21  C   UNL     1       1.319   1.908  -0.000  0.00  0.00    +0.043 A 
ATOM     22  N   UNL     1       2.162   0.811  -0.011  0.00  0.00    -0.280 N 
ATOM     23  C   UNL     1       1.480  -0.352  -0.009  0.00  0.00    +0.285 C 
ATOM     24  O   UNL     1       1.957  -1.467  -0.014  0.00  0.00    -0.269 OA
ATOM     25 BR   UNL     1      -2.120   5.032   0.043  0.00  0.00    -0.050 Br
ATOM     26  H   UNL     1      -0.086  -0.814  -1.960  0.00  0.00    +0.151 HD
ATOM     27  H   UNL     1       3.130   0.871  -0.018  0.00  0.00    +0.155 HD
ENDROOT
BRANCH   1  28
ATOM     28  S   UNL     1       0.530  -5.065   2.980  0.00  0.00    -0.080 S 
BRANCH  28  29
ATOM     29  C   UNL     1      -0.278  -6.637   2.587  0.00  0.00    +0.104 C 
BRANCH  29  31
ATOM     30  C   UNL     1      -0.286  -8.405   4.271  0.00  0.00    +0.005 C 
ATOM     31  C   UNL     1       0.386  -7.749   3.357  0.00  0.00    -0.023 C 
ENDBRANCH  29  31
ENDBRANCH  28  29
ENDBRANCH   1  28
TORSDOF 3
