REMARK  Name = ZINC04293015
REMARK  13 active torsions:
REMARK  status: ('A' for Active; 'I' for Inactive)
REMARK    1  A    between atoms: C_1  and  C_2
REMARK    2  A    between atoms: C_2  and  C_4
REMARK    3  A    between atoms: C_2  and  C_10
REMARK    4  A    between atoms: C_4  and  C_5
REMARK    5  A    between atoms: C_5  and  C_6
REMARK    6  A    between atoms: C_6  and  C_7
REMARK    7  A    between atoms: C_7  and  C_8
REMARK    8  A    between atoms: C_7  and  C_9
REMARK    9  A    between atoms: C_16  and  C_37
REMARK   10  A    between atoms: C_24  and  O_36
REMARK   11  A    between atoms: C_26  and  O_35
REMARK   12  A    between atoms: C_27  and  C_34
REMARK   13  A    between atoms: C_30  and  O_33
REMARK                            x       y       z     vdW  Elec       q    Type
REMARK                         _______ _______ _______ _____ _____    ______ ____
ROOT
ATOM      1  C   UNL     1       0.824  -0.390   1.258  0.00  0.00    -0.002 C 
ATOM      2  C   UNL     1       0.071  -0.107   2.573  0.00  0.00    +0.004 C 
ATOM      3  C   UNL     1      -0.076  -1.464   3.295  0.00  0.00    +0.004 C 
ATOM      4  C   UNL     1       1.093  -2.319   2.723  0.00  0.00    -0.001 C 
ATOM      5  C   UNL     1       1.089  -1.901   1.240  0.00  0.00    -0.026 C 
ATOM      6  C   UNL     1       2.368  -2.260   0.519  0.00  0.00    +0.007 C 
ATOM      7  C   UNL     1       3.590  -1.713   1.256  0.00  0.00    +0.005 C 
ATOM      8  C   UNL     1       3.612  -2.309   2.668  0.00  0.00    +0.001 C 
ATOM      9  C   UNL     1       2.366  -1.845   3.429  0.00  0.00    -0.001 C 
ATOM     10  C   UNL     1       2.380  -2.396   4.857  0.00  0.00    +0.038 C 
ATOM     11  C   UNL     1       3.629  -1.902   5.588  0.00  0.00    +0.147 C 
ATOM     12  C   UNL     1       4.460  -1.028   4.647  0.00  0.00    +0.100 C 
ATOM     13  C   UNL     1       4.877  -1.837   3.388  0.00  0.00    +0.002 C 
ATOM     14  C   UNL     1       5.713  -0.981   2.435  0.00  0.00    +0.012 C 
ATOM     15  C   UNL     1       6.979  -0.506   3.151  0.00  0.00    +0.032 C 
ATOM     16  C   UNL     1       6.589   0.328   4.374  0.00  0.00    +0.117 C 
ATOM     17  C   UNL     1       5.716  -0.548   5.378  0.00  0.00    +0.069 C 
ATOM     18  C   UNL     1       5.695  -3.052   3.833  0.00  0.00    +0.014 C 
ATOM     19  C   UNL     1      -0.073  -2.600   0.532  0.00  0.00    +0.012 C 
ENDROOT
BRANCH   1  21
ATOM     20  C   UNL     1      -0.434   1.481   0.181  0.00  0.00    +0.008 C 
ATOM     21  C   UNL     1      -0.040   0.008   0.059  0.00  0.00    -0.010 C 
BRANCH  21  22
ATOM     22  C   UNL     1       0.751  -0.204  -1.233  0.00  0.00    +0.003 C 
BRANCH  22  23
ATOM     23  C   UNL     1      -0.146   0.095  -2.435  0.00  0.00    +0.001 C 
BRANCH  23  24
ATOM     24  C   UNL     1       0.646  -0.117  -3.728  0.00  0.00    +0.003 C 
BRANCH  24  25
ATOM     25  C   UNL     1      -0.252   0.182  -4.930  0.00  0.00    -0.017 C 
ATOM     26  C   UNL     1      -0.633   1.664  -4.927  0.00  0.00    +0.007 C 
ATOM     27  C   UNL     1       0.499  -0.148  -6.221  0.00  0.00    +0.007 C 
ENDBRANCH  24  25
ENDBRANCH  23  24
ENDBRANCH  22  23
ENDBRANCH  21  22
ENDBRANCH   1  21
BRANCH  16  28
ATOM     28  O   UNL     1       7.770   0.774   5.043  0.00  0.00    -0.392 OA
ATOM     29  H   UNL     1       8.348   1.323   4.496  0.00  0.00    +0.210 HD
ENDBRANCH  16  28
BRANCH  12  30
ATOM     30  O   UNL     1       3.687   0.101   4.236  0.00  0.00    -0.385 OA
ATOM     31  H   UNL     1       3.395   0.665   4.965  0.00  0.00    +0.210 HD
ENDBRANCH  12  30
BRANCH  11  32
ATOM     32  O   UNL     1       3.240  -1.135   6.730  0.00  0.00    -0.389 OA
ATOM     33  H   UNL     1       2.710  -1.627   7.372  0.00  0.00    +0.210 HD
ENDBRANCH  11  32
TORSDOF 8
