REMARK  Name = ZINC66641677
REMARK  9 active torsions:
REMARK  status: ('A' for Active; 'I' for Inactive)
REMARK    1  A    between atoms: C_1  and  C_2
REMARK    2  A    between atoms: C_2  and  C_3
REMARK    3  A    between atoms: C_2  and  N_4
REMARK    4  A    between atoms: C_8  and  C_11
REMARK    5  A    between atoms: C_11  and  N_12
REMARK    6  A    between atoms: C_13  and  C_15
REMARK    7  A    between atoms: C_15  and  N_16
REMARK    8  A    between atoms: N_19  and  C_20
REMARK    9  A    between atoms: C_20  and  C_21
REMARK                            x       y       z     vdW  Elec       q    Type
REMARK                         _______ _______ _______ _____ _____    ______ ____
ROOT
ATOM      1  N   UNL     1       1.883  -4.453  -3.801  0.00  0.00    -0.314 N 
ATOM      2  C   UNL     1       1.990  -5.776  -4.034  0.00  0.00    +0.230 C 
ATOM      3  O   UNL     1       1.665  -6.571  -3.178  0.00  0.00    -0.274 OA
ATOM      4  H   UNL     1       2.143  -3.817  -4.486  0.00  0.00    +0.149 HD
ENDROOT
BRANCH   1   5
ATOM      5  C   UNL     1       1.373  -3.975  -2.513  0.00  0.00    +0.106 C 
BRANCH   5  10
ATOM      6  N   UNL     1       0.690  -0.478  -1.207  0.00  0.00    +0.381 N 
ATOM      7  C   UNL     1       2.064   0.038  -1.220  0.00  0.00    -0.078 C 
ATOM      8  C   UNL     1       2.759  -0.385  -2.516  0.00  0.00    -0.018 C 
ATOM      9  C   UNL     1       2.785  -1.914  -2.599  0.00  0.00    +0.001 C 
ATOM     10  C   UNL     1       1.352  -2.445  -2.509  0.00  0.00    -0.011 C 
ATOM     11  C   UNL     1       0.709  -1.946  -1.213  0.00  0.00    -0.074 C 
ATOM     12  H   UNL     1       0.200  -0.145  -2.023  0.00  0.00    -0.081 HD
BRANCH   6  14
ATOM     13  C   UNL     1      -0.019   1.526   0.010  0.00  0.00    -0.014 C 
ATOM     14  C   UNL     1       0.002  -0.004   0.002  0.00  0.00    -0.075 C 
ATOM     15  C   UNL     1      -1.433  -0.534   0.013  0.00  0.00    -0.014 C 
ENDBRANCH   6  14
ENDBRANCH   5  10
ENDBRANCH   1   5
BRANCH   2  16
ATOM     16  C   UNL     1       2.515  -6.267  -5.358  0.00  0.00    +0.201 C 
BRANCH  16  17
ATOM     17  N   UNL     1       2.535  -7.732  -5.362  0.00  0.00    -0.291 N 
ATOM     18  C   UNL     1       2.970  -8.397  -6.451  0.00  0.00    +0.300 C 
ATOM     19  O   UNL     1       3.345  -7.782  -7.430  0.00  0.00    -0.253 OA
ATOM     20  N   UNL     1       2.988  -9.745  -6.455  0.00  0.00    -0.295 N 
ATOM     21  H   UNL     1       2.235  -8.224  -4.581  0.00  0.00    +0.151 HD
ATOM     22  H   UNL     1       2.688 -10.236  -5.674  0.00  0.00    +0.151 HD
BRANCH  20  23
ATOM     23  C   UNL     1       3.460 -10.468  -7.638  0.00  0.00    +0.141 C 
BRANCH  23  24
ATOM     24  C   UNL     1       3.380 -11.951  -7.386  0.00  0.00    -0.030 A 
ATOM     25  C   UNL     1       4.456 -12.617  -6.829  0.00  0.00    +0.006 A 
ATOM     26  C   UNL     1       4.383 -13.977  -6.597  0.00  0.00    +0.020 A 
ATOM     27  C   UNL     1       3.233 -14.673  -6.923  0.00  0.00    +0.041 A 
ATOM     28  C   UNL     1       2.156 -14.007  -7.481  0.00  0.00    +0.020 A 
ATOM     29  C   UNL     1       2.228 -12.646  -7.707  0.00  0.00    +0.006 A 
ATOM     30 CL   UNL     1       3.141 -16.383  -6.633  0.00  0.00    -0.084 Cl
ENDBRANCH  23  24
ENDBRANCH  20  23
ENDBRANCH  16  17
ENDBRANCH   2  16
TORSDOF 7
