REMARK  Name = ZINC39756455
REMARK  6 active torsions:
REMARK  status: ('A' for Active; 'I' for Inactive)
REMARK    1  A    between atoms: C_4  and  C_7
REMARK    2  A    between atoms: C_7  and  C_9
REMARK    3  A    between atoms: C_7  and  O_20
REMARK    4  A    between atoms: C_9  and  C_11
REMARK    5  A    between atoms: O_20  and  C_21
REMARK    6  A    between atoms: C_21  and  C_23
REMARK                            x       y       z     vdW  Elec       q    Type
REMARK                         _______ _______ _______ _____ _____    ______ ____
ROOT
ATOM      1  C   UNL     1       3.711  -0.707  -0.038  0.00  0.00    +0.277 C 
ENDROOT
BRANCH   1   5
ATOM      2  C   UNL     1      -0.017   1.378   0.010  0.00  0.00    +0.000 A 
ATOM      3  C   UNL     1       1.171   2.086   0.002  0.00  0.00    +0.000 A 
ATOM      4  C   UNL     1       2.377   1.411  -0.013  0.00  0.00    +0.008 A 
ATOM      5  C   UNL     1       2.396   0.029  -0.020  0.00  0.00    +0.000 A 
ATOM      6  C   UNL     1       1.208  -0.679  -0.012  0.00  0.00    +0.008 A 
ATOM      7  C   UNL     1       0.002  -0.004   0.002  0.00  0.00    +0.000 A 
ENDBRANCH   1   5
BRANCH   1   8
ATOM      8  C   UNL     1       4.074  -1.053  -1.459  0.00  0.00    +0.206 C 
ATOM      9  O   UNL     1       3.871  -2.173  -1.881  0.00  0.00    -0.288 OA
BRANCH   8  10
ATOM     10  C   UNL     1       4.650  -0.076  -2.298  0.00  0.00    +0.027 C 
ATOM     11  C   UNL     1       5.033  -0.228  -3.618  0.00  0.00    +0.006 A 
ATOM     12  C   UNL     1       4.987  -1.322  -4.514  0.00  0.00    +0.010 A 
ATOM     13  C   UNL     1       5.442  -1.186  -5.780  0.00  0.00    +0.001 A 
ATOM     14  C   UNL     1       5.973   0.020  -6.264  0.00  0.00    +0.002 A 
ATOM     15  C   UNL     1       6.062   1.124  -5.491  0.00  0.00    +0.026 A 
ATOM     16  C   UNL     1       5.588   1.062  -4.098  0.00  0.00    +0.043 A 
ATOM     17  N   UNL     1       5.555   1.954  -3.151  0.00  0.00    -0.380 N 
ATOM     18  C   UNL     1       4.972   1.359  -1.944  0.00  0.00    +0.152 C 
ATOM     19  H   UNL     1       5.864   2.870  -3.231  0.00  0.00    +0.160 HD
ENDBRANCH   8  10
ENDBRANCH   1   8
BRANCH   1  20
ATOM     20  O   UNL     1       3.596  -1.907   0.731  0.00  0.00    -0.444 OA
BRANCH  20  21
ATOM     21  C   UNL     1       3.893  -1.824   2.042  0.00  0.00    +0.360 C 
ATOM     22  O   UNL     1       4.241  -0.763   2.521  0.00  0.00    -0.243 OA
BRANCH  21  23
ATOM     23  C   UNL     1       3.797  -3.022   2.897  0.00  0.00    +0.166 A 
ATOM     24  C   UNL     1       4.063  -3.075   4.236  0.00  0.00    +0.127 A 
ATOM     25  N   UNL     1       3.852  -4.359   4.636  0.00  0.00    -0.306 N 
ATOM     26  C   UNL     1       3.963  -4.974   5.851  0.00  0.00    +0.093 A 
ATOM     27  C   UNL     1       3.689  -6.288   5.984  0.00  0.00    +0.018 A 
ATOM     28  C   UNL     1       3.284  -7.045   4.872  0.00  0.00    +0.005 A 
ATOM     29  C   UNL     1       3.169  -6.449   3.656  0.00  0.00    +0.047 A 
ATOM     30  C   UNL     1       3.459  -5.072   3.530  0.00  0.00    +0.138 A 
ATOM     31  N   UNL     1       3.426  -4.252   2.494  0.00  0.00    -0.221 NA
ENDBRANCH  21  23
ENDBRANCH  20  21
ENDBRANCH   1  20
TORSDOF 6
