REMARK  Name = ZINC01903639
REMARK  10 active torsions:
REMARK  status: ('A' for Active; 'I' for Inactive)
REMARK    1  A    between atoms: C_1  and  C_2
REMARK    2  A    between atoms: C_2  and  C_3
REMARK    3  A    between atoms: C_3  and  C_4
REMARK    4  A    between atoms: C_4  and  C_5
REMARK    5  A    between atoms: C_5  and  C_6
REMARK    6  A    between atoms: C_6  and  S_7
REMARK    7  A    between atoms: S_7  and  C_8
REMARK    8  A    between atoms: C_18  and  C_19
REMARK    9  A    between atoms: C_18  and  N_71
REMARK   10  A    between atoms: N_27  and  C_28
REMARK                            x       y       z     vdW  Elec       q    Type
REMARK                         _______ _______ _______ _____ _____    ______ ____
ROOT
ATOM      1  C   UNL     1       3.927   6.335  -7.890  0.00  0.00    +0.173 A 
ATOM      2  N   UNL     1       2.728   6.091  -7.379  0.00  0.00    -0.216 NA
ATOM      3  C   UNL     1       2.664   5.818  -6.082  0.00  0.00    +0.117 A 
ATOM      4  C   UNL     1       3.790   5.775  -5.226  0.00  0.00    +0.075 A 
ATOM      5  C   UNL     1       3.521   5.459  -3.836  0.00  0.00    -0.026 A 
ATOM      6  C   UNL     1       2.228   5.238  -3.500  0.00  0.00    -0.021 A 
ATOM      7  S   UNL     1       1.315   5.440  -5.007  0.00  0.00    -0.075 S 
ATOM      8  C   UNL     1       1.704   4.894  -2.140  0.00  0.00    -0.035 C 
ATOM      9  C   UNL     1       3.935   5.463  -1.392  0.00  0.00    -0.073 C 
ATOM     10  C   UNL     1       4.605   5.367  -2.765  0.00  0.00    +0.018 C 
ATOM     11  C   UNL     1       5.068   6.045  -5.815  0.00  0.00    +0.263 A 
ATOM     12  O   UNL     1       6.097   6.032  -5.160  0.00  0.00    -0.267 OA
ATOM     13  N   UNL     1       5.064   6.315  -7.141  0.00  0.00    -0.284 N 
ATOM     14  N   UNL     1       2.851   4.463  -1.306  0.00  0.00    +0.386 N 
ATOM     15  H   UNL     1       3.199   3.562  -1.655  0.00  0.00    -0.081 HD
ENDROOT
BRANCH  13  16
ATOM     16  C   UNL     1       6.341   6.599  -7.801  0.00  0.00    +0.093 C 
ATOM     17  C   UNL     1       7.279   5.402  -7.632  0.00  0.00    +0.025 C 
ATOM     18  C   UNL     1       8.613   5.699  -8.321  0.00  0.00    +0.002 C 
ATOM     19  C   UNL     1       9.249   6.939  -7.689  0.00  0.00    +0.000 C 
ATOM     20  C   UNL     1       8.310   8.135  -7.858  0.00  0.00    +0.002 C 
ATOM     21  C   UNL     1       6.977   7.839  -7.169  0.00  0.00    +0.025 C 
ENDBRANCH  13  16
BRANCH   1  22
ATOM     22  S   UNL     1       4.054   6.700  -9.609  0.00  0.00    -0.088 S 
BRANCH  22  23
ATOM     23  C   UNL     1       2.310   6.593 -10.083  0.00  0.00    +0.077 C 
BRANCH  23  24
ATOM     24  C   UNL     1       2.170   6.882 -11.579  0.00  0.00    +0.011 C 
BRANCH  24  25
ATOM     25  C   UNL     1       0.696   6.791 -11.979  0.00  0.00    +0.001 C 
BRANCH  25  26
ATOM     26  C   UNL     1       0.555   7.080 -13.475  0.00  0.00    -0.000 C 
BRANCH  26  28
ATOM     27  C   UNL     1      -1.060   7.277 -15.372  0.00  0.00    +0.004 C 
ATOM     28  C   UNL     1      -0.919   6.989 -13.876  0.00  0.00    -0.003 C 
ENDBRANCH  26  28
ENDBRANCH  25  26
ENDBRANCH  24  25
ENDBRANCH  23  24
ENDBRANCH  22  23
ENDBRANCH   1  22
BRANCH  14  29
ATOM     29  C   UNL     1       2.422   4.301   0.100  0.00  0.00    -0.043 C 
BRANCH  29  30
ATOM     30  C   UNL     1       1.153   3.490   0.140  0.00  0.00    -0.064 A 
ATOM     31  C   UNL     1       1.215   2.111   0.219  0.00  0.00    +0.002 A 
ATOM     32  C   UNL     1       0.051   1.367   0.256  0.00  0.00    +0.000 A 
ATOM     33  C   UNL     1      -1.177   2.002   0.207  0.00  0.00    +0.000 A 
ATOM     34  C   UNL     1      -1.239   3.380   0.133  0.00  0.00    +0.000 A 
ATOM     35  C   UNL     1      -0.075   4.124   0.097  0.00  0.00    +0.002 A 
ENDBRANCH  29  30
ENDBRANCH  14  29
TORSDOF 9
