REMARK  Name = ZINC08694283
REMARK  4 active torsions:
REMARK  status: ('A' for Active; 'I' for Inactive)
REMARK    1  A    between atoms: C_13  and  C_21
REMARK    2  A    between atoms: C_14  and  C_17
REMARK    3  A    between atoms: N_22  and  C_23
REMARK    4  A    between atoms: C_23  and  C_24
REMARK                            x       y       z     vdW  Elec       q    Type
REMARK                         _______ _______ _______ _____ _____    ______ ____
ROOT
ATOM      1  C   UNL     1      -0.017   1.366   0.010  0.00  0.00    +0.002 A 
ATOM      2  C   UNL     1       1.156   2.107   0.002  0.00  0.00    +0.001 A 
ATOM      3  C   UNL     1       2.373   1.450  -0.013  0.00  0.00    +0.017 A 
ATOM      4  C   UNL     1       2.401   0.077  -0.021  0.00  0.00    +0.041 A 
ATOM      5  C   UNL     1       1.227  -0.710  -0.013  0.00  0.00    +0.081 A 
ATOM      6  C   UNL     1       0.002  -0.004   0.002  0.00  0.00    +0.029 A 
ATOM      7  N   UNL     1       1.420  -2.047  -0.023  0.00  0.00    -0.221 NA
ATOM      8  C   UNL     1       2.616  -2.588  -0.037  0.00  0.00    +0.196 A 
ATOM      9  S   UNL     1       3.682  -1.153  -0.039  0.00  0.00    -0.048 S 
ATOM     10  N   UNL     1       2.963  -3.928  -0.047  0.00  0.00    -0.194 N 
ATOM     11  C   UNL     1       2.100  -4.965  -0.050  0.00  0.00    +0.283 A 
ATOM     12  O   UNL     1       0.885  -4.900  -0.044  0.00  0.00    -0.265 OA
ATOM     13  C   UNL     1       2.916  -6.189  -0.061  0.00  0.00    +0.088 A 
ATOM     14  C   UNL     1       4.235  -5.782  -0.065  0.00  0.00    +0.150 A 
ATOM     15  N   UNL     1       4.266  -4.433  -0.062  0.00  0.00    -0.284 N 
ATOM     16  H   UNL     1       5.073  -3.894  -0.067  0.00  0.00    +0.187 HD
ENDROOT
BRANCH  14  17
ATOM     17  C   UNL     1       5.437  -6.690  -0.076  0.00  0.00    +0.434 C 
ATOM     18  F   UNL     1       5.013  -8.024  -0.083  0.00  0.00    -0.164 F 
ATOM     19  F   UNL     1       6.201  -6.438  -1.220  0.00  0.00    -0.164 F 
ATOM     20  F   UNL     1       6.212  -6.453   1.064  0.00  0.00    -0.164 F 
ENDBRANCH  14  17
BRANCH  13  21
ATOM     21  C   UNL     1       2.424  -7.572  -0.068  0.00  0.00    +0.120 C 
ATOM     22  N   UNL     1       1.148  -7.807  -0.063  0.00  0.00    -0.286 NA
BRANCH  22  23
ATOM     23  C   UNL     1       0.657  -9.187  -0.069  0.00  0.00    +0.176 C 
BRANCH  23  24
ATOM     24  C   UNL     1      -0.071  -9.467   1.220  0.00  0.00    -0.026 A 
ATOM     25  C   UNL     1       0.621  -9.957   2.312  0.00  0.00    +0.007 A 
ATOM     26  C   UNL     1      -0.047 -10.213   3.495  0.00  0.00    +0.020 A 
ATOM     27  C   UNL     1      -1.407  -9.980   3.585  0.00  0.00    +0.041 A 
ATOM     28  C   UNL     1      -2.099  -9.490   2.492  0.00  0.00    +0.020 A 
ATOM     29  C   UNL     1      -1.429  -9.229   1.312  0.00  0.00    +0.007 A 
ATOM     30 CL   UNL     1      -2.247 -10.303   5.070  0.00  0.00    -0.084 Cl
ENDBRANCH  23  24
ENDBRANCH  22  23
ENDBRANCH  13  21
TORSDOF 4
