REMARK  Name = ZINC65393942
REMARK  4 active torsions:
REMARK  status: ('A' for Active; 'I' for Inactive)
REMARK    1  A    between atoms: C_1  and  C_2
REMARK    2  A    between atoms: C_7  and  N_8
REMARK    3  A    between atoms: C_9  and  C_16
REMARK    4  A    between atoms: C_12  and  C_15
REMARK                            x       y       z     vdW  Elec       q    Type
REMARK                         _______ _______ _______ _____ _____    ______ ____
ROOT
ATOM      1  N   UNL     1       0.025  -0.015   2.416  0.00  0.00    -0.242 N 
ATOM      2  C   UNL     1      -0.936  -0.202   3.514  0.00  0.00    +0.206 C 
ATOM      3  N   UNL     1      -0.503   0.713   4.600  0.00  0.00    -0.276 NA
ATOM      4  C   UNL     1       0.931   0.946   4.274  0.00  0.00    +0.138 C 
ATOM      5  N   UNL     1       0.928   0.950   2.792  0.00  0.00    -0.221 NA
ATOM      6  C   UNL     1       1.401   2.293   4.827  0.00  0.00    +0.043 C 
ATOM      7  H   UNL     1      -1.025   1.576   4.575  0.00  0.00    +0.126 HD
ATOM      8  H   UNL     1       0.660   1.855   2.435  0.00  0.00    +0.146 HD
ENDROOT
BRANCH   1  15
ATOM      9  C   UNL     1      -0.018   1.503   0.010  0.00  0.00    +0.046 C 
ATOM     10  C   UNL     1       0.002  -0.004   0.002  0.00  0.00    -0.027 A 
ATOM     11  C   UNL     1       0.006  -0.689  -1.198  0.00  0.00    +0.025 A 
ATOM     12  C   UNL     1       0.025  -2.072  -1.206  0.00  0.00    +0.041 A 
ATOM     13  C   UNL     1       0.040  -2.774  -0.013  0.00  0.00    +0.022 A 
ATOM     14  C   UNL     1       0.036  -2.095   1.189  0.00  0.00    +0.026 A 
ATOM     15  C   UNL     1       0.023  -0.706   1.200  0.00  0.00    +0.050 A 
ATOM     16 CL   UNL     1       0.030  -2.929  -2.716  0.00  0.00    -0.084 Cl
ENDBRANCH   1  15
BRANCH   2  17
ATOM     17  C   UNL     1      -2.325   0.158   3.055  0.00  0.00    +0.055 A 
ATOM     18  C   UNL     1      -2.523   0.573   1.782  0.00  0.00    +0.025 A 
ATOM     19  C   UNL     1      -3.813   0.909   1.348  0.00  0.00    +0.007 A 
ATOM     20  C   UNL     1      -4.857   0.811   2.220  0.00  0.00    +0.070 A 
ATOM     21  C   UNL     1      -4.616   0.376   3.535  0.00  0.00    +0.249 A 
ATOM     22  O   UNL     1      -5.541   0.283   4.326  0.00  0.00    -0.268 OA
ATOM     23  N   UNL     1      -3.366   0.055   3.920  0.00  0.00    -0.323 N 
ATOM     24  H   UNL     1      -3.208  -0.249   4.828  0.00  0.00    +0.169 HD
ENDBRANCH   2  17
TORSDOF 2
