REMARK  Name = ZINC08694283
REMARK  5 active torsions:
REMARK  status: ('A' for Active; 'I' for Inactive)
REMARK    1  A    between atoms: C_11  and  O_29
REMARK    2  A    between atoms: C_12  and  C_19
REMARK    3  A    between atoms: C_13  and  C_15
REMARK    4  A    between atoms: N_20  and  C_21
REMARK    5  A    between atoms: C_21  and  C_22
REMARK                            x       y       z     vdW  Elec       q    Type
REMARK                         _______ _______ _______ _____ _____    ______ ____
ROOT
ATOM      1  C   UNL     1      -0.017   1.366   0.010  0.00  0.00    +0.002 A 
ATOM      2  C   UNL     1       1.157   2.107   0.002  0.00  0.00    +0.001 A 
ATOM      3  C   UNL     1       2.373   1.450  -0.013  0.00  0.00    +0.017 A 
ATOM      4  C   UNL     1       2.402   0.078  -0.021  0.00  0.00    +0.041 A 
ATOM      5  C   UNL     1       1.228  -0.710  -0.013  0.00  0.00    +0.081 A 
ATOM      6  C   UNL     1       0.002  -0.004   0.002  0.00  0.00    +0.029 A 
ATOM      7  N   UNL     1       1.420  -2.046  -0.023  0.00  0.00    -0.221 NA
ATOM      8  C   UNL     1       2.615  -2.587  -0.037  0.00  0.00    +0.198 A 
ATOM      9  S   UNL     1       3.683  -1.153  -0.039  0.00  0.00    -0.048 S 
ATOM     10  N   UNL     1       2.963  -3.933  -0.048  0.00  0.00    -0.175 N 
ATOM     11  C   UNL     1       4.223  -4.424  -0.057  0.00  0.00    +0.227 A 
ATOM     12  C   UNL     1       4.123  -5.809  -0.065  0.00  0.00    +0.084 A 
ATOM     13  C   UNL     1       2.744  -6.125  -0.060  0.00  0.00    +0.178 A 
ATOM     14  N   UNL     1       2.069  -5.009  -0.044  0.00  0.00    -0.157 NA
ENDROOT
BRANCH  13  15
ATOM     15  C   UNL     1       2.155  -7.512  -0.066  0.00  0.00    +0.437 C 
ATOM     16  F   UNL     1       1.980  -7.950   1.251  0.00  0.00    -0.164 F 
ATOM     17  F   UNL     1       0.918  -7.492  -0.719  0.00  0.00    -0.164 F 
ATOM     18  F   UNL     1       3.022  -8.383  -0.735  0.00  0.00    -0.164 F 
ENDBRANCH  13  15
BRANCH  12  19
ATOM     19  C   UNL     1       5.238  -6.766  -0.077  0.00  0.00    +0.094 C 
ATOM     20  N   UNL     1       6.461  -6.336  -0.081  0.00  0.00    -0.386 N 
ATOM     21  H   UNL     1       6.640  -5.382  -0.075  0.00  0.00    +0.159 HD
BRANCH  20  22
ATOM     22  C   UNL     1       7.573  -7.290  -0.093  0.00  0.00    +0.147 C 
BRANCH  22  23
ATOM     23  C   UNL     1       8.338  -7.153  -1.384  0.00  0.00    -0.028 A 
ATOM     24  C   UNL     1       7.976  -7.906  -2.485  0.00  0.00    +0.007 A 
ATOM     25  C   UNL     1       8.678  -7.780  -3.669  0.00  0.00    +0.020 A 
ATOM     26  C   UNL     1       9.743  -6.901  -3.752  0.00  0.00    +0.041 A 
ATOM     27  C   UNL     1      10.105  -6.147  -2.650  0.00  0.00    +0.020 A 
ATOM     28  C   UNL     1       9.399  -6.269  -1.468  0.00  0.00    +0.007 A 
ATOM     29 CL   UNL     1      10.625  -6.743  -5.239  0.00  0.00    -0.084 Cl
ENDBRANCH  22  23
ENDBRANCH  20  22
ENDBRANCH  12  19
BRANCH  11  30
ATOM     30  O   UNL     1       5.368  -3.701  -0.059  0.00  0.00    -0.492 OA
ATOM     31  H   UNL     1       5.706  -3.497   0.824  0.00  0.00    +0.294 HD
ENDBRANCH  11  30
TORSDOF 5
