REMARK  Name = ZINC05647836
REMARK  4 active torsions:
REMARK  status: ('A' for Active; 'I' for Inactive)
REMARK    1  A    between atoms: C_4  and  C_7
REMARK    2  A    between atoms: C_9  and  S_12
REMARK    3  A    between atoms: S_12  and  C_13
REMARK    4  A    between atoms: C_13  and  C_14
REMARK                            x       y       z     vdW  Elec       q    Type
REMARK                         _______ _______ _______ _____ _____    ______ ____
ROOT
ATOM      1  C   UNL     1      -6.141  -4.669   0.039  0.00  0.00    +0.242 C 
ATOM      2  O   UNL     1      -5.643  -5.774   0.029  0.00  0.00    -0.271 OA
ATOM      3  N   UNL     1      -7.482  -4.534   0.054  0.00  0.00    -0.283 N 
ATOM      4  C   UNL     1      -8.161  -3.328   0.066  0.00  0.00    +0.057 A 
ATOM      5  C   UNL     1      -7.749  -2.002   0.070  0.00  0.00    +0.027 A 
ATOM      6  C   UNL     1      -8.684  -0.990   0.083  0.00  0.00    +0.002 A 
ATOM      7  C   UNL     1     -10.040  -1.281   0.094  0.00  0.00    +0.001 A 
ATOM      8  C   UNL     1     -10.471  -2.589   0.091  0.00  0.00    +0.010 A 
ATOM      9  C   UNL     1      -9.536  -3.626   0.077  0.00  0.00    +0.004 A 
ATOM     10  C   UNL     1      -9.633  -5.084   0.071  0.00  0.00    -0.018 A 
ATOM     11  C   UNL     1      -8.380  -5.573   0.052  0.00  0.00    +0.031 A 
ATOM     12  C   UNL     1      -8.056  -7.049   0.037  0.00  0.00    +0.054 C 
ATOM     13  C   UNL     1      -9.306  -7.827   0.464  0.00  0.00    +0.006 C 
ATOM     14  C   UNL     1     -10.508  -7.352  -0.358  0.00  0.00    +0.005 C 
ATOM     15  C   UNL     1     -10.882  -5.927   0.076  0.00  0.00    +0.037 C 
ENDROOT
BRANCH   1  16
ATOM     16  C   UNL     1      -5.261  -3.446   0.037  0.00  0.00    +0.176 C 
BRANCH  16  17
ATOM     17  S   UNL     1      -3.523  -3.953   0.017  0.00  0.00    -0.077 S 
BRANCH  17  20
ATOM     18  C   UNL     1      -1.266  -0.764   0.011  0.00  0.00    +0.182 A 
ATOM     19  N   UNL     1      -1.399  -2.133  -0.001  0.00  0.00    -0.201 NA
ATOM     20  C   UNL     1      -2.743  -2.373   0.017  0.00  0.00    +0.185 A 
ATOM     21  N   UNL     1      -3.347  -1.206   0.034  0.00  0.00    -0.253 N 
ATOM     22  N   UNL     1      -2.478  -0.259   0.034  0.00  0.00    -0.152 NA
ATOM     23  H   UNL     1      -4.421  -0.966   0.048  0.00  0.00    +0.191 HD
BRANCH  18  27
ATOM     24  C   UNL     1       2.377   1.419  -0.024  0.00  0.00    +0.000 A 
ATOM     25  C   UNL     1       1.170   2.095  -0.009  0.00  0.00    +0.001 A 
ATOM     26  C   UNL     1      -0.017   1.392   0.002  0.00  0.00    +0.011 A 
ATOM     27  C   UNL     1       0.002  -0.004  -0.002  0.00  0.00    +0.021 A 
ATOM     28  C   UNL     1       1.224  -0.679  -0.017  0.00  0.00    +0.011 A 
ATOM     29  C   UNL     1       2.403   0.036  -0.027  0.00  0.00    +0.001 A 
ENDBRANCH  18  27
ENDBRANCH  17  20
ENDBRANCH  16  17
ENDBRANCH   1  16
TORSDOF 4
