REMARK  Name = ZINC35538710
REMARK  16 active torsions:
REMARK  status: ('A' for Active; 'I' for Inactive)
REMARK    1  A    between atoms: C_1  and  C_2
REMARK    2  A    between atoms: C_2  and  C_3
REMARK    3  A    between atoms: C_3  and  C_4
REMARK    4  A    between atoms: N_6  and  C_7
REMARK    5  A    between atoms: N_6  and  C_24
REMARK    6  A    between atoms: C_7  and  C_9
REMARK    7  A    between atoms: C_7  and  C_10
REMARK    8  A    between atoms: C_10  and  C_12
REMARK    9  A    between atoms: C_13  and  C_23
REMARK   10  A    between atoms: C_14  and  C_19
REMARK   11  A    between atoms: N_15  and  C_18
REMARK   12  A    between atoms: C_16  and  C_17
REMARK   13  A    between atoms: C_19  and  O_21
REMARK   14  A    between atoms: O_21  and  C_22
REMARK   15  A    between atoms: C_24  and  C_25
REMARK   16  A    between atoms: C_24  and  C_26
REMARK                            x       y       z     vdW  Elec       q    Type
REMARK                         _______ _______ _______ _____ _____    ______ ____
ROOT
ATOM      1  C   UNL     1      -3.739  -5.695  -0.958  0.00  0.00    +0.185 C 
ATOM      2  O   UNL     1      -4.760  -5.249  -1.438  0.00  0.00    -0.290 OA
ENDROOT
BRANCH   1   3
ATOM      3  C   UNL     1      -3.139  -6.911  -1.514  0.00  0.00    +0.043 A 
ATOM      4  C   UNL     1      -2.025  -7.613  -0.994  0.00  0.00    -0.008 A 
ATOM      5  C   UNL     1      -1.807  -8.678  -1.817  0.00  0.00    +0.131 A 
ATOM      6  N   UNL     1      -2.750  -8.652  -2.822  0.00  0.00    -0.341 N 
ATOM      7  C   UNL     1      -3.557  -7.596  -2.644  0.00  0.00    +0.027 A 
ATOM      8  C   UNL     1      -4.720  -7.216  -3.525  0.00  0.00    +0.064 C 
ATOM      9  C   UNL     1      -2.857  -9.626  -3.911  0.00  0.00    +0.149 C 
ATOM     10  C   UNL     1      -1.230  -7.252   0.234  0.00  0.00    +0.047 C 
BRANCH   5  11
ATOM     11  C   UNL     1      -0.749  -9.682  -1.660  0.00  0.00    +0.356 C 
ATOM     12  O   UNL     1       0.031  -9.603  -0.730  0.00  0.00    -0.243 OA
BRANCH  11  13
ATOM     13  O   UNL     1      -0.640 -10.692  -2.547  0.00  0.00    -0.463 OA
ATOM     14  C   UNL     1       0.414 -11.633  -2.333  0.00  0.00    +0.280 C 
ENDBRANCH  11  13
ENDBRANCH   5  11
ENDBRANCH   1   3
BRANCH   1  15
ATOM     15  C   UNL     1      -3.089  -4.999   0.210  0.00  0.00    +0.144 C 
ATOM     16  C   UNL     1      -3.438  -5.737   1.503  0.00  0.00    +0.036 C 
BRANCH  15  19
ATOM     17  C   UNL     1      -4.867  -3.376   0.587  0.00  0.00    +0.216 C 
ATOM     18  O   UNL     1      -5.626  -4.299   0.790  0.00  0.00    -0.276 OA
ATOM     19  N   UNL     1      -3.575  -3.619   0.289  0.00  0.00    -0.289 N 
BRANCH  19  20
ATOM     20  C   UNL     1      -2.657  -2.504   0.043  0.00  0.00    +0.071 C 
ATOM     21  C   UNL     1      -1.485  -2.583   1.023  0.00  0.00    +0.028 C 
ATOM     22  C   UNL     1      -2.130  -2.584  -1.391  0.00  0.00    +0.028 C 
ENDBRANCH  19  20
BRANCH  17  23
ATOM     23  C   UNL     1      -5.367  -1.957   0.668  0.00  0.00    +0.096 C 
BRANCH  23  25
ATOM     24  C   UNL     1      -7.364  -0.519   1.102  0.00  0.00    +0.004 C 
ATOM     25  C   UNL     1      -6.856  -1.960   1.020  0.00  0.00    +0.006 C 
ENDBRANCH  23  25
ENDBRANCH  17  23
ENDBRANCH  15  19
ENDBRANCH   1  15
TORSDOF 8
