REMARK  Name = ZINC22504719
REMARK  11 active torsions:
REMARK  status: ('A' for Active; 'I' for Inactive)
REMARK    1  A    between atoms: C_1  and  C_2
REMARK    2  A    between atoms: C_2  and  C_4
REMARK    3  A    between atoms: C_2  and  N_32
REMARK    4  A    between atoms: C_7  and  S_16
REMARK    5  A    between atoms: N_8  and  C_9
REMARK    6  A    between atoms: S_16  and  C_17
REMARK    7  A    between atoms: C_17  and  C_18
REMARK    8  A    between atoms: N_20  and  C_21
REMARK    9  A    between atoms: N_20  and  C_29
REMARK   10  A    between atoms: N_32  and  C_33
REMARK   11  A    between atoms: N_32  and  C_34
REMARK                            x       y       z     vdW  Elec       q    Type
REMARK                         _______ _______ _______ _____ _____    ______ ____
ROOT
ATOM      1  C   UNL     1      -0.344  -1.744  -1.586  0.00  0.00    +0.125 A 
ATOM      2  N   UNL     1      -0.662  -1.662  -2.847  0.00  0.00    -0.135 NA
ATOM      3  N   UNL     1       0.357  -1.939  -3.579  0.00  0.00    -0.122 NA
ATOM      4  C   UNL     1       1.392  -2.217  -2.819  0.00  0.00    +0.197 A 
ATOM      5  N   UNL     1       0.978  -2.095  -1.521  0.00  0.00    -0.275 N 
ENDROOT
BRANCH   5   6
ATOM      6  C   UNL     1       1.747  -2.292  -0.364  0.00  0.00    +0.050 A 
ATOM      7  C   UNL     1       1.998  -1.230   0.493  0.00  0.00    +0.028 A 
ATOM      8  C   UNL     1       2.755  -1.426   1.631  0.00  0.00    +0.022 A 
ATOM      9  C   UNL     1       3.263  -2.681   1.918  0.00  0.00    +0.041 A 
ATOM     10  C   UNL     1       3.013  -3.742   1.065  0.00  0.00    +0.022 A 
ATOM     11  C   UNL     1       2.252  -3.552  -0.071  0.00  0.00    +0.028 A 
ATOM     12 CL   UNL     1       4.215  -2.925   3.349  0.00  0.00    -0.084 Cl
ENDBRANCH   5   6
BRANCH   1  14
ATOM     13  C   UNL     1      -1.493   0.011  -0.264  0.00  0.00    -0.005 C 
ATOM     14  C   UNL     1      -1.261  -1.493  -0.416  0.00  0.00    -0.003 C 
BRANCH  14  15
ATOM     15  N   UNL     1      -2.546  -2.166  -0.647  0.00  0.00    +0.382 N 
ATOM     16  C   UNL     1      -2.322  -3.611  -0.793  0.00  0.00    -0.096 C 
ATOM     17  C   UNL     1      -3.439  -1.922   0.493  0.00  0.00    -0.096 C 
ATOM     18  H   UNL     1      -2.968  -1.804  -1.489  0.00  0.00    -0.082 HD
ENDBRANCH  14  15
ENDBRANCH   1  14
BRANCH   4  19
ATOM     19  S   UNL     1       3.008  -2.655  -3.367  0.00  0.00    -0.076 S 
BRANCH  19  20
ATOM     20  C   UNL     1       2.880  -2.625  -5.176  0.00  0.00    +0.173 C 
BRANCH  20  21
ATOM     21  C   UNL     1       4.213  -2.987  -5.780  0.00  0.00    +0.226 C 
ATOM     22  O   UNL     1       5.156  -3.240  -5.060  0.00  0.00    -0.275 OA
ATOM     23  N   UNL     1       4.357  -3.030  -7.119  0.00  0.00    -0.293 N 
BRANCH  23  24
ATOM     24  C   UNL     1       5.620  -3.486  -7.706  0.00  0.00    +0.099 C 
ATOM     25  C   UNL     1       5.921  -4.920  -7.240  0.00  0.00    +0.046 C 
ATOM     26  C   UNL     1       7.383  -5.291  -7.585  0.00  0.00    +0.168 C 
ATOM     27  S   UNL     1       8.230  -3.658  -7.562  0.00  0.00    -0.029 S 
ATOM     28  O   UNL     1       9.111  -3.609  -6.448  0.00  0.00    -0.174 OA
ATOM     29  O   UNL     1       8.731  -3.379  -8.863  0.00  0.00    -0.174 OA
ATOM     30  C   UNL     1       6.782  -2.568  -7.230  0.00  0.00    +0.188 C 
ENDBRANCH  23  24
BRANCH  23  31
ATOM     31  C   UNL     1       3.251  -2.620  -7.988  0.00  0.00    +0.077 C 
ATOM     32  C   UNL     1       3.337  -3.000  -9.468  0.00  0.00    +0.024 C 
ATOM     33  C   UNL     1       3.538  -1.545  -9.038  0.00  0.00    +0.024 C 
ENDBRANCH  23  31
ENDBRANCH  20  21
ENDBRANCH  19  20
ENDBRANCH   4  19
TORSDOF 8
