REMARK  Name = ZINC27531053
REMARK  7 active torsions:
REMARK  status: ('A' for Active; 'I' for Inactive)
REMARK    1  A    between atoms: C_1  and  C_2
REMARK    2  A    between atoms: C_5  and  C_8
REMARK    3  A    between atoms: C_8  and  C_10
REMARK    4  A    between atoms: C_11  and  N_37
REMARK    5  A    between atoms: N_12  and  C_31
REMARK    6  A    between atoms: C_15  and  C_17
REMARK    7  A    between atoms: C_21  and  N_23
REMARK                            x       y       z     vdW  Elec       q    Type
REMARK                         _______ _______ _______ _____ _____    ______ ____
ROOT
ATOM      1  C   UNL     1       2.475   0.146  -0.297  0.00  0.00    +0.048 C 
ATOM      2  C   UNL     1       2.433   1.520  -0.308  0.00  0.00    +0.100 C 
ATOM      3  N   UNL     1       1.239   2.170  -0.115  0.00  0.00    -0.261 N 
ATOM      4  C   UNL     1       0.049   1.517  -0.306  0.00  0.00    +0.024 C 
ATOM      5  C   UNL     1      -0.007   0.169  -0.300  0.00  0.00    +0.024 C 
ATOM      6  C   UNL     1       1.230  -0.660  -0.067  0.00  0.00    +0.091 C 
ATOM      7  C   UNL     1      -1.223  -0.506  -0.513  0.00  0.00    +0.162 C 
ATOM      8  O   UNL     1      -1.241  -1.721  -0.492  0.00  0.00    -0.292 OA
ATOM      9  C   UNL     1      -2.500   0.246  -0.766  0.00  0.00    +0.080 C 
ATOM     10  C   UNL     1      -2.167   1.588  -1.426  0.00  0.00    +0.014 C 
ATOM     11  C   UNL     1      -1.195   2.345  -0.516  0.00  0.00    +0.052 C 
ENDROOT
BRANCH   6  12
ATOM     12  C   UNL     1       1.226  -1.167   1.352  0.00  0.00    -0.033 A 
ATOM     13  C   UNL     1       1.293  -0.273   2.405  0.00  0.00    +0.005 A 
ATOM     14  C   UNL     1       1.289  -0.737   3.707  0.00  0.00    +0.003 A 
ATOM     15  C   UNL     1       1.218  -2.095   3.956  0.00  0.00    +0.033 A 
ATOM     16  C   UNL     1       1.151  -2.989   2.904  0.00  0.00    +0.126 A 
ATOM     17  C   UNL     1       1.150  -2.524   1.602  0.00  0.00    +0.037 A 
BRANCH  16  18
ATOM     18  N   UNL     1       1.076  -4.443   3.171  0.00  0.00    +0.056 N 
ATOM     19  O   UNL     1       1.073  -4.852   4.318  0.00  0.00    -0.126 OA
ATOM     20  O   UNL     1       1.017  -5.230   2.243  0.00  0.00    -0.126 OA
ENDBRANCH  16  18
ENDBRANCH   6  12
BRANCH   3  21
ATOM     21  C   UNL     1       1.238   3.513   0.280  0.00  0.00    +0.040 A 
ATOM     22  C   UNL     1       0.914   3.854   1.587  0.00  0.00    +0.024 A 
ATOM     23  C   UNL     1       0.917   5.179   1.975  0.00  0.00    +0.002 A 
ATOM     24  C   UNL     1       1.233   6.168   1.061  0.00  0.00    +0.000 A 
ATOM     25  C   UNL     1       1.551   5.833  -0.242  0.00  0.00    +0.002 A 
ATOM     26  C   UNL     1       1.554   4.509  -0.635  0.00  0.00    +0.024 A 
ENDBRANCH   3  21
BRANCH   2  27
ATOM     27  N   UNL     1       3.581   2.239  -0.512  0.00  0.00    -0.346 N 
ATOM     28  H   UNL     1       3.547   3.338  -0.522  0.00  0.00    +0.143 HD
ATOM     29  H   UNL     1       4.537   1.717  -0.667  0.00  0.00    +0.143 HD
ENDBRANCH   2  27
BRANCH   1  30
ATOM     30  C   UNL     1       3.696  -0.511  -0.503  0.00  0.00    +0.193 C 
ATOM     31  O   UNL     1       4.598  -0.391   0.310  0.00  0.00    -0.287 OA
BRANCH  30  36
ATOM     32  C   UNL     1       4.456  -3.775  -5.183  0.00  0.00    +0.044 C 
ATOM     33  C   UNL     1       4.258  -2.920  -3.958  0.00  0.00    -0.050 A 
ATOM     34  C   UNL     1       5.254  -2.845  -3.002  0.00  0.00    +0.004 A 
ATOM     35  C   UNL     1       5.078  -2.064  -1.878  0.00  0.00    +0.012 A 
ATOM     36  C   UNL     1       3.892  -1.350  -1.707  0.00  0.00    +0.022 A 
ATOM     37  C   UNL     1       2.889  -1.434  -2.673  0.00  0.00    +0.012 A 
ATOM     38  C   UNL     1       3.079  -2.214  -3.795  0.00  0.00    +0.004 A 
ENDBRANCH  30  36
ENDBRANCH   1  30
TORSDOF 6
