REMARK  Name = ZINC54667857
REMARK  8 active torsions:
REMARK  status: ('A' for Active; 'I' for Inactive)
REMARK    1  A    between atoms: C_1  and  C_2
REMARK    2  A    between atoms: C_7  and  C_10
REMARK    3  A    between atoms: C_10  and  N_11
REMARK    4  A    between atoms: C_12  and  C_14
REMARK    5  A    between atoms: C_17  and  C_20
REMARK    6  A    between atoms: C_20  and  C_21
REMARK    7  A    between atoms: C_20  and  C_22
REMARK    8  A    between atoms: C_20  and  C_23
REMARK                            x       y       z     vdW  Elec       q    Type
REMARK                         _______ _______ _______ _____ _____    ______ ____
ROOT
ATOM      1  N   UNL     1       0.708  -1.812   3.674  0.00  0.00    -0.317 N 
ATOM      2  C   UNL     1       1.138  -2.097   4.919  0.00  0.00    +0.216 C 
ATOM      3  O   UNL     1       2.049  -2.881   5.081  0.00  0.00    -0.276 OA
ATOM      4  H   UNL     1      -0.021  -1.185   3.544  0.00  0.00    +0.149 HD
ENDROOT
BRANCH   2   5
ATOM      5  C   UNL     1       0.487  -1.442   6.109  0.00  0.00    +0.075 C 
ATOM      6  C   UNL     1       0.641   0.076   6.004  0.00  0.00    +0.013 C 
ATOM      7  C   UNL     1      -0.019   0.742   7.213  0.00  0.00    +0.005 C 
ATOM      8  C   UNL     1       0.652   0.249   8.496  0.00  0.00    -0.006 C 
ATOM      9  C   UNL     1       0.497  -1.270   8.602  0.00  0.00    +0.005 C 
ATOM     10  C   UNL     1       1.158  -1.935   7.393  0.00  0.00    +0.013 C 
BRANCH   8  11
ATOM     11  C   UNL     1      -0.009   0.914   9.705  0.00  0.00    -0.035 C 
ATOM     12  C   UNL     1      -1.496   0.554   9.736  0.00  0.00    +0.011 C 
ATOM     13  C   UNL     1       0.662   0.422  10.989  0.00  0.00    +0.011 C 
ATOM     14  C   UNL     1       0.145   2.433   9.599  0.00  0.00    +0.011 C 
ENDBRANCH   8  11
ENDBRANCH   2   5
BRANCH   1  15
ATOM     15  C   UNL     1       1.341  -2.449   2.516  0.00  0.00    +0.088 C 
BRANCH  15  21
ATOM     16  C   UNL     1      -0.019   1.526   0.010  0.00  0.00    -0.014 C 
ATOM     17  C   UNL     1       0.002  -0.004   0.002  0.00  0.00    -0.075 C 
ATOM     18  C   UNL     1       0.717  -0.497  -1.258  0.00  0.00    -0.016 C 
ATOM     19  C   UNL     1       0.735  -2.028  -1.262  0.00  0.00    -0.003 C 
ATOM     20  C   UNL     1       1.410  -2.524   0.020  0.00  0.00    -0.014 C 
ATOM     21  C   UNL     1       0.669  -1.956   1.232  0.00  0.00    -0.054 C 
ATOM     22  N   UNL     1       0.711  -0.490   1.192  0.00  0.00    +0.384 N 
ATOM     23  H   UNL     1       1.671  -0.182   1.159  0.00  0.00    -0.085 HD
ATOM     24  H   UNL     1       0.269  -0.119   2.020  0.00  0.00    -0.085 HD
ENDBRANCH  15  21
ENDBRANCH   1  15
TORSDOF 4
