REMARK  Name = ZINC59807070
REMARK  8 active torsions:
REMARK  status: ('A' for Active; 'I' for Inactive)
REMARK    1  A    between atoms: C_4  and  S_7
REMARK    2  A    between atoms: S_7  and  C_8
REMARK    3  A    between atoms: C_13  and  N_14
REMARK    4  A    between atoms: C_15  and  C_17
REMARK    5  A    between atoms: C_17  and  N_18
REMARK    6  A    between atoms: N_18  and  C_19
REMARK    7  A    between atoms: C_24  and  N_25
REMARK    8  A    between atoms: C_28  and  O_31
REMARK                            x       y       z     vdW  Elec       q    Type
REMARK                         _______ _______ _______ _____ _____    ______ ____
ROOT
ATOM      1  C   UNL     1       8.190  -3.554   0.088  0.00  0.00    +0.198 C 
ENDROOT
BRANCH   1   3
ATOM      2  N   UNL     1       5.782  -2.998   0.177  0.00  0.00    -0.283 N 
ATOM      3  C   UNL     1       6.739  -3.946   0.197  0.00  0.00    +0.234 C 
ATOM      4  O   UNL     1       6.434  -5.115   0.301  0.00  0.00    -0.274 OA
ATOM      5  H   UNL     1       6.028  -2.060   0.159  0.00  0.00    +0.155 HD
BRANCH   2  11
ATOM      6  C   UNL     1       3.493  -2.605  -0.512  0.00  0.00    +0.034 A 
ATOM      7  C   UNL     1       2.156  -2.979  -0.505  0.00  0.00    +0.017 A 
ATOM      8  C   UNL     1       1.758  -4.102   0.194  0.00  0.00    +0.001 A 
ATOM      9  C   UNL     1       2.686  -4.855   0.889  0.00  0.00    +0.002 A 
ATOM     10  C   UNL     1       4.019  -4.489   0.889  0.00  0.00    +0.024 A 
ATOM     11  C   UNL     1       4.430  -3.368   0.184  0.00  0.00    +0.047 A 
BRANCH   6  12
ATOM     12  S   UNL     1       4.005  -1.174  -1.404  0.00  0.00    -0.088 S 
BRANCH  12  16
ATOM     13  C   UNL     1       0.130   0.630  -2.902  0.00  0.00    +0.000 A 
ATOM     14  C   UNL     1       0.584   0.929  -1.630  0.00  0.00    +0.001 A 
ATOM     15  C   UNL     1       1.764   0.381  -1.170  0.00  0.00    +0.015 A 
ATOM     16  C   UNL     1       2.497  -0.472  -1.986  0.00  0.00    +0.013 A 
ATOM     17  C   UNL     1       2.038  -0.771  -3.264  0.00  0.00    +0.015 A 
ATOM     18  C   UNL     1       0.856  -0.219  -3.717  0.00  0.00    +0.001 A 
ENDBRANCH  12  16
ENDBRANCH   6  12
ENDBRANCH   2  11
ENDBRANCH   1   3
BRANCH   1  19
ATOM     19  N   UNL     1       9.026  -4.756   0.133  0.00  0.00    -0.334 N 
ATOM     20  H   UNL     1       8.615  -5.630   0.221  0.00  0.00    +0.147 HD
BRANCH  19  21
ATOM     21  C   UNL     1      10.416  -4.644   0.049  0.00  0.00    +0.047 A 
ATOM     22  C   UNL     1      11.014  -3.390   0.030  0.00  0.00    +0.025 A 
ATOM     23  C   UNL     1      12.388  -3.283  -0.052  0.00  0.00    +0.002 A 
ATOM     24  C   UNL     1      13.169  -4.422  -0.117  0.00  0.00    +0.002 A 
ATOM     25  C   UNL     1      12.578  -5.672  -0.100  0.00  0.00    +0.023 A 
ATOM     26  C   UNL     1      11.204  -5.786  -0.011  0.00  0.00    +0.035 A 
BRANCH  26  27
ATOM     27  N   UNL     1      10.607  -7.050   0.013  0.00  0.00    -0.392 NA
ATOM     28  C   UNL     1      11.038  -7.815  -1.163  0.00  0.00    +0.087 C 
ATOM     29  C   UNL     1      10.325  -9.169  -1.185  0.00  0.00    +0.048 C 
ATOM     30  C   UNL     1      10.676  -9.945   0.088  0.00  0.00    +0.117 C 
ATOM     31  C   UNL     1      10.290  -9.105   1.309  0.00  0.00    +0.048 C 
ATOM     32  C   UNL     1      11.005  -7.754   1.238  0.00  0.00    +0.087 C 
ATOM     33  H   UNL     1       9.604  -6.947  -0.004  0.00  0.00    +0.126 HD
BRANCH  30  34
ATOM     34  O   UNL     1       9.956 -11.179   0.109  0.00  0.00    -0.392 OA
ATOM     35  H   UNL     1      10.130 -11.723   0.889  0.00  0.00    +0.210 HD
ENDBRANCH  30  34
ENDBRANCH  26  27
ENDBRANCH  19  21
ENDBRANCH   1  19
TORSDOF 8
