REMARK  Name = ZINC58964151
REMARK  8 active torsions:
REMARK  status: ('A' for Active; 'I' for Inactive)
REMARK    1  A    between atoms: C_1  and  C_2
REMARK    2  A    between atoms: C_2  and  C_4
REMARK    3  A    between atoms: C_2  and  S_15
REMARK    4  A    between atoms: N_6  and  C_7
REMARK    5  A    between atoms: C_12  and  O_13
REMARK    6  A    between atoms: S_15  and  C_16
REMARK    7  A    between atoms: C_18  and  C_26
REMARK    8  A    between atoms: C_20  and  C_22
REMARK                            x       y       z     vdW  Elec       q    Type
REMARK                         _______ _______ _______ _____ _____    ______ ____
ROOT
ATOM      1  C   UNL     1       2.524  -0.002   1.248  0.00  0.00    +0.190 A 
ATOM      2  N   UNL     1       3.437  -0.280   2.166  0.00  0.00    -0.222 NA
ATOM      3  C   UNL     1       4.692   0.141   2.022  0.00  0.00    +0.076 A 
ATOM      4  C   UNL     1       5.032   0.881   0.885  0.00  0.00    +0.060 A 
ATOM      5  C   UNL     1       4.046   1.147  -0.048  0.00  0.00    +0.148 A 
ATOM      6  N   UNL     1       2.820   0.693   0.159  0.00  0.00    -0.218 NA
ENDROOT
BRANCH   3   7
ATOM      7  C   UNL     1       5.713  -0.170   3.050  0.00  0.00    +0.004 A 
ATOM      8  C   UNL     1       7.023   0.281   2.893  0.00  0.00    +0.014 A 
ATOM      9  C   UNL     1       7.972  -0.009   3.851  0.00  0.00    +0.050 A 
ATOM     10  C   UNL     1       7.627  -0.748   4.973  0.00  0.00    +0.166 A 
ATOM     11  C   UNL     1       6.319  -1.201   5.136  0.00  0.00    +0.167 A 
ATOM     12  C   UNL     1       5.363  -0.908   4.181  0.00  0.00    +0.059 A 
ATOM     13  O   UNL     1       6.240  -1.895   6.309  0.00  0.00    -0.453 OA
ATOM     14  C   UNL     1       7.601  -2.212   6.659  0.00  0.00    +0.466 C 
ATOM     15  O   UNL     1       8.367  -1.160   6.044  0.00  0.00    -0.453 OA
ENDBRANCH   3   7
BRANCH   5  16
ATOM     16  C   UNL     1       4.366   1.942  -1.288  0.00  0.00    +0.434 C 
ATOM     17  F   UNL     1       4.766   1.072  -2.308  0.00  0.00    -0.164 F 
ATOM     18  F   UNL     1       3.229   2.647  -1.695  0.00  0.00    -0.164 F 
ATOM     19  F   UNL     1       5.399   2.843  -1.011  0.00  0.00    -0.164 F 
ENDBRANCH   5  16
BRANCH   1  20
ATOM     20  S   UNL     1       0.875  -0.578   1.476  0.00  0.00    -0.074 S 
BRANCH  20  22
ATOM     21  C   UNL     1      -0.038   1.544   0.012  0.00  0.00    +0.029 C 
ATOM     22  C   UNL     1      -0.005   0.014   0.005  0.00  0.00    +0.137 C 
BRANCH  22  23
ATOM     23  C   UNL     1      -1.415  -0.519   0.014  0.00  0.00    +0.230 C 
ATOM     24  O   UNL     1      -1.941  -0.824   1.063  0.00  0.00    -0.274 OA
ATOM     25  N   UNL     1      -2.090  -0.657  -1.144  0.00  0.00    -0.282 N 
ATOM     26  H   UNL     1      -1.694  -0.354  -1.976  0.00  0.00    +0.155 HD
BRANCH  25  27
ATOM     27  C   UNL     1      -3.365  -1.240  -1.147  0.00  0.00    +0.077 A 
ATOM     28  C   UNL     1      -4.226  -1.033  -0.079  0.00  0.00    +0.047 A 
ATOM     29  C   UNL     1      -5.483  -1.609  -0.084  0.00  0.00    +0.043 A 
ATOM     30  C   UNL     1      -5.885  -2.390  -1.152  0.00  0.00    +0.023 A 
ATOM     31  C   UNL     1      -5.032  -2.600  -2.220  0.00  0.00    +0.049 A 
ATOM     32  C   UNL     1      -3.773  -2.022  -2.224  0.00  0.00    +0.138 A 
ATOM     33 CL   UNL     1      -6.559  -1.350   1.254  0.00  0.00    -0.083 Cl
BRANCH  32  34
ATOM     34  O   UNL     1      -2.935  -2.223  -3.277  0.00  0.00    -0.505 OA
ATOM     35  H   UNL     1      -2.365  -2.998  -3.184  0.00  0.00    +0.292 HD
ENDBRANCH  32  34
ENDBRANCH  25  27
ENDBRANCH  22  23
ENDBRANCH  20  22
ENDBRANCH   1  20
TORSDOF 7
