REMARK  Name = ZINC09691572
REMARK  5 active torsions:
REMARK  status: ('A' for Active; 'I' for Inactive)
REMARK    1  A    between atoms: C_1  and  C_2
REMARK    2  A    between atoms: C_2  and  C_4
REMARK    3  A    between atoms: C_2  and  S_11
REMARK    4  A    between atoms: S_11  and  C_12
REMARK    5  A    between atoms: C_15  and  C_17
REMARK                            x       y       z     vdW  Elec       q    Type
REMARK                         _______ _______ _______ _____ _____    ______ ____
ROOT
ATOM      1  C   UNL     1      -4.579   4.436  -0.083  0.00  0.00    +0.278 A 
ATOM      2  N   UNL     1      -3.868   5.534   0.043  0.00  0.00    -0.101 NA
ATOM      3  N   UNL     1      -2.616   5.237   0.018  0.00  0.00    -0.106 NA
ATOM      4  C   UNL     1      -2.478   3.943  -0.134  0.00  0.00    +0.249 A 
ATOM      5  O   UNL     1      -3.717   3.408  -0.197  0.00  0.00    -0.411 OA
ENDROOT
BRANCH   4   6
ATOM      6  C   UNL     1      -1.202   3.204  -0.214  0.00  0.00    +0.041 A 
ATOM      7  C   UNL     1      -1.184   1.812  -0.377  0.00  0.00    +0.033 A 
ATOM      8  C   UNL     1       0.030   1.162  -0.442  0.00  0.00    +0.111 A 
ATOM      9  N   UNL     1       1.163   1.834  -0.363  0.00  0.00    -0.263 NA
ATOM     10  C   UNL     1       1.192   3.145  -0.215  0.00  0.00    +0.111 A 
ATOM     11  C   UNL     1       0.025   3.875  -0.135  0.00  0.00    +0.033 A 
ENDBRANCH   4   6
BRANCH   1  12
ATOM     12  S   UNL     1      -6.338   4.329  -0.099  0.00  0.00    -0.058 S 
BRANCH  12  14
ATOM     13  C   UNL     1      -6.290   6.566   1.469  0.00  0.00    +0.024 C 
ATOM     14  C   UNL     1      -6.761   6.078   0.097  0.00  0.00    +0.084 C 
BRANCH  14  15
ATOM     15  C   UNL     1      -8.254   6.248  -0.011  0.00  0.00    -0.016 A 
ATOM     16  C   UNL     1      -9.095   5.199   0.311  0.00  0.00    +0.006 A 
ATOM     17  C   UNL     1     -10.465   5.356   0.211  0.00  0.00    +0.000 A 
ATOM     18  C   UNL     1     -10.995   6.561  -0.210  0.00  0.00    +0.001 A 
ATOM     19  C   UNL     1     -10.155   7.611  -0.531  0.00  0.00    +0.020 A 
ATOM     20  C   UNL     1      -8.784   7.457  -0.427  0.00  0.00    +0.045 A 
ATOM     21 CL   UNL     1      -7.729   8.777  -0.824  0.00  0.00    -0.083 Cl
ENDBRANCH  14  15
ENDBRANCH  12  14
ENDBRANCH   1  12
TORSDOF 4
