REMARK  Name = ZINC39607274
REMARK  8 active torsions:
REMARK  status: ('A' for Active; 'I' for Inactive)
REMARK    1  A    between atoms: C_1  and  C_2
REMARK    2  A    between atoms: C_5  and  C_9
REMARK    3  A    between atoms: C_6  and  C_8
REMARK    4  A    between atoms: C_9  and  N_10
REMARK    5  A    between atoms: C_11  and  C_13
REMARK    6  A    between atoms: C_24  and  C_26
REMARK    7  A    between atoms: C_33  and  C_37
REMARK    8  A    between atoms: N_35  and  C_36
REMARK                            x       y       z     vdW  Elec       q    Type
REMARK                         _______ _______ _______ _____ _____    ______ ____
ROOT
ATOM      1  C   UNL     1      -2.911  -6.626   0.511  0.00  0.00    +0.100 C 
ATOM      2  C   UNL     1      -3.893  -6.094  -0.556  0.00  0.00    +0.121 C 
ATOM      3  N   UNL     1      -3.941  -7.160  -1.585  0.00  0.00    -0.296 N 
ATOM      4  C   UNL     1      -3.924  -8.423  -0.808  0.00  0.00    +0.115 C 
ATOM      5  C   UNL     1      -2.937  -8.155   0.345  0.00  0.00    -0.004 C 
ATOM      6  C   UNL     1      -3.431  -8.817   1.628  0.00  0.00    -0.010 C 
ATOM      7  C   UNL     1      -3.393 -10.339   1.458  0.00  0.00    -0.082 C 
ATOM      8  N   UNL     1      -2.020 -10.766   1.161  0.00  0.00    +0.379 N 
ATOM      9  C   UNL     1      -1.586 -10.198  -0.122  0.00  0.00    -0.082 C 
ATOM     10  C   UNL     1      -1.548  -8.671  -0.019  0.00  0.00    -0.010 C 
ATOM     11  C   UNL     1      -3.990  -7.014  -2.924  0.00  0.00    +0.250 C 
ATOM     12  O   UNL     1      -3.900  -5.907  -3.419  0.00  0.00    -0.270 OA
ATOM     13  H   UNL     1      -1.404 -10.447   1.894  0.00  0.00    -0.086 HD
ATOM     14  H   UNL     1      -1.986 -11.773   1.110  0.00  0.00    -0.086 HD
ENDROOT
BRANCH  11  15
ATOM     15  C   UNL     1      -4.152  -8.198  -3.790  0.00  0.00    +0.074 A 
ATOM     16  C   UNL     1      -4.942  -9.279  -3.373  0.00  0.00    +0.127 A 
ATOM     17  N   UNL     1      -5.100 -10.341  -4.128  0.00  0.00    -0.235 NA
ATOM     18  C   UNL     1      -4.522 -10.447  -5.321  0.00  0.00    +0.160 A 
ATOM     19  C   UNL     1      -3.712  -9.403  -5.812  0.00  0.00    +0.060 A 
ATOM     20  C   UNL     1      -3.526  -8.255  -5.037  0.00  0.00    +0.067 A 
ATOM     21 CL   UNL     1      -2.542  -6.941  -5.604  0.00  0.00    -0.082 Cl
ATOM     22  C   UNL     1      -3.239  -9.831  -7.125  0.00  0.00    +0.071 A 
ATOM     23  N   UNL     1      -3.736 -11.011  -7.357  0.00  0.00    -0.174 NA
ATOM     24  N   UNL     1      -4.525 -11.421  -6.279  0.00  0.00    -0.249 N 
ATOM     25  C   UNL     1      -5.242 -12.696  -6.189  0.00  0.00    +0.174 C 
ATOM     26  C   UNL     1      -2.338  -9.047  -8.045  0.00  0.00    +0.068 C 
ENDBRANCH  11  15
BRANCH   1  28
ATOM     27  N   UNL     1      -0.682  -5.890   1.292  0.00  0.00    -0.311 N 
ATOM     28  C   UNL     1      -1.523  -6.095   0.259  0.00  0.00    +0.218 C 
ATOM     29  O   UNL     1      -1.164  -5.851  -0.873  0.00  0.00    -0.275 OA
ATOM     30  H   UNL     1      -0.970  -6.085   2.198  0.00  0.00    +0.149 HD
BRANCH  27  31
ATOM     31  C   UNL     1       0.666  -5.373   1.048  0.00  0.00    +0.139 C 
BRANCH  31  36
ATOM     32  C   UNL     1       3.467  -4.849   6.075  0.00  0.00    +0.044 C 
ATOM     33  C   UNL     1       2.737  -4.986   4.764  0.00  0.00    -0.050 A 
ATOM     34  C   UNL     1       2.167  -3.874   4.170  0.00  0.00    +0.004 A 
ATOM     35  C   UNL     1       1.498  -4.000   2.968  0.00  0.00    +0.006 A 
ATOM     36  C   UNL     1       1.398  -5.236   2.358  0.00  0.00    -0.027 A 
ATOM     37  C   UNL     1       1.968  -6.347   2.951  0.00  0.00    -0.046 A 
ATOM     38  C   UNL     1       2.641  -6.221   4.152  0.00  0.00    +0.007 A 
ATOM     39  C   UNL     1       1.858  -7.695   2.286  0.00  0.00    +0.044 C 
ENDBRANCH  31  36
ENDBRANCH  27  31
ENDBRANCH   1  28
TORSDOF 4
