REMARK  Name = ZINC36894203
REMARK  7 active torsions:
REMARK  status: ('A' for Active; 'I' for Inactive)
REMARK    1  A    between atoms: C_1  and  C_2
REMARK    2  A    between atoms: C_2  and  C_3
REMARK    3  A    between atoms: C_3  and  S_4
REMARK    4  A    between atoms: S_4  and  N_7
REMARK    5  A    between atoms: N_7  and  C_8
REMARK    6  A    between atoms: C_11  and  C_14
REMARK    7  A    between atoms: C_15  and  C_20
REMARK                            x       y       z     vdW  Elec       q    Type
REMARK                         _______ _______ _______ _____ _____    ______ ____
ROOT
ATOM      1  C   UNL     1       0.875  -2.348   3.876  0.00  0.00    +0.048 A 
ATOM      2  C   UNL     1       0.133  -1.180   3.999  0.00  0.00    +0.025 A 
ATOM      3  C   UNL     1      -0.503  -0.887   5.187  0.00  0.00    +0.012 A 
ATOM      4  C   UNL     1      -0.401  -1.764   6.265  0.00  0.00    +0.001 A 
ATOM      5  C   UNL     1       0.344  -2.936   6.140  0.00  0.00    +0.012 A 
ATOM      6  C   UNL     1       0.974  -3.227   4.949  0.00  0.00    +0.025 A 
ENDROOT
BRANCH   4   7
ATOM      7  C   UNL     1      -1.084  -1.451   7.544  0.00  0.00    +0.083 A 
ATOM      8  C   UNL     1      -1.610  -2.453   8.309  0.00  0.00    +0.016 A 
ATOM      9  S   UNL     1      -2.279  -1.515   9.675  0.00  0.00    -0.057 S 
ATOM     10  C   UNL     1      -1.795   0.105   9.095  0.00  0.00    +0.156 A 
ATOM     11  N   UNL     1      -1.186  -0.191   7.962  0.00  0.00    -0.225 NA
ATOM     12  N   UNL     1      -2.000   1.343   9.682  0.00  0.00    -0.338 N 
ATOM     13  C   UNL     1      -1.623  -3.941   8.067  0.00  0.00    +0.054 C 
ATOM     14  H   UNL     1      -2.467   1.407  10.530  0.00  0.00    +0.144 HD
ATOM     15  H   UNL     1      -1.677   2.147   9.245  0.00  0.00    +0.144 HD
ENDBRANCH   4   7
BRANCH   1  16
ATOM     16  N   UNL     1       1.519  -2.642   2.672  0.00  0.00    -0.221 N 
ATOM     17  H   UNL     1       2.480  -2.535   2.597  0.00  0.00    +0.173 HD
BRANCH  16  18
ATOM     18  S   UNL     1       0.642  -3.175   1.373  0.00  0.00    +0.043 S 
ATOM     19  O   UNL     1       1.602  -3.377   0.345  0.00  0.00    -0.155 OA
ATOM     20  O   UNL     1      -0.394  -2.215   1.217  0.00  0.00    -0.155 OA
BRANCH  18  21
ATOM     21  C   UNL     1      -0.054  -4.765   1.900  0.00  0.00    +0.188 C 
BRANCH  21  23
ATOM     22  C   UNL     1      -1.415  -6.734   1.185  0.00  0.00    +0.005 C 
ATOM     23  C   UNL     1      -0.829  -5.393   0.740  0.00  0.00    +0.021 C 
ENDBRANCH  21  23
ENDBRANCH  18  21
ENDBRANCH  16  18
ENDBRANCH   1  16
TORSDOF 5
