REMARK  Name = ZINC41584983
REMARK  7 active torsions:
REMARK  status: ('A' for Active; 'I' for Inactive)
REMARK    1  A    between atoms: C_1  and  C_2
REMARK    2  A    between atoms: C_4  and  O_37
REMARK    3  A    between atoms: C_5  and  C_20
REMARK    4  A    between atoms: C_11  and  C_12
REMARK    5  A    between atoms: C_20  and  N_21
REMARK    6  A    between atoms: N_24  and  C_27
REMARK    7  A    between atoms: C_27  and  C_28
REMARK                            x       y       z     vdW  Elec       q    Type
REMARK                         _______ _______ _______ _____ _____    ______ ____
ROOT
ATOM      1  C   UNL     1      -0.086   1.509   0.016  0.00  0.00    +0.045 C 
ATOM      2  C   UNL     1      -0.072   0.002   0.006  0.00  0.00    -0.033 A 
ATOM      3  C   UNL     1      -0.092  -0.674  -1.181  0.00  0.00    +0.050 A 
ATOM      4  C   UNL     1      -0.080  -2.066  -1.193  0.00  0.00    +0.122 A 
ATOM      5  C   UNL     1      -0.047  -2.781  -0.007  0.00  0.00    +0.020 A 
ATOM      6  C   UNL     1      -0.026  -2.109   1.209  0.00  0.00    +0.145 A 
ATOM      7  C   UNL     1      -0.034  -0.705   1.208  0.00  0.00    +0.071 A 
ATOM      8  C   UNL     1      -0.000  -0.288   2.622  0.00  0.00    +0.232 C 
ATOM      9  O   UNL     1       0.000   0.847   3.065  0.00  0.00    -0.283 OA
ATOM     10  C   UNL     1       0.031  -1.550   3.377  0.00  0.00    +0.176 C 
ATOM     11  C   UNL     1       0.068  -1.675   4.728  0.00  0.00    +0.058 C 
ATOM     12  O   UNL     1       0.006  -2.564   2.480  0.00  0.00    -0.451 OA
ENDROOT
BRANCH  11  13
ATOM     13  C   UNL     1      -0.019  -3.005   5.345  0.00  0.00    -0.021 A 
ATOM     14  C   UNL     1      -0.116  -3.130   6.736  0.00  0.00    +0.011 A 
ATOM     15  C   UNL     1      -0.197  -4.381   7.308  0.00  0.00    +0.039 A 
ATOM     16  C   UNL     1      -0.182  -5.515   6.509  0.00  0.00    +0.123 A 
ATOM     17  C   UNL     1      -0.086  -5.398   5.130  0.00  0.00    +0.039 A 
ATOM     18  C   UNL     1      -0.010  -4.154   4.544  0.00  0.00    +0.011 A 
ATOM     19  F   UNL     1      -0.262  -6.738   7.076  0.00  0.00    -0.205 F 
ENDBRANCH  11  13
BRANCH   4  20
ATOM     20  O   UNL     1      -0.100  -2.729  -2.378  0.00  0.00    -0.506 OA
ATOM     21  H   UNL     1       0.778  -2.913  -2.740  0.00  0.00    +0.292 HD
ENDBRANCH   4  20
BRANCH   5  22
ATOM     22  C   UNL     1      -0.035  -4.288  -0.035  0.00  0.00    -0.035 C 
BRANCH  22  23
ATOM     23  N   UNL     1       1.354  -4.765  -0.075  0.00  0.00    +0.384 N 
ATOM     24  C   UNL     1       2.036  -4.393   1.172  0.00  0.00    -0.063 C 
ATOM     25  C   UNL     1       3.488  -4.873   1.123  0.00  0.00    +0.066 C 
ATOM     26  N   UNL     1       3.512  -6.332   0.948  0.00  0.00    -0.302 NA
ATOM     27  C   UNL     1       2.811  -6.723  -0.283  0.00  0.00    +0.066 C 
ATOM     28  C   UNL     1       1.365  -6.227  -0.223  0.00  0.00    -0.063 C 
ATOM     29  H   UNL     1       1.832  -4.345  -0.858  0.00  0.00    -0.081 HD
BRANCH  26  30
ATOM     30  C   UNL     1       4.890  -6.840   0.953  0.00  0.00    +0.119 C 
BRANCH  30  31
ATOM     31  C   UNL     1       4.871  -8.346   1.020  0.00  0.00    -0.030 A 
ATOM     32  C   UNL     1       4.871  -8.982   2.247  0.00  0.00    +0.009 A 
ATOM     33  C   UNL     1       4.853 -10.363   2.313  0.00  0.00    +0.050 A 
ATOM     34  C   UNL     1       4.834 -11.113   1.149  0.00  0.00    +0.166 A 
ATOM     35  C   UNL     1       4.834 -10.472  -0.088  0.00  0.00    +0.167 A 
ATOM     36  C   UNL     1       4.847  -9.087  -0.146  0.00  0.00    +0.054 A 
ATOM     37  O   UNL     1       4.814 -11.419  -1.070  0.00  0.00    -0.453 OA
ATOM     38  C   UNL     1       5.215 -12.645  -0.430  0.00  0.00    +0.466 C 
ATOM     39  O   UNL     1       4.815 -12.461   0.941  0.00  0.00    -0.453 OA
ENDBRANCH  30  31
ENDBRANCH  26  30
ENDBRANCH  22  23
ENDBRANCH   5  22
TORSDOF 6
