REMARK  Name = ZINC22065703
REMARK  10 active torsions:
REMARK  status: ('A' for Active; 'I' for Inactive)
REMARK    1  A    between atoms: C_1  and  C_2
REMARK    2  A    between atoms: C_5  and  C_8
REMARK    3  A    between atoms: C_8  and  C_9
REMARK    4  A    between atoms: C_9  and  C_10
REMARK    5  A    between atoms: N_13  and  C_16
REMARK    6  A    between atoms: C_16  and  C_17
REMARK    7  A    between atoms: N_19  and  C_20
REMARK    8  A    between atoms: C_20  and  C_21
REMARK    9  A    between atoms: C_24  and  S_27
REMARK   10  A    between atoms: S_27  and  N_30
REMARK                            x       y       z     vdW  Elec       q    Type
REMARK                         _______ _______ _______ _____ _____    ______ ____
ROOT
ATOM      1  C   UNL     1      -0.089   5.904  -2.595  0.00  0.00    +0.197 C 
ATOM      2  O   UNL     1      -0.762   5.085  -3.184  0.00  0.00    -0.278 OA
ATOM      3  N   UNL     1      -0.093   7.191  -2.993  0.00  0.00    -0.313 N 
ATOM      4  H   UNL     1       0.517   7.934  -2.458  0.00  0.00    +0.149 HD
ENDROOT
BRANCH   1   5
ATOM      5  C   UNL     1       0.752   5.481  -1.418  0.00  0.00    +0.019 C 
BRANCH   5   9
ATOM      6  C   UNL     1       1.761   1.347  -1.001  0.00  0.00    -0.014 C 
ATOM      7  C   UNL     1       1.099   2.083   0.167  0.00  0.00    -0.015 C 
ATOM      8  C   UNL     1       1.298   3.591  -0.008  0.00  0.00    -0.078 C 
ATOM      9  N   UNL     1       0.703   4.020  -1.280  0.00  0.00    +0.385 N 
ATOM     10  C   UNL     1       1.354   3.362  -2.420  0.00  0.00    -0.078 C 
ATOM     11  C   UNL     1       1.157   1.847  -2.317  0.00  0.00    -0.015 C 
ATOM     12  H   UNL     1      -0.354   3.714  -1.276  0.00  0.00    -0.081 HD
BRANCH   6  13
ATOM     13  C   UNL     1       1.513  -0.156  -0.864  0.00  0.00    +0.008 C 
BRANCH  13  14
ATOM     14  C   UNL     1       2.223  -0.678   0.387  0.00  0.00    +0.035 C 
BRANCH  14  19
ATOM     15  C   UNL     1       1.288  -6.357   0.904  0.00  0.00    +0.044 C 
ATOM     16  C   UNL     1       1.532  -4.876   0.770  0.00  0.00    -0.050 A 
ATOM     17  C   UNL     1       2.625  -4.417   0.059  0.00  0.00    +0.003 A 
ATOM     18  C   UNL     1       2.849  -3.059  -0.065  0.00  0.00    +0.004 A 
ATOM     19  C   UNL     1       1.979  -2.159   0.522  0.00  0.00    -0.047 A 
ATOM     20  C   UNL     1       0.889  -2.617   1.238  0.00  0.00    +0.004 A 
ATOM     21  C   UNL     1       0.663  -3.976   1.358  0.00  0.00    +0.003 A 
ENDBRANCH  14  19
ENDBRANCH  13  14
ENDBRANCH   6  13
ENDBRANCH   5   9
ENDBRANCH   1   5
BRANCH   3  22
ATOM     22  C   UNL     1      -0.911   7.602  -4.137  0.00  0.00    +0.139 C 
BRANCH  22  23
ATOM     23  C   UNL     1      -0.739   9.080  -4.373  0.00  0.00    -0.030 A 
ATOM     24  C   UNL     1      -1.581   9.982  -3.749  0.00  0.00    +0.007 A 
ATOM     25  C   UNL     1      -1.420  11.339  -3.962  0.00  0.00    +0.029 A 
ATOM     26  C   UNL     1      -0.423  11.793  -4.806  0.00  0.00    +0.105 A 
ATOM     27  C   UNL     1       0.415  10.891  -5.433  0.00  0.00    +0.029 A 
ATOM     28  C   UNL     1       0.258   9.534  -5.217  0.00  0.00    +0.007 A 
BRANCH  26  29
ATOM     29  S   UNL     1      -0.221  13.521  -5.080  0.00  0.00    +0.061 S 
ATOM     30  O   UNL     1      -0.782  14.180  -3.953  0.00  0.00    -0.153 OA
ATOM     31  O   UNL     1       1.128  13.714  -5.482  0.00  0.00    -0.153 OA
BRANCH  29  32
ATOM     32  N   UNL     1      -1.164  13.924  -6.381  0.00  0.00    -0.172 NA
ATOM     33  C   UNL     1      -0.626  13.878  -7.750  0.00  0.00    +0.137 C 
ATOM     34  C   UNL     1      -1.601  13.069  -8.620  0.00  0.00    +0.177 C 
ATOM     35  O   UNL     1      -2.917  13.606  -8.474  0.00  0.00    -0.377 OA
ATOM     36  C   UNL     1      -3.442  13.518  -7.147  0.00  0.00    +0.177 C 
ATOM     37  C   UNL     1      -2.563  14.344  -6.201  0.00  0.00    +0.137 C 
ENDBRANCH  29  32
ENDBRANCH  26  29
ENDBRANCH  22  23
ENDBRANCH   3  22
TORSDOF 9
