REMARK  Name = ZINC09611345
REMARK  9 active torsions:
REMARK  status: ('A' for Active; 'I' for Inactive)
REMARK    1  A    between atoms: C_1  and  C_2
REMARK    2  A    between atoms: C_6  and  N_9
REMARK    3  A    between atoms: C_7  and  C_8
REMARK    4  A    between atoms: C_10  and  C_12
REMARK    5  A    between atoms: C_12  and  C_14
REMARK    6  A    between atoms: C_12  and  N_21
REMARK    7  A    between atoms: C_14  and  C_15
REMARK    8  A    between atoms: N_21  and  S_22
REMARK    9  A    between atoms: S_22  and  C_25
REMARK                            x       y       z     vdW  Elec       q    Type
REMARK                         _______ _______ _______ _____ _____    ______ ____
ROOT
ATOM      1  C   UNL     1       3.041   7.989   2.040  0.00  0.00    +0.167 C 
ENDROOT
BRANCH   1   3
ATOM      2  N   UNL     1       4.214   7.363   4.127  0.00  0.00    -0.284 N 
ATOM      3  C   UNL     1       3.054   7.675   3.514  0.00  0.00    +0.236 C 
ATOM      4  O   UNL     1       2.022   7.702   4.149  0.00  0.00    -0.274 OA
ATOM      5  H   UNL     1       5.026   7.263   3.605  0.00  0.00    +0.155 HD
BRANCH   2  11
ATOM      6  C   UNL     1       6.330   5.363   8.088  0.00  0.00    +0.044 C 
ATOM      7  C   UNL     1       5.262   6.221   7.461  0.00  0.00    -0.046 A 
ATOM      8  C   UNL     1       4.312   6.834   8.258  0.00  0.00    +0.004 A 
ATOM      9  C   UNL     1       3.329   7.621   7.686  0.00  0.00    +0.002 A 
ATOM     10  C   UNL     1       3.294   7.799   6.317  0.00  0.00    +0.023 A 
ATOM     11  C   UNL     1       4.247   7.185   5.514  0.00  0.00    +0.037 A 
ATOM     12  C   UNL     1       5.229   6.390   6.091  0.00  0.00    -0.026 A 
ATOM     13  C   UNL     1       6.261   5.717   5.222  0.00  0.00    +0.046 C 
ENDBRANCH   2  11
ENDBRANCH   1   3
BRANCH   1  14
ATOM     14  N   UNL     1       1.672   8.293   1.618  0.00  0.00    -0.178 NA
ATOM     15  H   UNL     1       1.070   8.758   2.221  0.00  0.00    +0.149 HD
BRANCH  14  16
ATOM     16  S   UNL     1       1.150   7.842   0.112  0.00  0.00    +0.059 S 
ATOM     17  O   UNL     1       2.143   8.276  -0.808  0.00  0.00    -0.153 OA
ATOM     18  O   UNL     1      -0.208   8.248   0.015  0.00  0.00    -0.153 OA
BRANCH  16  19
ATOM     19  C   UNL     1       1.154   6.081   0.065  0.00  0.00    +0.106 A 
ATOM     20  C   UNL     1       2.287   5.404  -0.350  0.00  0.00    +0.030 A 
ATOM     21  C   UNL     1       2.294   4.024  -0.388  0.00  0.00    +0.025 A 
ATOM     22  C   UNL     1       1.161   3.315  -0.010  0.00  0.00    +0.037 A 
ATOM     23  C   UNL     1       0.025   3.998   0.406  0.00  0.00    -0.024 A 
ATOM     24  C   UNL     1       0.025   5.378   0.442  0.00  0.00    +0.034 A 
ATOM     25  C   UNL     1      -1.203   3.228   0.817  0.00  0.00    +0.046 C 
ATOM     26  C   UNL     1      -1.318   1.959  -0.033  0.00  0.00    +0.101 C 
ATOM     27  C   UNL     1       0.002   1.235  -0.047  0.00  0.00    +0.218 C 
ATOM     28  O   UNL     1       0.020   0.022  -0.063  0.00  0.00    -0.275 OA
ATOM     29  N   UNL     1       1.161   1.918  -0.047  0.00  0.00    -0.285 N 
ATOM     30  H   UNL     1       2.003   1.437  -0.072  0.00  0.00    +0.155 HD
ENDBRANCH  16  19
ENDBRANCH  14  16
ENDBRANCH   1  14
BRANCH   1  31
ATOM     31  C   UNL     1       3.939   9.197   1.768  0.00  0.00    +0.065 C 
BRANCH  31  32
ATOM     32  C   UNL     1       4.023   9.436   0.282  0.00  0.00    -0.045 A 
ATOM     33  C   UNL     1       5.019   8.828  -0.460  0.00  0.00    +0.004 A 
ATOM     34  C   UNL     1       5.093   9.043  -1.823  0.00  0.00    +0.000 A 
ATOM     35  C   UNL     1       4.179   9.874  -2.443  0.00  0.00    +0.000 A 
ATOM     36  C   UNL     1       3.187  10.486  -1.700  0.00  0.00    +0.000 A 
ATOM     37  C   UNL     1       3.109  10.267  -0.337  0.00  0.00    +0.004 A 
ENDBRANCH  31  32
ENDBRANCH   1  31
TORSDOF 7
