REMARK  Name = ZINC44173428
REMARK  11 active torsions:
REMARK  status: ('A' for Active; 'I' for Inactive)
REMARK    1  A    between atoms: C_1  and  C_2
REMARK    2  A    between atoms: C_4  and  O_11
REMARK    3  A    between atoms: C_7  and  C_8
REMARK    4  A    between atoms: C_8  and  C_9
REMARK    5  A    between atoms: C_8  and  C_10
REMARK    6  A    between atoms: O_11  and  C_12
REMARK    7  A    between atoms: C_12  and  C_13
REMARK    8  A    between atoms: C_13  and  S_14
REMARK    9  A    between atoms: S_14  and  C_15
REMARK   10  A    between atoms: C_18  and  C_20
REMARK   11  A    between atoms: C_20  and  N_21
REMARK                            x       y       z     vdW  Elec       q    Type
REMARK                         _______ _______ _______ _____ _____    ______ ____
ROOT
ATOM      1  C   UNL     1      -0.075  -4.738  -3.747  0.00  0.00    +0.120 C 
ENDROOT
BRANCH   1   2
ATOM      2  C   UNL     1       0.085  -4.154  -2.342  0.00  0.00    +0.240 C 
BRANCH   2   3
ATOM      3  O   UNL     1      -0.179  -2.750  -2.376  0.00  0.00    -0.491 OA
BRANCH   3   7
ATOM      4  C   UNL     1      -0.484   1.457   0.078  0.00  0.00    +0.044 C 
ATOM      5  C   UNL     1      -0.221  -0.026   0.034  0.00  0.00    -0.044 A 
ATOM      6  C   UNL     1      -0.322  -0.710  -1.162  0.00  0.00    +0.049 A 
ATOM      7  C   UNL     1      -0.079  -2.075  -1.201  0.00  0.00    +0.121 A 
ATOM      8  C   UNL     1       0.265  -2.750  -0.039  0.00  0.00    +0.046 A 
ATOM      9  C   UNL     1       0.365  -2.062   1.154  0.00  0.00    +0.008 A 
ATOM     10  C   UNL     1       0.127  -0.700   1.190  0.00  0.00    -0.042 A 
BRANCH  10  11
ATOM     11  C   UNL     1       0.243   0.050   2.492  0.00  0.00    +0.013 C 
ATOM     12  C   UNL     1      -0.844  -0.430   3.456  0.00  0.00    +0.012 C 
ATOM     13  C   UNL     1       1.620  -0.206   3.108  0.00  0.00    +0.012 C 
ENDBRANCH  10  11
ENDBRANCH   3   7
ENDBRANCH   2   3
ENDBRANCH   1   2
BRANCH   1  14
ATOM     14  S   UNL     1       0.261  -6.520  -3.704  0.00  0.00    -0.062 S 
BRANCH  14  15
ATOM     15  C   UNL     1       0.038  -7.037  -5.374  0.00  0.00    +0.277 A 
ATOM     16  N   UNL     1      -0.289  -6.272  -6.388  0.00  0.00    -0.101 NA
ATOM     17  N   UNL     1      -0.362  -6.987  -7.454  0.00  0.00    -0.110 NA
ATOM     18  C   UNL     1      -0.088  -8.226  -7.167  0.00  0.00    +0.235 A 
ATOM     19  O   UNL     1       0.178  -8.289  -5.848  0.00  0.00    -0.414 OA
BRANCH  18  20
ATOM     20  C   UNL     1      -0.066  -9.380  -8.136  0.00  0.00    +0.205 C 
BRANCH  20  21
ATOM     21  N   UNL     1       1.279  -9.517  -8.702  0.00  0.00    -0.292 N 
ATOM     22  C   UNL     1       1.737  -8.839  -9.920  0.00  0.00    +0.109 C 
ATOM     23  C   UNL     1       3.279  -8.920  -9.882  0.00  0.00    +0.028 C 
ATOM     24  C   UNL     1       3.507 -10.176  -9.009  0.00  0.00    +0.097 C 
ATOM     25  C   UNL     1       2.253 -10.274  -8.169  0.00  0.00    +0.216 C 
ATOM     26  O   UNL     1       2.141 -10.942  -7.163  0.00  0.00    -0.276 OA
ENDBRANCH  20  21
ENDBRANCH  18  20
ENDBRANCH  14  15
ENDBRANCH   1  14
TORSDOF 8
