REMARK  Name = ZINC20562018
REMARK  10 active torsions:
REMARK  status: ('A' for Active; 'I' for Inactive)
REMARK    1  A    between atoms: C_1  and  C_2
REMARK    2  A    between atoms: C_2  and  C_4
REMARK    3  A    between atoms: C_2  and  N_12
REMARK    4  A    between atoms: C_4  and  C_5
REMARK    5  A    between atoms: C_5  and  C_6
REMARK    6  A    between atoms: C_13  and  C_15
REMARK    7  A    between atoms: C_15  and  S_16
REMARK    8  A    between atoms: S_16  and  C_17
REMARK    9  A    between atoms: N_26  and  C_27
REMARK   10  A    between atoms: C_27  and  C_28
REMARK                            x       y       z     vdW  Elec       q    Type
REMARK                         _______ _______ _______ _____ _____    ______ ____
ROOT
ATOM      1  C   UNL     1      -5.218   0.872   0.032  0.00  0.00    +0.173 A 
ATOM      2  N   UNL     1      -4.954  -0.407   0.023  0.00  0.00    -0.222 NA
ATOM      3  C   UNL     1      -5.942  -1.350   0.023  0.00  0.00    +0.086 A 
ATOM      4  C   UNL     1      -5.815  -2.746   0.015  0.00  0.00    +0.036 A 
ATOM      5  C   UNL     1      -6.915  -3.529   0.015  0.00  0.00    +0.048 A 
ATOM      6  S   UNL     1      -8.245  -2.339   0.029  0.00  0.00    -0.090 S 
ATOM      7  C   UNL     1      -7.262  -0.863   0.033  0.00  0.00    +0.102 A 
ATOM      8  C   UNL     1      -7.536   0.502   0.041  0.00  0.00    +0.269 A 
ATOM      9  O   UNL     1      -8.685   0.910   0.050  0.00  0.00    -0.266 OA
ATOM     10  N   UNL     1      -6.492   1.365   0.046  0.00  0.00    -0.282 N 
ENDROOT
BRANCH   1  11
ATOM     11  S   UNL     1      -3.874   2.010   0.031  0.00  0.00    -0.078 S 
BRANCH  11  12
ATOM     12  C   UNL     1      -2.482   0.853   0.018  0.00  0.00    +0.173 C 
BRANCH  12  14
ATOM     13  N   UNL     1      -0.011   0.966   0.007  0.00  0.00    -0.312 N 
ATOM     14  C   UNL     1      -1.187   1.624   0.017  0.00  0.00    +0.224 C 
ATOM     15  O   UNL     1      -1.204   2.837   0.023  0.00  0.00    -0.275 OA
ATOM     16  H   UNL     1       0.004  -0.134   0.006  0.00  0.00    +0.149 HD
BRANCH  13  18
ATOM     17  C   UNL     1       1.635   2.077   1.435  0.00  0.00    +0.028 C 
ATOM     18  C   UNL     1       1.248   1.716  -0.001  0.00  0.00    +0.070 C 
BRANCH  18  19
ATOM     19  C   UNL     1       2.349   0.857  -0.625  0.00  0.00    +0.026 C 
BRANCH  19  20
ATOM     20  C   UNL     1       2.022   0.599  -2.098  0.00  0.00    +0.037 C 
BRANCH  20  21
ATOM     21  C   UNL     1       3.106  -0.247  -2.713  0.00  0.00    -0.047 A 
ATOM     22  C   UNL     1       4.200   0.356  -3.307  0.00  0.00    +0.003 A 
ATOM     23  C   UNL     1       5.197  -0.420  -3.866  0.00  0.00    +0.000 A 
ATOM     24  C   UNL     1       5.096  -1.799  -3.842  0.00  0.00    +0.000 A 
ATOM     25  C   UNL     1       4.000  -2.401  -3.254  0.00  0.00    +0.000 A 
ATOM     26  C   UNL     1       3.005  -1.625  -2.689  0.00  0.00    +0.003 A 
ENDBRANCH  20  21
ENDBRANCH  19  20
ENDBRANCH  18  19
ENDBRANCH  13  18
ENDBRANCH  12  14
ENDBRANCH  11  12
ENDBRANCH   1  11
BRANCH  10  27
ATOM     27  C   UNL     1      -6.726   2.812   0.061  0.00  0.00    +0.162 C 
BRANCH  27  28
ATOM     28  C   UNL     1      -6.817   3.320  -1.355  0.00  0.00    -0.024 A 
ATOM     29  C   UNL     1      -8.042   3.361  -1.995  0.00  0.00    +0.009 A 
ATOM     30  C   UNL     1      -8.130   3.828  -3.294  0.00  0.00    +0.050 A 
ATOM     31  C   UNL     1      -6.991   4.254  -3.957  0.00  0.00    +0.166 A 
ATOM     32  C   UNL     1      -5.758   4.213  -3.312  0.00  0.00    +0.167 A 
ATOM     33  C   UNL     1      -5.677   3.750  -2.008  0.00  0.00    +0.055 A 
ATOM     34  O   UNL     1      -4.802   4.681  -4.166  0.00  0.00    -0.453 OA
ATOM     35  C   UNL     1      -5.520   5.391  -5.193  0.00  0.00    +0.466 C 
ATOM     36  O   UNL     1      -6.809   4.749  -5.216  0.00  0.00    -0.453 OA
ENDBRANCH  27  28
ENDBRANCH  10  27
TORSDOF 9
