REMARK  Name = ZINC02850381
REMARK  7 active torsions:
REMARK  status: ('A' for Active; 'I' for Inactive)
REMARK    1  A    between atoms: C_1  and  C_2
REMARK    2  A    between atoms: C_5  and  N_22
REMARK    3  A    between atoms: C_7  and  N_8
REMARK    4  A    between atoms: C_9  and  C_11
REMARK    5  A    between atoms: C_11  and  C_13
REMARK    6  A    between atoms: C_11  and  O_14
REMARK    7  A    between atoms: O_14  and  C_15
REMARK                            x       y       z     vdW  Elec       q    Type
REMARK                         _______ _______ _______ _____ _____    ______ ____
ROOT
ATOM      1  N   UNL     1       2.389   1.567  -0.009  0.00  0.00    -0.282 N 
ATOM      2  C   UNL     1       3.550   2.244  -0.107  0.00  0.00    +0.258 C 
ATOM      3  O   UNL     1       3.550   3.456  -0.066  0.00  0.00    -0.271 OA
ATOM      4  H   UNL     1       2.394   0.597   0.022  0.00  0.00    +0.155 HD
ENDROOT
BRANCH   1  11
ATOM      5  C   UNL     1       0.110   0.399  -1.250  0.00  0.00    +0.045 C 
ATOM      6  C   UNL     1       0.039   1.728  -0.543  0.00  0.00    -0.029 A 
ATOM      7  C   UNL     1      -1.156   2.420  -0.488  0.00  0.00    +0.007 A 
ATOM      8  C   UNL     1      -1.223   3.636   0.164  0.00  0.00    +0.033 A 
ATOM      9  C   UNL     1      -0.092   4.170   0.756  0.00  0.00    +0.128 A 
ATOM     10  C   UNL     1       1.106   3.487   0.700  0.00  0.00    +0.056 A 
ATOM     11  C   UNL     1       1.176   2.262   0.049  0.00  0.00    +0.039 A 
BRANCH   9  12
ATOM     12  N   UNL     1      -0.167   5.476   1.449  0.00  0.00    +0.056 N 
ATOM     13  O   UNL     1       0.828   5.947   1.969  0.00  0.00    -0.126 OA
ATOM     14  O   UNL     1      -1.224   6.080   1.498  0.00  0.00    -0.126 OA
ENDBRANCH   9  12
ENDBRANCH   1  11
BRANCH   2  15
ATOM     15  C   UNL     1       4.847   1.495  -0.269  0.00  0.00    +0.256 C 
ATOM     16  C   UNL     1       5.058   0.574   0.934  0.00  0.00    +0.062 C 
BRANCH  15  17
ATOM     17  O   UNL     1       5.928   2.427  -0.351  0.00  0.00    -0.480 OA
BRANCH  17  18
ATOM     18  C   UNL     1       6.973   2.091  -1.151  0.00  0.00    +0.122 A 
ATOM     19  C   UNL     1       7.994   3.002  -1.381  0.00  0.00    +0.047 A 
ATOM     20  C   UNL     1       9.059   2.656  -2.190  0.00  0.00    +0.019 A 
ATOM     21  C   UNL     1       9.102   1.406  -2.780  0.00  0.00    +0.018 A 
ATOM     22  C   UNL     1       8.083   0.497  -2.557  0.00  0.00    +0.019 A 
ATOM     23  C   UNL     1       7.019   0.837  -1.744  0.00  0.00    +0.047 A 
ATOM     24 BR   UNL     1      10.558   0.937  -3.893  0.00  0.00    -0.050 Br
ENDBRANCH  17  18
ENDBRANCH  15  17
ENDBRANCH   2  15
TORSDOF 5
