REMARK  Name = ZINC16904139
REMARK  6 active torsions:
REMARK  status: ('A' for Active; 'I' for Inactive)
REMARK    1  A    between atoms: C_1  and  C_2
REMARK    2  A    between atoms: C_2  and  N_3
REMARK    3  A    between atoms: C_7  and  C_8
REMARK    4  A    between atoms: N_15  and  C_16
REMARK    5  A    between atoms: C_19  and  C_23
REMARK    6  A    between atoms: C_21  and  O_22
REMARK                            x       y       z     vdW  Elec       q    Type
REMARK                         _______ _______ _______ _____ _____    ______ ____
ROOT
ATOM      1  N   UNL     1       2.250   0.801   0.338  0.00  0.00    -0.246 N 
ATOM      2  C   UNL     1       1.463  -0.212   0.659  0.00  0.00    +0.259 C 
ATOM      3  O   UNL     1       1.883  -1.354   0.703  0.00  0.00    -0.269 OA
ATOM      4  C   UNL     1       0.058   0.102   0.963  0.00  0.00    +0.079 C 
ATOM      5  C   UNL     1      -0.957  -0.735   1.318  0.00  0.00    +0.035 C 
ATOM      6  S   UNL     1       0.041   1.875   0.740  0.00  0.00    -0.049 S 
ATOM      7  C   UNL     1       1.757   2.087   0.294  0.00  0.00    +0.169 C 
ATOM      8  N   UNL     1       2.393   3.197  -0.004  0.00  0.00    -0.222 NA
ENDROOT
BRANCH   8   9
ATOM      9  C   UNL     1       1.705   4.378  -0.094  0.00  0.00    +0.108 A 
ATOM     10  C   UNL     1       0.546   4.457  -0.867  0.00  0.00    +0.032 A 
ATOM     11  C   UNL     1      -0.146   5.648  -0.949  0.00  0.00    +0.005 A 
ATOM     12  C   UNL     1       0.311   6.768  -0.276  0.00  0.00    -0.047 A 
ATOM     13  C   UNL     1       1.462   6.702   0.489  0.00  0.00    +0.051 A 
ATOM     14  C   UNL     1       2.164   5.514   0.586  0.00  0.00    +0.142 A 
ATOM     15  C   UNL     1      -0.449   8.065  -0.378  0.00  0.00    +0.044 C 
BRANCH  14  16
ATOM     16  O   UNL     1       3.295   5.449   1.337  0.00  0.00    -0.505 OA
ATOM     17  H   UNL     1       4.104   5.657   0.850  0.00  0.00    +0.292 HD
ENDBRANCH  14  16
ENDBRANCH   8   9
BRANCH   5  18
ATOM     18  C   UNL     1      -2.249  -0.214   1.566  0.00  0.00    +0.013 A 
ATOM     19  C   UNL     1      -3.409  -0.886   1.935  0.00  0.00    +0.015 A 
ATOM     20  C   UNL     1      -4.539  -0.126   2.114  0.00  0.00    +0.008 A 
ATOM     21  C   UNL     1      -4.472   1.218   1.925  0.00  0.00    +0.046 A 
ATOM     22  S   UNL     1      -2.812   1.477   1.495  0.00  0.00    -0.097 S 
ENDBRANCH   5  18
BRANCH   1  24
ATOM     23  C   UNL     1       3.811   0.288  -1.475  0.00  0.00    +0.025 C 
ATOM     24  C   UNL     1       3.660   0.553   0.025  0.00  0.00    +0.112 C 
ENDBRANCH   1  24
TORSDOF 4
