REMARK  Name = ZINC16232065
REMARK  10 active torsions:
REMARK  status: ('A' for Active; 'I' for Inactive)
REMARK    1  A    between atoms: C_1  and  C_2
REMARK    2  A    between atoms: C_6  and  N_9
REMARK    3  A    between atoms: C_7  and  C_8
REMARK    4  A    between atoms: N_9  and  C_10
REMARK    5  A    between atoms: C_10  and  N_12
REMARK    6  A    between atoms: N_12  and  N_13
REMARK    7  A    between atoms: C_14  and  C_16
REMARK    8  A    between atoms: C_18  and  S_25
REMARK    9  A    between atoms: C_21  and  N_22
REMARK   10  A    between atoms: S_25  and  C_26
REMARK                            x       y       z     vdW  Elec       q    Type
REMARK                         _______ _______ _______ _____ _____    ______ ____
ROOT
ATOM      1  N   UNL     1      -0.041  -4.210   4.786  0.00  0.00    -0.231 N 
ATOM      2  C   UNL     1      -0.173  -4.857   5.961  0.00  0.00    +0.262 C 
ATOM      3  O   UNL     1      -0.272  -6.068   5.980  0.00  0.00    -0.269 OA
ATOM      4  H   UNL     1       0.038  -3.243   4.771  0.00  0.00    +0.173 HD
ENDROOT
BRANCH   2   5
ATOM      5  C   UNL     1      -0.197  -4.093   7.227  0.00  0.00    +0.069 A 
ATOM      6  C   UNL     1       0.838  -3.208   7.529  0.00  0.00    +0.030 A 
ATOM      7  C   UNL     1       0.809  -2.495   8.719  0.00  0.00    +0.008 A 
ATOM      8  C   UNL     1      -0.250  -2.664   9.605  0.00  0.00    +0.017 A 
ATOM      9  C   UNL     1      -1.275  -3.541   9.304  0.00  0.00    +0.034 A 
ATOM     10  C   UNL     1      -1.258  -4.251   8.120  0.00  0.00    +0.138 A 
BRANCH  10  11
ATOM     11  N   UNL     1      -2.361  -5.184   7.801  0.00  0.00    +0.057 N 
ATOM     12  O   UNL     1      -3.216  -5.414   8.624  0.00  0.00    -0.126 OA
ATOM     13  O   UNL     1      -2.408  -5.716   6.716  0.00  0.00    -0.126 OA
ENDBRANCH  10  11
BRANCH   7  14
ATOM     14  S   UNL     1       2.113  -1.376   9.108  0.00  0.00    -0.129 S 
ATOM     15  C   UNL     1       1.642  -0.698  10.723  0.00  0.00    +0.090 C 
ENDBRANCH   7  14
ENDBRANCH   2   5
BRANCH   1  16
ATOM     16  N   UNL     1      -0.019  -4.934   3.587  0.00  0.00    -0.245 N 
ATOM     17  H   UNL     1      -0.098  -5.900   3.602  0.00  0.00    +0.172 HD
BRANCH  16  18
ATOM     18  C   UNL     1       0.113  -4.287   2.412  0.00  0.00    +0.151 C 
ATOM     19  S   UNL     1       0.141  -5.171   0.946  0.00  0.00    -0.017 S 
BRANCH  18  20
ATOM     20  N   UNL     1       0.223  -2.944   2.390  0.00  0.00    -0.296 N 
ATOM     21  H   UNL     1       0.250  -2.446   3.223  0.00  0.00    +0.154 HD
BRANCH  20  27
ATOM     22  C   UNL     1       2.145   0.668  -0.336  0.00  0.00    +0.044 C 
ATOM     23  C   UNL     1       1.222  -0.513  -0.181  0.00  0.00    -0.046 A 
ATOM     24  C   UNL     1       0.448  -0.929  -1.249  0.00  0.00    +0.004 A 
ATOM     25  C   UNL     1      -0.401  -2.012  -1.111  0.00  0.00    +0.002 A 
ATOM     26  C   UNL     1      -0.477  -2.682   0.094  0.00  0.00    +0.023 A 
ATOM     27  C   UNL     1       0.299  -2.267   1.168  0.00  0.00    +0.036 A 
ATOM     28  C   UNL     1       1.154  -1.182   1.025  0.00  0.00    -0.026 A 
ATOM     29  C   UNL     1       2.003  -0.732   2.186  0.00  0.00    +0.046 C 
ENDBRANCH  20  27
ENDBRANCH  18  20
ENDBRANCH  16  18
ENDBRANCH   1  16
TORSDOF 7
