REMARK  Name = ZINC21238342
REMARK  9 active torsions:
REMARK  status: ('A' for Active; 'I' for Inactive)
REMARK    1  A    between atoms: C_1  and  C_2
REMARK    2  A    between atoms: N_11  and  C_15
REMARK    3  A    between atoms: C_15  and  C_16
REMARK    4  A    between atoms: C_16  and  O_18
REMARK    5  A    between atoms: O_18  and  C_19
REMARK    6  A    between atoms: C_19  and  C_20
REMARK    7  A    between atoms: N_22  and  C_23
REMARK    8  A    between atoms: C_23  and  C_25
REMARK    9  A    between atoms: C_23  and  C_26
REMARK                            x       y       z     vdW  Elec       q    Type
REMARK                         _______ _______ _______ _____ _____    ______ ____
ROOT
ATOM      1  C   UNL     1      -3.652   2.292   1.080  0.00  0.00    +0.326 C 
ATOM      2  O   UNL     1      -2.879   2.650   1.936  0.00  0.00    -0.249 OA
ENDROOT
BRANCH   1   3
ATOM      3  C   UNL     1      -3.361   2.586  -0.369  0.00  0.00    +0.238 C 
BRANCH   3  13
ATOM      4  C   UNL     1      -0.186   3.888  -3.167  0.00  0.00    +0.010 C 
ATOM      5  C   UNL     1       0.839   3.821  -2.033  0.00  0.00    +0.018 C 
ATOM      6  C   UNL     1       1.651   2.529  -2.155  0.00  0.00    +0.006 C 
ATOM      7  C   UNL     1       2.662   2.453  -1.009  0.00  0.00    +0.000 C 
ATOM      8  C   UNL     1       1.919   2.453   0.329  0.00  0.00    +0.003 C 
ATOM      9  C   UNL     1       1.108   3.744   0.461  0.00  0.00    +0.035 C 
ATOM     10  C   UNL     1       0.114   3.841  -0.692  0.00  0.00    +0.115 C 
ATOM     11  C   UNL     1      -0.889   2.713  -0.618  0.00  0.00    +0.247 C 
ATOM     12  O   UNL     1      -0.662   1.524  -0.679  0.00  0.00    -0.273 OA
ATOM     13  N   UNL     1      -2.092   3.308  -0.476  0.00  0.00    -0.213 N 
ATOM     14  C   UNL     1      -1.980   4.642  -0.441  0.00  0.00    +0.310 C 
ATOM     15  O   UNL     1      -2.925   5.396  -0.317  0.00  0.00    -0.252 OA
ATOM     16  N   UNL     1      -0.704   5.054  -0.566  0.00  0.00    -0.285 N 
ATOM     17  H   UNL     1      -0.226   6.045  -0.588  0.00  0.00    +0.151 HD
ENDBRANCH   3  13
ENDBRANCH   1   3
BRANCH   1  18
ATOM     18  O   UNL     1      -4.771   1.633   1.420  0.00  0.00    -0.454 OA
BRANCH  18  19
ATOM     19  C   UNL     1      -4.987   1.385   2.834  0.00  0.00    +0.327 C 
BRANCH  19  20
ATOM     20  C   UNL     1      -6.283   0.640   3.022  0.00  0.00    +0.251 C 
ATOM     21  O   UNL     1      -6.959   0.347   2.059  0.00  0.00    -0.272 OA
ATOM     22  N   UNL     1      -6.691   0.300   4.261  0.00  0.00    -0.306 N 
ATOM     23  H   UNL     1      -6.078   0.566   5.134  0.00  0.00    +0.149 HD
BRANCH  22  24
ATOM     24  C   UNL     1      -7.951  -0.424   4.443  0.00  0.00    +0.102 C 
ATOM     25  C   UNL     1      -7.697  -1.929   4.324  0.00  0.00    +0.033 C 
BRANCH  24  26
ATOM     26  C   UNL     1      -8.515  -0.117   5.807  0.00  0.00    -0.009 A 
ATOM     27  C   UNL     1      -7.668   0.240   6.840  0.00  0.00    +0.008 A 
ATOM     28  C   UNL     1      -8.184   0.528   8.089  0.00  0.00    +0.020 A 
ATOM     29  C   UNL     1      -9.548   0.448   8.309  0.00  0.00    +0.042 A 
ATOM     30  C   UNL     1     -10.395   0.085   7.278  0.00  0.00    +0.040 A 
ATOM     31  C   UNL     1      -9.878  -0.197   6.026  0.00  0.00    +0.047 A 
ATOM     32 CL   UNL     1     -10.940  -0.652   4.731  0.00  0.00    -0.083 Cl
ATOM     33 CL   UNL     1     -10.196   0.803   9.880  0.00  0.00    -0.083 Cl
ENDBRANCH  24  26
ENDBRANCH  22  24
ENDBRANCH  19  20
ENDBRANCH  18  19
ENDBRANCH   1  18
TORSDOF 7
