REMARK  Name = ZINC66908055
REMARK  11 active torsions:
REMARK  status: ('A' for Active; 'I' for Inactive)
REMARK    1  A    between atoms: C_1  and  C_2
REMARK    2  A    between atoms: C_2  and  N_3
REMARK    3  A    between atoms: N_3  and  C_4
REMARK    4  A    between atoms: N_3  and  C_6
REMARK    5  A    between atoms: C_4  and  C_5
REMARK    6  A    between atoms: C_6  and  C_7
REMARK    7  A    between atoms: C_10  and  C_13
REMARK    8  A    between atoms: C_13  and  N_14
REMARK    9  A    between atoms: N_17  and  N_18
REMARK   10  A    between atoms: C_19  and  C_21
REMARK   11  A    between atoms: C_21  and  C_22
REMARK                            x       y       z     vdW  Elec       q    Type
REMARK                         _______ _______ _______ _____ _____    ______ ____
ROOT
ATOM      1  N   UNL     1       4.574  -1.474  -4.403  0.00  0.00    -0.294 N 
ATOM      2  C   UNL     1       5.299  -1.432  -5.538  0.00  0.00    +0.316 C 
ATOM      3  O   UNL     1       5.774  -2.454  -5.995  0.00  0.00    -0.251 OA
ATOM      4  N   UNL     1       5.497  -0.258  -6.168  0.00  0.00    -0.218 N 
ATOM      5  H   UNL     1       4.195  -0.659  -4.039  0.00  0.00    +0.151 HD
ATOM      6  H   UNL     1       6.019  -0.227  -6.986  0.00  0.00    +0.174 HD
ENDROOT
BRANCH   4   7
ATOM      7  N   UNL     1       4.950   0.920  -5.643  0.00  0.00    -0.233 N 
ATOM      8  C   UNL     1       5.148   2.095  -6.273  0.00  0.00    +0.234 C 
ATOM      9  O   UNL     1       5.801   2.133  -7.295  0.00  0.00    -0.274 OA
ATOM     10  H   UNL     1       4.428   0.890  -4.826  0.00  0.00    +0.173 HD
BRANCH   8  11
ATOM     11  C   UNL     1       4.559   3.362  -5.708  0.00  0.00    +0.135 C 
BRANCH  11  12
ATOM     12  C   UNL     1       4.925   4.525  -6.594  0.00  0.00    -0.003 A 
ATOM     13  C   UNL     1       6.035   5.295  -6.301  0.00  0.00    +0.007 A 
ATOM     14  C   UNL     1       6.370   6.361  -7.114  0.00  0.00    +0.000 A 
ATOM     15  C   UNL     1       5.596   6.659  -8.220  0.00  0.00    +0.003 A 
ATOM     16  C   UNL     1       4.487   5.891  -8.515  0.00  0.00    +0.038 A 
ATOM     17  C   UNL     1       4.152   4.819  -7.704  0.00  0.00    +0.127 A 
ATOM     18  F   UNL     1       3.070   4.064  -7.994  0.00  0.00    -0.205 F 
ENDBRANCH  11  12
ENDBRANCH   8  11
ENDBRANCH   4   7
BRANCH   1  19
ATOM     19  C   UNL     1       4.359  -2.751  -3.718  0.00  0.00    +0.141 C 
BRANCH  19  23
ATOM     20  C   UNL     1       1.990  -2.112  -0.221  0.00  0.00    -0.064 A 
ATOM     21  C   UNL     1       1.378  -2.391  -1.429  0.00  0.00    +0.002 A 
ATOM     22  C   UNL     1       2.145  -2.598  -2.561  0.00  0.00    +0.005 A 
ATOM     23  C   UNL     1       3.523  -2.525  -2.485  0.00  0.00    -0.030 A 
ATOM     24  C   UNL     1       4.135  -2.246  -1.277  0.00  0.00    +0.005 A 
ATOM     25  C   UNL     1       3.369  -2.035  -0.146  0.00  0.00    +0.002 A 
BRANCH  20  26
ATOM     26  C   UNL     1       1.155  -1.887   1.013  0.00  0.00    -0.043 C 
BRANCH  26  27
ATOM     27  N   UNL     1       0.823  -0.461   1.126  0.00  0.00    +0.382 N 
ATOM     28  H   UNL     1       1.672   0.084   1.110  0.00  0.00    -0.081 HD
BRANCH  27  30
ATOM     29  C   UNL     1      -0.266   1.445   0.039  0.00  0.00    -0.017 C 
ATOM     30  C   UNL     1      -0.034  -0.067  -0.001  0.00  0.00    -0.082 C 
ENDBRANCH  27  30
BRANCH  27  31
ATOM     31  C   UNL     1       0.111  -0.222   2.389  0.00  0.00    -0.082 C 
ATOM     32  C   UNL     1       1.053  -0.495   3.563  0.00  0.00    -0.017 C 
ENDBRANCH  27  31
ENDBRANCH  26  27
ENDBRANCH  20  26
ENDBRANCH  19  23
ENDBRANCH   1  19
TORSDOF 9
