REMARK  Name = ZINC08842229
REMARK  9 active torsions:
REMARK  status: ('A' for Active; 'I' for Inactive)
REMARK    1  A    between atoms: C_1  and  C_2
REMARK    2  A    between atoms: N_10  and  C_11
REMARK    3  A    between atoms: C_11  and  C_13
REMARK    4  A    between atoms: N_18  and  S_19
REMARK    5  A    between atoms: S_19  and  C_22
REMARK    6  A    between atoms: N_29  and  C_30
REMARK    7  A    between atoms: C_30  and  C_31
REMARK    8  A    between atoms: C_31  and  S_32
REMARK    9  A    between atoms: S_32  and  C_33
REMARK                            x       y       z     vdW  Elec       q    Type
REMARK                         _______ _______ _______ _____ _____    ______ ____
ROOT
ATOM      1  C   UNL     1      -4.668   2.910   7.200  0.00  0.00    +0.257 C 
ATOM      2  O   UNL     1      -3.570   2.409   7.056  0.00  0.00    -0.272 OA
ENDROOT
BRANCH   1  12
ATOM      3  C   UNL     1      -8.253  -3.078   2.363  0.00  0.00    +0.044 C 
ATOM      4  C   UNL     1      -7.596  -2.119   3.322  0.00  0.00    -0.049 A 
ATOM      5  C   UNL     1      -6.941  -2.592   4.447  0.00  0.00    +0.005 A 
ATOM      6  C   UNL     1      -6.334  -1.732   5.332  0.00  0.00    +0.027 A 
ATOM      7  C   UNL     1      -6.363  -0.345   5.120  0.00  0.00    +0.058 A 
ATOM      8  C   UNL     1      -7.034   0.104   3.973  0.00  0.00    +0.039 A 
ATOM      9  C   UNL     1      -7.634  -0.756   3.085  0.00  0.00    +0.020 A 
ATOM     10  S   UNL     1      -6.852   1.868   4.061  0.00  0.00    -0.052 S 
ATOM     11  C   UNL     1      -5.942   1.956   5.534  0.00  0.00    +0.166 A 
ATOM     12  N   UNL     1      -5.481   3.039   6.157  0.00  0.00    -0.155 NA
ATOM     13  N   UNL     1      -5.812   0.654   5.901  0.00  0.00    -0.320 N 
BRANCH  13  14
ATOM     14  C   UNL     1      -5.086   0.308   7.126  0.00  0.00    +0.135 C 
BRANCH  14  15
ATOM     15  C   UNL     1      -3.647  -0.074   6.775  0.00  0.00    +0.090 C 
BRANCH  15  16
ATOM     16  S   UNL     1      -2.701  -0.333   8.301  0.00  0.00    -0.162 S 
ATOM     17  C   UNL     1      -1.006  -0.624   7.723  0.00  0.00    +0.084 C 
ENDBRANCH  15  16
ENDBRANCH  14  15
ENDBRANCH  13  14
ENDBRANCH   1  12
BRANCH   1  18
ATOM     18  C   UNL     1      -5.108   3.385   8.561  0.00  0.00    +0.167 C 
ATOM     19  C   UNL     1      -6.224   2.467   9.118  0.00  0.00    +0.031 C 
ATOM     20  C   UNL     1      -6.939   3.416  10.115  0.00  0.00    +0.019 C 
ATOM     21  C   UNL     1      -6.849   4.787   9.413  0.00  0.00    +0.110 C 
ATOM     22  N   UNL     1      -5.727   4.720   8.463  0.00  0.00    -0.165 NA
BRANCH  22  23
ATOM     23  S   UNL     1      -5.241   5.938   7.452  0.00  0.00    +0.062 S 
ATOM     24  O   UNL     1      -5.516   7.159   8.126  0.00  0.00    -0.153 OA
ATOM     25  O   UNL     1      -3.938   5.594   7.000  0.00  0.00    -0.153 OA
BRANCH  23  26
ATOM     26  C   UNL     1      -6.293   5.894   6.040  0.00  0.00    +0.106 A 
ATOM     27  C   UNL     1      -5.859   5.290   4.874  0.00  0.00    +0.030 A 
ATOM     28  C   UNL     1      -6.686   5.251   3.767  0.00  0.00    +0.022 A 
ATOM     29  C   UNL     1      -7.944   5.825   3.823  0.00  0.00    +0.041 A 
ATOM     30  C   UNL     1      -8.375   6.434   4.988  0.00  0.00    +0.022 A 
ATOM     31  C   UNL     1      -7.549   6.468   6.096  0.00  0.00    +0.030 A 
ATOM     32 CL   UNL     1      -8.980   5.781   2.431  0.00  0.00    -0.084 Cl
ENDBRANCH  23  26
ENDBRANCH  22  23
ENDBRANCH   1  18
TORSDOF 7
