REMARK  Name = ZINC04067810
REMARK  11 active torsions:
REMARK  status: ('A' for Active; 'I' for Inactive)
REMARK    1  A    between atoms: C_1  and  C_2
REMARK    2  A    between atoms: C_3  and  C_28
REMARK    3  A    between atoms: C_4  and  C_16
REMARK    4  A    between atoms: C_10  and  C_14
REMARK    5  A    between atoms: C_10  and  C_15
REMARK    6  A    between atoms: C_21  and  N_22
REMARK    7  A    between atoms: C_28  and  O_30
REMARK    8  A    between atoms: O_30  and  C_31
REMARK    9  A    between atoms: C_31  and  C_32
REMARK   10  A    between atoms: C_35  and  O_38
REMARK   11  A    between atoms: O_38  and  C_39
REMARK                            x       y       z     vdW  Elec       q    Type
REMARK                         _______ _______ _______ _____ _____    ______ ____
ROOT
ATOM      1  C   UNL     1       1.553   1.058   0.878  0.00  0.00    +0.061 C 
ATOM      2  C   UNL     1       0.377   1.684   0.175  0.00  0.00    +0.031 C 
ATOM      3  C   UNL     1       0.429   2.976  -0.193  0.00  0.00    +0.154 C 
ATOM      4  C   UNL     1      -0.720   3.633  -0.894  0.00  0.00    +0.076 C 
ATOM      5  C   UNL     1      -1.986   2.827  -0.740  0.00  0.00    +0.025 C 
ATOM      6  C   UNL     1      -1.937   1.538  -0.350  0.00  0.00    +0.049 C 
ATOM      7  N   UNL     1      -0.737   0.934  -0.084  0.00  0.00    -0.260 NA
ATOM      8  C   UNL     1      -3.200   0.727  -0.195  0.00  0.00    +0.062 C 
ATOM      9  C   UNL     1      -4.258   1.225  -1.174  0.00  0.00    -0.023 C 
ATOM     10  C   UNL     1      -4.510   2.713  -0.910  0.00  0.00    +0.086 C 
ATOM     11  C   UNL     1      -3.212   3.458  -1.015  0.00  0.00    +0.162 C 
ATOM     12  O   UNL     1      -3.220   4.624  -1.356  0.00  0.00    -0.292 OA
ATOM     13  C   UNL     1      -3.754   1.035  -2.606  0.00  0.00    +0.011 C 
ATOM     14  C   UNL     1      -5.555   0.437  -0.977  0.00  0.00    +0.011 C 
ENDROOT
BRANCH   4  15
ATOM     15  C   UNL     1      -0.382   3.750  -2.358  0.00  0.00    -0.005 A 
ATOM     16  C   UNL     1      -0.257   2.609  -3.130  0.00  0.00    +0.056 A 
ATOM     17  C   UNL     1       0.054   2.714  -4.475  0.00  0.00    +0.167 A 
ATOM     18  C   UNL     1       0.238   3.970  -5.048  0.00  0.00    +0.168 A 
ATOM     19  C   UNL     1       0.110   5.108  -4.269  0.00  0.00    +0.082 A 
ATOM     20  C   UNL     1      -0.204   4.996  -2.927  0.00  0.00    +0.134 A 
ATOM     21  O   UNL     1       0.531   3.808  -6.372  0.00  0.00    -0.453 OA
ATOM     22  C   UNL     1       0.926   2.430  -6.511  0.00  0.00    +0.466 C 
ATOM     23  O   UNL     1       0.231   1.764  -5.440  0.00  0.00    -0.453 OA
BRANCH  20  24
ATOM     24  N   UNL     1      -0.346   6.214  -2.098  0.00  0.00    +0.057 N 
ATOM     25  O   UNL     1      -0.563   7.289  -2.627  0.00  0.00    -0.126 OA
ATOM     26  O   UNL     1      -0.246   6.141  -0.886  0.00  0.00    -0.126 OA
ENDBRANCH  20  24
ENDBRANCH   4  15
BRANCH   3  27
ATOM     27  C   UNL     1       1.589   3.732   0.094  0.00  0.00    +0.317 C 
ATOM     28  O   UNL     1       2.527   3.213   0.669  0.00  0.00    -0.250 OA
BRANCH  27  29
ATOM     29  O   UNL     1       1.655   5.030  -0.270  0.00  0.00    -0.459 OA
BRANCH  29  30
ATOM     30  C   UNL     1       2.857   5.734   0.052  0.00  0.00    +0.267 C 
BRANCH  30  31
ATOM     31  C   UNL     1       2.748   7.158  -0.428  0.00  0.00    -0.010 A 
ATOM     32  C   UNL     1       3.174   7.492  -1.701  0.00  0.00    +0.010 A 
ATOM     33  C   UNL     1       3.071   8.796  -2.145  0.00  0.00    +0.046 A 
ATOM     34  C   UNL     1       2.549   9.773  -1.310  0.00  0.00    +0.120 A 
ATOM     35  C   UNL     1       2.128   9.437  -0.031  0.00  0.00    +0.046 A 
ATOM     36  C   UNL     1       2.229   8.130   0.407  0.00  0.00    +0.010 A 
BRANCH  34  37
ATOM     37  O   UNL     1       2.452  11.058  -1.742  0.00  0.00    -0.495 OA
ATOM     38  C   UNL     1       2.905  11.331  -3.070  0.00  0.00    +0.277 C 
ENDBRANCH  34  37
ENDBRANCH  30  31
ENDBRANCH  29  30
ENDBRANCH  27  29
ENDBRANCH   3  27
TORSDOF 7
