REMARK  Name = ZINC33779013
REMARK  8 active torsions:
REMARK  status: ('A' for Active; 'I' for Inactive)
REMARK    1  A    between atoms: C_1  and  C_2
REMARK    2  A    between atoms: C_7  and  C_8
REMARK    3  A    between atoms: C_11  and  S_13
REMARK    4  A    between atoms: S_13  and  C_14
REMARK    5  A    between atoms: C_14  and  C_15
REMARK    6  A    between atoms: N_17  and  C_18
REMARK    7  A    between atoms: C_23  and  N_24
REMARK    8  A    between atoms: N_27  and  C_30
REMARK                            x       y       z     vdW  Elec       q    Type
REMARK                         _______ _______ _______ _____ _____    ______ ____
ROOT
ATOM      1  C   UNL     1      -0.030   3.372  10.479  0.00  0.00    +0.055 A 
ATOM      2  C   UNL     1       0.011   2.218  11.247  0.00  0.00    +0.025 A 
ATOM      3  C   UNL     1      -0.064   2.302  12.624  0.00  0.00    +0.002 A 
ATOM      4  C   UNL     1      -0.181   3.534  13.241  0.00  0.00    +0.002 A 
ATOM      5  C   UNL     1      -0.223   4.689  12.484  0.00  0.00    +0.025 A 
ATOM      6  C   UNL     1      -0.142   4.615  11.101  0.00  0.00    +0.051 A 
ENDROOT
BRANCH   6   7
ATOM      7  N   UNL     1      -0.179   5.784  10.332  0.00  0.00    -0.332 N 
ATOM      8  C   UNL     1      -1.457   6.338   9.859  0.00  0.00    +0.086 C 
ATOM      9  C   UNL     1      -1.506   7.825  10.223  0.00  0.00    -0.059 C 
ATOM     10  N   UNL     1      -0.317   8.499   9.686  0.00  0.00    +0.384 N 
ATOM     11  C   UNL     1       0.891   7.974  10.334  0.00  0.00    -0.059 C 
ATOM     12  C   UNL     1       1.059   6.497   9.980  0.00  0.00    +0.086 C 
ATOM     13  H   UNL     1      -0.261   8.338   8.692  0.00  0.00    -0.081 HD
BRANCH  10  14
ATOM     14  C   UNL     1      -0.418   9.943   9.940  0.00  0.00    -0.068 C 
ATOM     15  C   UNL     1      -1.671  10.494   9.256  0.00  0.00    -0.015 C 
ATOM     16  C   UNL     1      -1.777  11.997   9.520  0.00  0.00    -0.002 C 
ATOM     17  C   UNL     1      -0.538  12.701   8.961  0.00  0.00    -0.000 C 
ATOM     18  C   UNL     1       0.714  12.150   9.646  0.00  0.00    -0.002 C 
ATOM     19  C   UNL     1       0.820  10.647   9.381  0.00  0.00    -0.015 C 
ENDBRANCH  10  14
ENDBRANCH   6   7
BRANCH   1  22
ATOM     20  C   UNL     1      -0.516   2.248   8.437  0.00  0.00    +0.228 C 
ATOM     21  O   UNL     1      -1.016   1.341   9.069  0.00  0.00    -0.275 OA
ATOM     22  N   UNL     1       0.045   3.290   9.082  0.00  0.00    -0.283 N 
ATOM     23  H   UNL     1       0.501   3.983   8.579  0.00  0.00    +0.155 HD
BRANCH  20  24
ATOM     24  C   UNL     1      -0.523   2.209   6.930  0.00  0.00    +0.175 C 
BRANCH  24  25
ATOM     25  S   UNL     1      -1.344   0.693   6.368  0.00  0.00    -0.056 S 
BRANCH  25  29
ATOM     26  C   UNL     1      -1.484   0.369   2.504  0.00  0.00    +0.249 A 
ATOM     27  N   UNL     1      -0.862   1.513   2.655  0.00  0.00    -0.106 NA
ATOM     28  N   UNL     1      -0.735   1.768   3.910  0.00  0.00    -0.101 NA
ATOM     29  C   UNL     1      -1.272   0.795   4.610  0.00  0.00    +0.278 A 
ATOM     30  O   UNL     1      -1.761  -0.106   3.738  0.00  0.00    -0.411 OA
BRANCH  26  37
ATOM     31  C   UNL     1      -0.749   1.651   0.017  0.00  0.00    +0.044 C 
ATOM     32  C   UNL     1      -1.476   0.331   0.014  0.00  0.00    -0.038 A 
ATOM     33  C   UNL     1      -1.792  -0.281  -1.181  0.00  0.00    +0.004 A 
ATOM     34  C   UNL     1      -2.459  -1.493  -1.186  0.00  0.00    +0.000 A 
ATOM     35  C   UNL     1      -2.814  -2.099   0.007  0.00  0.00    +0.001 A 
ATOM     36  C   UNL     1      -2.504  -1.498   1.208  0.00  0.00    +0.013 A 
ATOM     37  C   UNL     1      -1.825  -0.277   1.220  0.00  0.00    +0.041 A 
ENDBRANCH  26  37
ENDBRANCH  25  29
ENDBRANCH  24  25
ENDBRANCH  20  24
ENDBRANCH   1  22
TORSDOF 7
