REMARK  Name = ZINC18527096
REMARK  8 active torsions:
REMARK  status: ('A' for Active; 'I' for Inactive)
REMARK    1  A    between atoms: C_1  and  C_2
REMARK    2  A    between atoms: C_2  and  C_4
REMARK    3  A    between atoms: C_2  and  N_14
REMARK    4  A    between atoms: C_15  and  C_17
REMARK    5  A    between atoms: C_17  and  S_18
REMARK    6  A    between atoms: S_18  and  C_19
REMARK    7  A    between atoms: C_22  and  C_25
REMARK    8  A    between atoms: N_23  and  N_24
REMARK                            x       y       z     vdW  Elec       q    Type
REMARK                         _______ _______ _______ _____ _____    ______ ____
ROOT
ATOM      1  N   UNL     1       0.764  -0.483  -1.154  0.00  0.00    -0.308 N 
ATOM      2  C   UNL     1       2.096  -0.661  -1.056  0.00  0.00    +0.224 C 
ATOM      3  O   UNL     1       2.665  -0.424  -0.011  0.00  0.00    -0.275 OA
ATOM      4  H   UNL     1       0.309  -0.673  -1.990  0.00  0.00    +0.149 HD
ENDROOT
BRANCH   1   6
ATOM      5  C   UNL     1       0.007   1.526   0.017  0.00  0.00    +0.033 C 
ATOM      6  C   UNL     1       0.002  -0.004   0.002  0.00  0.00    +0.101 C 
BRANCH   6   7
ATOM      7  C   UNL     1      -1.418  -0.500  -0.091  0.00  0.00    -0.020 A 
ATOM      8  C   UNL     1      -1.970  -0.769  -1.306  0.00  0.00    +0.006 A 
ATOM      9  C   UNL     1      -3.281  -1.229  -1.412  0.00  0.00    +0.001 A 
ATOM     10  C   UNL     1      -4.048  -1.422  -0.304  0.00  0.00    +0.008 A 
ATOM     11  C   UNL     1      -3.512  -1.155   0.967  0.00  0.00    -0.018 A 
ATOM     12  C   UNL     1      -2.176  -0.694   1.075  0.00  0.00    -0.013 A 
ATOM     13  C   UNL     1      -1.639  -0.432   2.348  0.00  0.00    +0.009 A 
ATOM     14  C   UNL     1      -2.404  -0.631   3.455  0.00  0.00    +0.001 A 
ATOM     15  C   UNL     1      -3.715  -1.091   3.349  0.00  0.00    +0.001 A 
ATOM     16  C   UNL     1      -4.273  -1.342   2.134  0.00  0.00    +0.008 A 
ENDBRANCH   6   7
ENDBRANCH   1   6
BRANCH   2  17
ATOM     17  C   UNL     1       2.880  -1.154  -2.245  0.00  0.00    +0.173 C 
BRANCH  17  18
ATOM     18  S   UNL     1       4.633  -1.289  -1.800  0.00  0.00    -0.075 S 
BRANCH  18  19
ATOM     19  C   UNL     1       5.404  -1.869  -3.274  0.00  0.00    +0.209 A 
ATOM     20  N   UNL     1       4.807  -2.126  -4.416  0.00  0.00    -0.120 NA
ATOM     21  N   UNL     1       5.665  -2.532  -5.283  0.00  0.00    -0.123 NA
ATOM     22  C   UNL     1       6.865  -2.560  -4.747  0.00  0.00    +0.217 A 
ATOM     23  N   UNL     1       6.735  -2.130  -3.444  0.00  0.00    -0.221 N 
BRANCH  22  24
ATOM     24  C   UNL     1       8.112  -2.967  -5.413  0.00  0.00    +0.173 A 
ATOM     25  C   UNL     1       8.294  -3.103  -6.757  0.00  0.00    +0.053 A 
ATOM     26  C   UNL     1       9.630  -3.506  -6.946  0.00  0.00    +0.042 A 
ATOM     27  C   UNL     1      10.193  -3.595  -5.725  0.00  0.00    +0.196 A 
ATOM     28  O   UNL     1       9.276  -3.264  -4.802  0.00  0.00    -0.460 OA
ENDBRANCH  22  24
BRANCH  23  29
ATOM     29  N   UNL     1       7.728  -1.995  -2.516  0.00  0.00    -0.294 N 
ATOM     30  H   UNL     1       7.852  -2.849  -1.993  0.00  0.00    +0.163 HD
ATOM     31  H   UNL     1       8.592  -1.708  -2.950  0.00  0.00    +0.163 HD
ENDBRANCH  23  29
ENDBRANCH  18  19
ENDBRANCH  17  18
ENDBRANCH   2  17
TORSDOF 7
