REMARK  Name = ZINC20698699
REMARK  7 active torsions:
REMARK  status: ('A' for Active; 'I' for Inactive)
REMARK    1  A    between atoms: C_1  and  C_2
REMARK    2  A    between atoms: C_2  and  O_3
REMARK    3  A    between atoms: O_3  and  C_4
REMARK    4  A    between atoms: C_7  and  N_10
REMARK    5  A    between atoms: N_10  and  S_11
REMARK    6  A    between atoms: S_11  and  C_14
REMARK    7  A    between atoms: C_27  and  C_30
REMARK                            x       y       z     vdW  Elec       q    Type
REMARK                         _______ _______ _______ _____ _____    ______ ____
ROOT
ATOM      1  C   UNL     1      -6.154   1.867  -0.969  0.00  0.00    +0.109 A 
ATOM      2  C   UNL     1      -5.092   2.459  -0.309  0.00  0.00    +0.030 A 
ATOM      3  C   UNL     1      -5.037   3.834  -0.198  0.00  0.00    +0.025 A 
ATOM      4  C   UNL     1      -6.051   4.617  -0.736  0.00  0.00    +0.031 A 
ATOM      5  C   UNL     1      -7.119   4.027  -1.395  0.00  0.00    -0.018 A 
ATOM      6  C   UNL     1      -7.160   2.644  -1.505  0.00  0.00    +0.034 A 
ATOM      7  C   UNL     1      -8.231   4.828  -1.994  0.00  0.00    +0.049 C 
ATOM      8  C   UNL     1      -9.485   4.746  -1.158  0.00  0.00    -0.023 C 
ATOM      9  C   UNL     1     -10.115   5.895  -1.171  0.00  0.00    -0.030 C 
ATOM     10  C   UNL     1      -9.368   6.901  -2.024  0.00  0.00    +0.033 C 
ATOM     11  C   UNL     1      -7.917   6.336  -2.061  0.00  0.00    +0.029 C 
ATOM     12  C   UNL     1      -7.204   6.777  -0.780  0.00  0.00    +0.105 C 
ATOM     13  N   UNL     1      -5.967   6.003  -0.635  0.00  0.00    -0.336 N 
ATOM     14  H   UNL     1      -5.013   6.519  -0.452  0.00  0.00    +0.147 HD
ENDROOT
BRANCH  12  15
ATOM     15  C   UNL     1      -8.098   6.528   0.407  0.00  0.00    -0.019 A 
ATOM     16  C   UNL     1      -8.096   5.314   1.022  0.00  0.00    +0.006 A 
ATOM     17  C   UNL     1      -8.912   5.066   2.124  0.00  0.00    +0.001 A 
ATOM     18  C   UNL     1      -9.742   6.029   2.612  0.00  0.00    +0.008 A 
ATOM     19  C   UNL     1      -9.775   7.293   2.000  0.00  0.00    -0.018 A 
ATOM     20  C   UNL     1      -8.942   7.546   0.882  0.00  0.00    -0.013 A 
ATOM     21  C   UNL     1      -8.975   8.811   0.270  0.00  0.00    +0.009 A 
ATOM     22  C   UNL     1      -9.805   9.773   0.758  0.00  0.00    +0.001 A 
ATOM     23  C   UNL     1     -10.625   9.524   1.857  0.00  0.00    +0.001 A 
ATOM     24  C   UNL     1     -10.619   8.312   2.475  0.00  0.00    +0.008 A 
ENDBRANCH  12  15
BRANCH   1  25
ATOM     25  S   UNL     1      -6.225   0.113  -1.118  0.00  0.00    +0.072 S 
ATOM     26  O   UNL     1      -7.583  -0.218  -1.373  0.00  0.00    -0.150 OA
ATOM     27  O   UNL     1      -5.506  -0.418  -0.014  0.00  0.00    -0.150 OA
BRANCH  25  28
ATOM     28  N   UNL     1      -5.375  -0.297  -2.479  0.00  0.00    -0.216 N 
ATOM     29  H   UNL     1      -5.891  -0.767  -3.329  0.00  0.00    +0.174 HD
BRANCH  28  33
ATOM     30  C   UNL     1      -1.280   0.455  -2.675  0.00  0.00    +0.121 A 
ATOM     31  C   UNL     1      -2.166   1.254  -3.383  0.00  0.00    +0.047 A 
ATOM     32  C   UNL     1      -3.522   1.003  -3.321  0.00  0.00    +0.028 A 
ATOM     33  C   UNL     1      -4.000  -0.046  -2.547  0.00  0.00    +0.048 A 
ATOM     34  C   UNL     1      -3.111  -0.848  -1.843  0.00  0.00    +0.028 A 
ATOM     35  C   UNL     1      -1.755  -0.596  -1.905  0.00  0.00    +0.047 A 
BRANCH  30  36
ATOM     36  O   UNL     1       0.056   0.704  -2.736  0.00  0.00    -0.492 OA
BRANCH  36  38
ATOM     37  C   UNL     1       2.367   0.273  -2.173  0.00  0.00    +0.048 C 
ATOM     38  C   UNL     1       0.911  -0.158  -1.982  0.00  0.00    +0.225 C 
ENDBRANCH  36  38
ENDBRANCH  30  36
ENDBRANCH  28  33
ENDBRANCH  25  28
ENDBRANCH   1  25
TORSDOF 6
