REMARK  Name = ZINC41004001
REMARK  7 active torsions:
REMARK  status: ('A' for Active; 'I' for Inactive)
REMARK    1  A    between atoms: C_1  and  C_2
REMARK    2  A    between atoms: C_2  and  S_3
REMARK    3  A    between atoms: S_3  and  C_4
REMARK    4  A    between atoms: C_9  and  C_24
REMARK    5  A    between atoms: C_11  and  C_15
REMARK    6  A    between atoms: C_12  and  C_14
REMARK    7  A    between atoms: N_17  and  C_18
REMARK                            x       y       z     vdW  Elec       q    Type
REMARK                         _______ _______ _______ _____ _____    ______ ____
ROOT
ATOM      1  C   UNL     1       0.179  -2.126  -2.257  0.00  0.00    +0.210 A 
ATOM      2  N   UNL     1      -0.067  -2.788  -1.117  0.00  0.00    -0.187 NA
ATOM      3  C   UNL     1       0.246  -4.046  -1.268  0.00  0.00    +0.220 A 
ATOM      4  N   UNL     1       0.711  -4.217  -2.530  0.00  0.00    -0.217 N 
ATOM      5  N   UNL     1       0.651  -2.969  -3.149  0.00  0.00    -0.141 NA
ATOM      6  C   UNL     1       1.168  -5.500  -3.057  0.00  0.00    +0.213 C 
ATOM      7  C   UNL     1       0.763  -6.601  -2.113  0.00  0.00    +0.063 C 
ATOM      8  C   UNL     1       0.305  -6.372  -0.874  0.00  0.00    +0.018 C 
ATOM      9  N   UNL     1       0.158  -5.103  -0.371  0.00  0.00    -0.287 N 
ATOM     10  C   UNL     1      -0.062  -7.547  -0.004  0.00  0.00    +0.061 C 
ATOM     11  H   UNL     1      -0.002  -4.950   0.573  0.00  0.00    +0.155 HD
ENDROOT
BRANCH   6  12
ATOM     12  C   UNL     1       0.542  -5.740  -4.407  0.00  0.00    +0.136 A 
ATOM     13  C   UNL     1       1.205  -5.857  -5.571  0.00  0.00    +0.048 A 
ATOM     14  C   UNL     1       0.234  -6.073  -6.576  0.00  0.00    +0.057 A 
ATOM     15  C   UNL     1      -0.965  -6.075  -5.965  0.00  0.00    +0.170 A 
ATOM     16  O   UNL     1      -0.772  -5.879  -4.650  0.00  0.00    -0.451 OA
ATOM     17 BR   UNL     1      -2.638  -6.321  -6.812  0.00  0.00    -0.008 Br
ENDBRANCH   6  12
BRANCH   7  18
ATOM     18  C   UNL     1       0.872  -7.941  -2.555  0.00  0.00    +0.248 C 
ATOM     19  O   UNL     1       1.970  -8.447  -2.702  0.00  0.00    -0.270 OA
ATOM     20  N   UNL     1      -0.240  -8.658  -2.813  0.00  0.00    -0.282 N 
ATOM     21  H   UNL     1      -1.112  -8.295  -2.594  0.00  0.00    +0.155 HD
BRANCH  20  22
ATOM     22  C   UNL     1      -0.136  -9.924  -3.397  0.00  0.00    +0.034 A 
ATOM     23  C   UNL     1       0.921 -10.761  -3.062  0.00  0.00    +0.023 A 
ATOM     24  C   UNL     1       1.021 -12.010  -3.641  0.00  0.00    +0.002 A 
ATOM     25  C   UNL     1       0.071 -12.430  -4.554  0.00  0.00    +0.000 A 
ATOM     26  C   UNL     1      -0.983 -11.599  -4.890  0.00  0.00    +0.002 A 
ATOM     27  C   UNL     1      -1.092 -10.350  -4.310  0.00  0.00    +0.023 A 
ENDBRANCH  20  22
ENDBRANCH   7  18
BRANCH   1  28
ATOM     28  S   UNL     1      -0.093  -0.405  -2.519  0.00  0.00    -0.085 S 
BRANCH  28  30
ATOM     29  C   UNL     1      -1.026   1.685  -1.020  0.00  0.00    +0.016 C 
ATOM     30  C   UNL     1      -0.742   0.184  -0.931  0.00  0.00    +0.074 C 
ENDBRANCH  28  30
ENDBRANCH   1  28
TORSDOF 5
