REMARK  Name = ZINC16104466
REMARK  5 active torsions:
REMARK  status: ('A' for Active; 'I' for Inactive)
REMARK    1  A    between atoms: C_6  and  N_7
REMARK    2  A    between atoms: C_8  and  C_10
REMARK    3  A    between atoms: C_12  and  S_17
REMARK    4  A    between atoms: S_17  and  N_20
REMARK    5  A    between atoms: N_20  and  C_21
REMARK                            x       y       z     vdW  Elec       q    Type
REMARK                         _______ _______ _______ _____ _____    ______ ____
ROOT
ATOM      1  N   UNL     1      -2.443  -0.109   0.026  0.00  0.00    -0.281 N 
ATOM      2  C   UNL     1      -1.277  -0.767   0.177  0.00  0.00    +0.249 C 
ATOM      3  O   UNL     1      -1.275  -1.974   0.326  0.00  0.00    -0.270 OA
ATOM      4  H   UNL     1      -2.451   0.860  -0.016  0.00  0.00    +0.155 HD
ENDROOT
BRANCH   1  10
ATOM      5  C   UNL     1      -4.815  -0.287   0.444  0.00  0.00    +0.027 A 
ATOM      6  C   UNL     1      -6.000  -0.992   0.348  0.00  0.00    +0.051 A 
ATOM      7  C   UNL     1      -6.022  -2.235  -0.263  0.00  0.00    +0.173 A 
ATOM      8  C   UNL     1      -4.848  -2.776  -0.782  0.00  0.00    +0.174 A 
ATOM      9  C   UNL     1      -3.662  -2.067  -0.690  0.00  0.00    +0.073 A 
ATOM     10  C   UNL     1      -3.643  -0.824  -0.072  0.00  0.00    +0.037 A 
ATOM     11  O   UNL     1      -5.132  -3.996  -1.325  0.00  0.00    -0.395 OA
ATOM     12  C   UNL     1      -6.561  -4.016  -1.498  0.00  0.00    +0.589 C 
ATOM     13  O   UNL     1      -7.042  -3.117  -0.481  0.00  0.00    -0.395 OA
ATOM     14  F   UNL     1      -6.909  -3.550  -2.771  0.00  0.00    -0.125 F 
ATOM     15  F   UNL     1      -7.063  -5.306  -1.295  0.00  0.00    -0.125 F 
ENDBRANCH   1  10
BRANCH   2  16
ATOM     16  C   UNL     1      -0.001  -0.022   0.163  0.00  0.00    +0.053 A 
ATOM     17  C   UNL     1       0.000   1.364  -0.007  0.00  0.00    +0.042 A 
ATOM     18  C   UNL     1       1.194   2.053  -0.019  0.00  0.00    +0.106 A 
ATOM     19  C   UNL     1       2.391   1.375   0.138  0.00  0.00    +0.029 A 
ATOM     20  C   UNL     1       2.398   0.003   0.307  0.00  0.00    +0.018 A 
ATOM     21  C   UNL     1       1.210  -0.701   0.321  0.00  0.00    +0.030 A 
ATOM     22 BR   UNL     1       1.221  -2.577   0.553  0.00  0.00    -0.050 Br
BRANCH  18  23
ATOM     23  S   UNL     1       1.198   3.802  -0.234  0.00  0.00    +0.059 S 
ATOM     24  O   UNL     1       2.475   4.145  -0.754  0.00  0.00    -0.153 OA
ATOM     25  O   UNL     1      -0.011   4.131  -0.905  0.00  0.00    -0.153 OA
BRANCH  23  26
ATOM     26  N   UNL     1       1.102   4.481   1.273  0.00  0.00    -0.187 NA
ATOM     27  H   UNL     1       0.321   5.000   1.523  0.00  0.00    +0.148 HD
BRANCH  26  28
ATOM     28  C   UNL     1       2.197   4.299   2.229  0.00  0.00    +0.077 C 
ATOM     29  C   UNL     1       1.832   4.205   3.712  0.00  0.00    +0.022 C 
ATOM     30  C   UNL     1       2.514   5.463   3.170  0.00  0.00    +0.022 C 
ENDBRANCH  26  28
ENDBRANCH  23  26
ENDBRANCH  18  23
ENDBRANCH   2  16
TORSDOF 5
