REMARK  Name = ZINC35917922
REMARK  12 active torsions:
REMARK  status: ('A' for Active; 'I' for Inactive)
REMARK    1  A    between atoms: C_1  and  C_2
REMARK    2  A    between atoms: C_5  and  C_8
REMARK    3  A    between atoms: N_11  and  C_24
REMARK    4  A    between atoms: C_13  and  C_15
REMARK    5  A    between atoms: C_15  and  N_16
REMARK    6  A    between atoms: N_16  and  C_17
REMARK    7  A    between atoms: C_17  and  C_18
REMARK    8  A    between atoms: C_18  and  O_19
REMARK    9  A    between atoms: O_19  and  C_20
REMARK   10  A    between atoms: C_21  and  C_23
REMARK   11  A    between atoms: C_24  and  C_25
REMARK   12  A    between atoms: C_26  and  C_30
REMARK                            x       y       z     vdW  Elec       q    Type
REMARK                         _______ _______ _______ _____ _____    ______ ____
ROOT
ATOM      1  C   UNL     1       0.135  -4.255  -0.214  0.00  0.00    +0.039 C 
ATOM      2  C   UNL     1      -0.945  -5.098   0.498  0.00  0.00    +0.093 C 
ATOM      3  N   UNL     1      -0.246  -6.350   0.887  0.00  0.00    -0.297 NA
ATOM      4  C   UNL     1       1.097  -5.896   1.330  0.00  0.00    +0.090 C 
ATOM      5  C   UNL     1       1.480  -4.780   0.331  0.00  0.00    +0.029 C 
ENDROOT
BRANCH   1  10
ATOM      6  C   UNL     1      -0.513   1.340   1.078  0.00  0.00    +0.044 C 
ATOM      7  C   UNL     1      -0.344  -0.119   0.741  0.00  0.00    -0.050 A 
ATOM      8  C   UNL     1      -0.132  -0.506  -0.569  0.00  0.00    +0.003 A 
ATOM      9  C   UNL     1       0.023  -1.845  -0.878  0.00  0.00    +0.004 A 
ATOM     10  C   UNL     1      -0.033  -2.796   0.123  0.00  0.00    -0.043 A 
ATOM     11  C   UNL     1      -0.244  -2.409   1.433  0.00  0.00    +0.004 A 
ATOM     12  C   UNL     1      -0.395  -1.070   1.743  0.00  0.00    +0.003 A 
ENDBRANCH   1  10
BRANCH   5  13
ATOM     13  C   UNL     1       2.235  -3.659   1.048  0.00  0.00    +0.113 C 
BRANCH  13  14
ATOM     14  N   UNL     1       3.567  -4.136   1.431  0.00  0.00    -0.299 N 
ATOM     15  C   UNL     1       3.785  -4.596   2.679  0.00  0.00    +0.213 C 
ATOM     16  O   UNL     1       4.856  -5.087   2.966  0.00  0.00    -0.276 OA
ATOM     17  C   UNL     1       2.697  -4.500   3.718  0.00  0.00    +0.109 C 
BRANCH  14  18
ATOM     18  C   UNL     1       4.661  -4.113   0.458  0.00  0.00    +0.135 C 
BRANCH  18  19
ATOM     19  C   UNL     1       5.395  -2.773   0.547  0.00  0.00    +0.178 C 
BRANCH  19  20
ATOM     20  O   UNL     1       6.024  -2.660   1.826  0.00  0.00    -0.381 OA
ATOM     21  C   UNL     1       6.741  -1.438   2.014  0.00  0.00    +0.194 C 
ENDBRANCH  19  20
ENDBRANCH  18  19
ENDBRANCH  14  18
ENDBRANCH  13  14
ENDBRANCH   5  13
BRANCH   3  22
ATOM     22  C   UNL     1      -0.957  -7.032   1.977  0.00  0.00    +0.127 C 
BRANCH  22  23
ATOM     23  C   UNL     1      -2.256  -7.591   1.458  0.00  0.00    +0.007 A 
ATOM     24  C   UNL     1      -2.508  -8.810   0.921  0.00  0.00    -0.039 A 
ATOM     25  C   UNL     1      -3.792  -9.108   0.508  0.00  0.00    +0.011 A 
ATOM     26  C   UNL     1      -4.763  -8.173   0.651  0.00  0.00    +0.046 A 
ATOM     27  S   UNL     1      -3.866  -6.821   1.396  0.00  0.00    -0.100 S 
ATOM     28  C   UNL     1      -1.403  -9.825   0.778  0.00  0.00    +0.044 C 
ENDBRANCH  22  23
ENDBRANCH   3  22
TORSDOF 8
