REMARK  Name = ZINC35424534
REMARK  10 active torsions:
REMARK  status: ('A' for Active; 'I' for Inactive)
REMARK    1  A    between atoms: C_1  and  N_2
REMARK    2  A    between atoms: C_4  and  N_22
REMARK    3  A    between atoms: C_7  and  C_9
REMARK    4  A    between atoms: C_11  and  C_14
REMARK    5  A    between atoms: C_17  and  O_20
REMARK    6  A    between atoms: O_20  and  C_21
REMARK    7  A    between atoms: N_22  and  C_23
REMARK    8  A    between atoms: C_23  and  C_24
REMARK    9  A    between atoms: C_27  and  O_30
REMARK   10  A    between atoms: O_30  and  C_31
REMARK                            x       y       z     vdW  Elec       q    Type
REMARK                         _______ _______ _______ _____ _____    ______ ____
ROOT
ATOM      1  C   UNL     1       0.764   1.356  -0.406  0.00  0.00    -0.095 C 
ATOM      2  N   UNL     1       0.471  -0.074  -0.241  0.00  0.00    +0.387 N 
ATOM      3  C   UNL     1       1.282  -0.861  -1.194  0.00  0.00    -0.059 C 
ATOM      4  C   UNL     1       1.650  -2.155  -0.426  0.00  0.00    +0.036 C 
ATOM      5  C   UNL     1       1.873  -1.614   1.011  0.00  0.00    +0.011 C 
ATOM      6  C   UNL     1       0.816  -0.495   1.129  0.00  0.00    +0.023 C 
ATOM      7  H   UNL     1      -0.509  -0.242  -0.412  0.00  0.00    -0.081 HD
ENDROOT
BRANCH   6   8
ATOM      8  C   UNL     1       1.386   0.670   1.896  0.00  0.00    +0.214 A 
ATOM      9  N   UNL     1       0.863   1.209   2.961  0.00  0.00    -0.193 NA
ATOM     10  C   UNL     1       1.633   2.226   3.387  0.00  0.00    +0.202 A 
ATOM     11  N   UNL     1       2.662   2.338   2.582  0.00  0.00    -0.056 NA
ATOM     12  O   UNL     1       2.518   1.322   1.602  0.00  0.00    -0.339 OA
BRANCH  10  13
ATOM     13  C   UNL     1       1.362   3.080   4.569  0.00  0.00    +0.023 A 
ATOM     14  C   UNL     1       0.230   2.853   5.350  0.00  0.00    +0.015 A 
ATOM     15  C   UNL     1      -0.019   3.648   6.449  0.00  0.00    +0.046 A 
ATOM     16  C   UNL     1       0.857   4.674   6.778  0.00  0.00    +0.120 A 
ATOM     17  C   UNL     1       1.986   4.902   6.002  0.00  0.00    +0.046 A 
ATOM     18  C   UNL     1       2.243   4.107   4.906  0.00  0.00    +0.015 A 
BRANCH  16  19
ATOM     19  O   UNL     1       0.609   5.455   7.861  0.00  0.00    -0.495 OA
ATOM     20  C   UNL     1       1.551   6.492   8.142  0.00  0.00    +0.277 C 
ENDBRANCH  16  19
ENDBRANCH  10  13
ENDBRANCH   6   8
BRANCH   4  21
ATOM     21  N   UNL     1       2.881  -2.753  -0.961  0.00  0.00    -0.311 NA
ATOM     22  H   UNL     1       2.975  -2.565  -1.948  0.00  0.00    +0.122 HD
BRANCH  21  23
ATOM     23  C   UNL     1       2.924  -4.197  -0.693  0.00  0.00    +0.116 C 
BRANCH  23  24
ATOM     24  C   UNL     1       4.198  -4.774  -1.255  0.00  0.00    -0.033 A 
ATOM     25  C   UNL     1       4.228  -5.242  -2.555  0.00  0.00    +0.008 A 
ATOM     26  C   UNL     1       5.394  -5.772  -3.072  0.00  0.00    +0.046 A 
ATOM     27  C   UNL     1       6.536  -5.833  -2.286  0.00  0.00    +0.120 A 
ATOM     28  C   UNL     1       6.503  -5.362  -0.982  0.00  0.00    +0.046 A 
ATOM     29  C   UNL     1       5.335  -4.828  -0.471  0.00  0.00    +0.008 A 
BRANCH  27  30
ATOM     30  O   UNL     1       7.684  -6.355  -2.792  0.00  0.00    -0.495 OA
ATOM     31  C   UNL     1       8.820  -6.386  -1.926  0.00  0.00    +0.277 C 
ENDBRANCH  27  30
ENDBRANCH  23  24
ENDBRANCH  21  23
ENDBRANCH   4  21
TORSDOF 7
