REMARK  Name = ZINC12474741
REMARK  9 active torsions:
REMARK  status: ('A' for Active; 'I' for Inactive)
REMARK    1  A    between atoms: C_1  and  C_2
REMARK    2  A    between atoms: C_3  and  C_34
REMARK    3  A    between atoms: C_8  and  C_10
REMARK    4  A    between atoms: C_10  and  S_11
REMARK    5  A    between atoms: S_11  and  C_12
REMARK    6  A    between atoms: C_15  and  C_23
REMARK    7  A    between atoms: N_16  and  C_17
REMARK    8  A    between atoms: C_17  and  C_18
REMARK    9  A    between atoms: C_32  and  O_33
REMARK                            x       y       z     vdW  Elec       q    Type
REMARK                         _______ _______ _______ _____ _____    ______ ____
ROOT
ATOM      1  C   UNL     1       4.567   0.578  -0.282  0.00  0.00    +0.193 A 
ATOM      2  N   UNL     1       3.869  -0.519  -0.088  0.00  0.00    -0.122 NA
ATOM      3  N   UNL     1       2.648  -0.223   0.183  0.00  0.00    -0.128 NA
ATOM      4  C   UNL     1       2.492   1.080   0.179  0.00  0.00    +0.169 A 
ATOM      5  N   UNL     1       3.715   1.633  -0.124  0.00  0.00    -0.295 N 
ENDROOT
BRANCH   4   6
ATOM      6  C   UNL     1       1.238   1.815   0.445  0.00  0.00    +0.061 A 
ATOM      7  C   UNL     1       0.834   2.820  -0.417  0.00  0.00    +0.023 A 
ATOM      8  C   UNL     1      -0.355   3.518  -0.157  0.00  0.00    -0.017 A 
ATOM      9  C   UNL     1      -0.798   4.541  -1.014  0.00  0.00    +0.008 A 
ATOM     10  C   UNL     1      -1.959   5.195  -0.738  0.00  0.00    +0.001 A 
ATOM     11  C   UNL     1      -2.721   4.864   0.381  0.00  0.00    +0.001 A 
ATOM     12  C   UNL     1      -2.326   3.876   1.231  0.00  0.00    +0.008 A 
ATOM     13  C   UNL     1      -1.133   3.177   0.980  0.00  0.00    -0.014 A 
ATOM     14  C   UNL     1      -0.700   2.152   1.839  0.00  0.00    +0.054 A 
ATOM     15  C   UNL     1       0.460   1.487   1.575  0.00  0.00    +0.128 A 
BRANCH  15  16
ATOM     16  O   UNL     1       0.872   0.498   2.410  0.00  0.00    -0.506 OA
ATOM     17  H   UNL     1       1.376   0.811   3.173  0.00  0.00    +0.292 HD
ENDBRANCH  15  16
ENDBRANCH   4   6
BRANCH   1  18
ATOM     18  S   UNL     1       6.282   0.669  -0.678  0.00  0.00    -0.077 S 
BRANCH  18  19
ATOM     19  C   UNL     1       6.689  -1.094  -0.718  0.00  0.00    +0.173 C 
BRANCH  19  27
ATOM     20  C   UNL     1      13.218  -0.990  -2.220  0.00  0.00    +0.066 C 
ATOM     21  C   UNL     1      12.187  -2.056  -1.950  0.00  0.00    +0.050 A 
ATOM     22  C   UNL     1      12.521  -3.369  -1.986  0.00  0.00    +0.011 A 
ATOM     23  S   UNL     1      10.947  -4.122  -1.602  0.00  0.00    -0.057 S 
ATOM     24  C   UNL     1      10.029  -2.657  -1.436  0.00  0.00    +0.165 A 
ATOM     25  N   UNL     1      10.937  -1.732  -1.679  0.00  0.00    -0.230 NA
ATOM     26  N   UNL     1       8.682  -2.500  -1.132  0.00  0.00    -0.264 N 
ATOM     27  C   UNL     1       8.150  -1.265  -1.048  0.00  0.00    +0.229 C 
ATOM     28  O   UNL     1       8.847  -0.290  -1.238  0.00  0.00    -0.275 OA
ATOM     29  C   UNL     1      13.852  -4.015  -2.272  0.00  0.00    +0.053 C 
ATOM     30  H   UNL     1       8.125  -3.279  -0.980  0.00  0.00    +0.157 HD
ENDBRANCH  19  27
ENDBRANCH  18  19
ENDBRANCH   1  18
BRANCH   5  31
ATOM     31  C   UNL     1       4.036   3.057  -0.250  0.00  0.00    +0.200 C 
BRANCH  31  32
ATOM     32  C   UNL     1       4.343   3.625   1.112  0.00  0.00    +0.125 A 
ATOM     33  C   UNL     1       5.555   3.667   1.692  0.00  0.00    +0.046 A 
ATOM     34  C   UNL     1       5.385   4.280   2.954  0.00  0.00    +0.041 A 
ATOM     35  C   UNL     1       4.076   4.568   3.074  0.00  0.00    +0.195 A 
ATOM     36  O   UNL     1       3.450   4.169   1.955  0.00  0.00    -0.466 OA
ENDBRANCH  31  32
ENDBRANCH   5  31
TORSDOF 7
