REMARK  Name = ZINC06471991
REMARK  15 active torsions:
REMARK  status: ('A' for Active; 'I' for Inactive)
REMARK    1  A    between atoms: C_1  and  C_2
REMARK    2  A    between atoms: C_2  and  C_3
REMARK    3  A    between atoms: C_3  and  C_4
REMARK    4  A    between atoms: C_4  and  C_5
REMARK    5  A    between atoms: C_5  and  C_6
REMARK    6  A    between atoms: C_6  and  O_7
REMARK    7  A    between atoms: O_7  and  C_8
REMARK    8  A    between atoms: C_11  and  N_14
REMARK    9  A    between atoms: C_18  and  N_22
REMARK   10  A    between atoms: N_22  and  C_23
REMARK   11  A    between atoms: C_23  and  C_24
REMARK   12  A    between atoms: C_24  and  C_25
REMARK   13  A    between atoms: C_28  and  S_31
REMARK   14  A    between atoms: S_31  and  N_34
REMARK   15  A    between atoms: C_35  and  C_37
REMARK                            x       y       z     vdW  Elec       q    Type
REMARK                         _______ _______ _______ _____ _____    ______ ____
ROOT
ATOM      1  N   UNL     1       2.683  -9.972  -4.127  0.00  0.00    -0.209 N 
ATOM      2  C   UNL     1       2.300 -10.891  -3.232  0.00  0.00    +0.228 C 
ATOM      3  O   UNL     1       1.879 -10.656  -2.120  0.00  0.00    -0.275 OA
ATOM      4  C   UNL     1       2.477 -12.270  -3.830  0.00  0.00    +0.128 C 
ATOM      5  C   UNL     1       3.034 -11.985  -5.239  0.00  0.00    +0.171 C 
ATOM      6  C   UNL     1       3.108 -10.475  -5.293  0.00  0.00    +0.247 C 
ATOM      7  O   UNL     1       3.494  -9.823  -6.239  0.00  0.00    -0.273 OA
ENDROOT
BRANCH   1  11
ATOM      8  C   UNL     1       2.544  -5.875  -3.352  0.00  0.00    +0.121 A 
ATOM      9  C   UNL     1       1.867  -6.397  -4.444  0.00  0.00    +0.047 A 
ATOM     10  C   UNL     1       1.913  -7.753  -4.701  0.00  0.00    +0.027 A 
ATOM     11  C   UNL     1       2.637  -8.593  -3.867  0.00  0.00    +0.044 A 
ATOM     12  C   UNL     1       3.314  -8.070  -2.774  0.00  0.00    +0.027 A 
ATOM     13  C   UNL     1       3.272  -6.713  -2.521  0.00  0.00    +0.047 A 
BRANCH   8  14
ATOM     14  O   UNL     1       2.499  -4.539  -3.100  0.00  0.00    -0.492 OA
BRANCH  14  15
ATOM     15  C   UNL     1       1.731  -3.735  -3.997  0.00  0.00    +0.229 C 
BRANCH  15  16
ATOM     16  C   UNL     1       1.799  -2.272  -3.555  0.00  0.00    +0.041 C 
BRANCH  16  17
ATOM     17  C   UNL     1       0.976  -1.411  -4.516  0.00  0.00    +0.003 C 
BRANCH  17  18
ATOM     18  C   UNL     1       1.043   0.053  -4.074  0.00  0.00    -0.000 C 
BRANCH  18  20
ATOM     19  C   UNL     1       0.288   2.377  -4.593  0.00  0.00    +0.004 C 
ATOM     20  C   UNL     1       0.221   0.914  -5.034  0.00  0.00    -0.003 C 
ENDBRANCH  18  20
ENDBRANCH  17  18
ENDBRANCH  16  17
ENDBRANCH  15  16
ENDBRANCH  14  15
ENDBRANCH   8  14
ENDBRANCH   1  11
BRANCH   5  21
ATOM     21  N   UNL     1       4.363 -12.580  -5.399  0.00  0.00    -0.289 N 
ATOM     22  C   UNL     1       5.348 -12.273  -4.531  0.00  0.00    +0.213 C 
ATOM     23  O   UNL     1       5.164 -11.427  -3.681  0.00  0.00    -0.276 OA
ATOM     24  C   UNL     1       6.676 -12.980  -4.617  0.00  0.00    +0.109 C 
BRANCH  21  25
ATOM     25  C   UNL     1       4.622 -13.509  -6.501  0.00  0.00    +0.113 C 
BRANCH  25  26
ATOM     26  C   UNL     1       5.245 -12.749  -7.673  0.00  0.00    +0.054 C 
BRANCH  26  27
ATOM     27  C   UNL     1       5.512 -13.705  -8.808  0.00  0.00    -0.046 A 
ATOM     28  C   UNL     1       6.724 -14.364  -8.885  0.00  0.00    +0.005 A 
ATOM     29  C   UNL     1       6.968 -15.241  -9.925  0.00  0.00    +0.029 A 
ATOM     30  C   UNL     1       6.000 -15.459 -10.888  0.00  0.00    +0.105 A 
ATOM     31  C   UNL     1       4.788 -14.800 -10.810  0.00  0.00    +0.029 A 
ATOM     32  C   UNL     1       4.542 -13.926  -9.767  0.00  0.00    +0.005 A 
BRANCH  30  33
ATOM     33  S   UNL     1       6.313 -16.576 -12.215  0.00  0.00    +0.056 S 
ATOM     34  O   UNL     1       5.456 -16.190 -13.280  0.00  0.00    -0.153 OA
ATOM     35  O   UNL     1       7.724 -16.648 -12.361  0.00  0.00    -0.153 OA
BRANCH  33  36
ATOM     36  N   UNL     1       5.810 -18.074 -11.722  0.00  0.00    -0.204 NA
ATOM     37  H   UNL     1       5.428 -18.191 -10.838  0.00  0.00    +0.144 HD
ATOM     38  H   UNL     1       5.897 -18.835 -12.317  0.00  0.00    +0.144 HD
ENDBRANCH  33  36
ENDBRANCH  30  33
ENDBRANCH  26  27
ENDBRANCH  25  26
ENDBRANCH  21  25
ENDBRANCH   5  21
TORSDOF 13
