REMARK  Name = ZINC65967103
REMARK  7 active torsions:
REMARK  status: ('A' for Active; 'I' for Inactive)
REMARK    1  A    between atoms: C_1  and  O_2
REMARK    2  A    between atoms: O_2  and  C_3
REMARK    3  A    between atoms: C_7  and  C_11
REMARK    4  A    between atoms: C_8  and  O_9
REMARK    5  A    between atoms: O_9  and  C_10
REMARK    6  A    between atoms: C_13  and  C_16
REMARK    7  A    between atoms: C_16  and  N_17
REMARK                            x       y       z     vdW  Elec       q    Type
REMARK                         _______ _______ _______ _____ _____    ______ ____
ROOT
ATOM      1  C   UNL     1       1.336  -4.082  -2.311  0.00  0.00    +0.112 A 
ATOM      2  N   UNL     1       1.878  -4.848  -3.248  0.00  0.00    -0.246 NA
ATOM      3  C   UNL     1       1.837  -6.158  -3.165  0.00  0.00    +0.033 A 
ATOM      4  C   UNL     1       1.231  -6.751  -2.103  0.00  0.00    +0.068 A 
ATOM      5  S   UNL     1       0.702  -5.313  -1.180  0.00  0.00    -0.075 S 
ENDROOT
BRANCH   1  10
ATOM      6  C   UNL     1       0.606  -0.608  -1.056  0.00  0.00    +0.162 A 
ATOM      7  C   UNL     1       1.173   0.161  -2.062  0.00  0.00    +0.049 A 
ATOM      8  C   UNL     1       1.788  -0.447  -3.142  0.00  0.00    +0.004 A 
ATOM      9  C   UNL     1       1.844  -1.823  -3.228  0.00  0.00    +0.014 A 
ATOM     10  C   UNL     1       1.278  -2.608  -2.222  0.00  0.00    +0.052 A 
ATOM     11  C   UNL     1       0.661  -1.994  -1.127  0.00  0.00    +0.171 A 
BRANCH   6  13
ATOM     12  C   UNL     1      -0.017   1.425   0.010  0.00  0.00    +0.277 C 
ATOM     13  O   UNL     1       0.002  -0.004   0.002  0.00  0.00    -0.491 OA
ENDBRANCH   6  13
BRANCH  11  14
ATOM     14  O   UNL     1       0.112  -2.751  -0.141  0.00  0.00    -0.491 OA
ATOM     15  C   UNL     1      -1.259  -3.123  -0.296  0.00  0.00    +0.277 C 
ENDBRANCH  11  14
ENDBRANCH   1  10
BRANCH   3  16
ATOM     16  C   UNL     1       2.461  -7.003  -4.246  0.00  0.00    -0.021 C 
BRANCH  16  17
ATOM     17  N   UNL     1       1.500  -7.183  -5.342  0.00  0.00    +0.385 N 
ATOM     18  C   UNL     1       0.323  -7.798  -4.804  0.00  0.00    -0.074 C 
ATOM     19  C   UNL     1      -0.541  -8.516  -5.794  0.00  0.00    -0.027 C 
ATOM     20  C   UNL     1      -0.726  -7.794  -7.111  0.00  0.00    +0.005 C 
ATOM     21  C   UNL     1       0.368  -8.074  -8.127  0.00  0.00    -0.012 C 
ATOM     22  C   UNL     1       0.617  -9.578  -8.263  0.00  0.00    +0.007 C 
ATOM     23  C   UNL     1       1.001 -10.121  -6.886  0.00  0.00    -0.012 C 
ATOM     24  C   UNL     1      -0.211  -9.982  -5.959  0.00  0.00    +0.005 C 
ATOM     25  C   UNL     1       2.191  -9.387  -6.307  0.00  0.00    -0.012 C 
ATOM     26  C   UNL     1       2.163  -7.890  -6.406  0.00  0.00    -0.068 C 
ATOM     27  C   UNL     1       1.682  -7.391  -7.764  0.00  0.00    -0.012 C 
ATOM     28  H   UNL     1       1.246  -6.269  -5.686  0.00  0.00    -0.081 HD
ENDBRANCH  16  17
ENDBRANCH   3  16
TORSDOF 5
