REMARK  Name = ZINC08755440
REMARK  8 active torsions:
REMARK  status: ('A' for Active; 'I' for Inactive)
REMARK    1  A    between atoms: C_4  and  C_7
REMARK    2  A    between atoms: C_8  and  C_29
REMARK    3  A    between atoms: C_10  and  S_12
REMARK    4  A    between atoms: S_12  and  C_13
REMARK    5  A    between atoms: C_13  and  C_14
REMARK    6  A    between atoms: N_16  and  N_17
REMARK    7  A    between atoms: C_18  and  C_20
REMARK    8  A    between atoms: C_24  and  N_26
REMARK                            x       y       z     vdW  Elec       q    Type
REMARK                         _______ _______ _______ _____ _____    ______ ____
ROOT
ATOM      1  S   UNL     1       3.740  10.216   0.205  0.00  0.00    -0.058 S 
ENDROOT
BRANCH   1   5
ATOM      2  C   UNL     1       3.952  14.072  -0.129  0.00  0.00    +0.118 A 
ATOM      3  C   UNL     1       2.596  13.935   0.079  0.00  0.00    +0.164 A 
ATOM      4  O   UNL     1       2.356  12.609   0.212  0.00  0.00    -0.430 OA
ATOM      5  C   UNL     1       3.527  11.962   0.099  0.00  0.00    +0.258 A 
ATOM      6  N   UNL     1       4.486  12.832  -0.109  0.00  0.00    -0.203 NA
BRANCH   2  10
ATOM      7  C   UNL     1       6.059  17.716  -0.721  0.00  0.00    +0.000 A 
ATOM      8  C   UNL     1       6.596  16.733   0.092  0.00  0.00    +0.001 A 
ATOM      9  C   UNL     1       5.917  15.549   0.288  0.00  0.00    +0.010 A 
ATOM     10  C   UNL     1       4.686  15.342  -0.335  0.00  0.00    +0.004 A 
ATOM     11  C   UNL     1       4.152  16.334  -1.157  0.00  0.00    +0.010 A 
ATOM     12  C   UNL     1       4.838  17.517  -1.341  0.00  0.00    +0.001 A 
ENDBRANCH   2  10
BRANCH   3  13
ATOM     13  C   UNL     1       1.600  15.020   0.138  0.00  0.00    +0.020 A 
ATOM     14  C   UNL     1       1.839  16.151   0.925  0.00  0.00    +0.011 A 
ATOM     15  C   UNL     1       0.905  17.164   0.972  0.00  0.00    +0.001 A 
ATOM     16  C   UNL     1      -0.272  17.059   0.251  0.00  0.00    +0.000 A 
ATOM     17  C   UNL     1      -0.518  15.941  -0.526  0.00  0.00    +0.001 A 
ATOM     18  C   UNL     1       0.409  14.922  -0.587  0.00  0.00    +0.011 A 
ENDBRANCH   3  13
ENDBRANCH   1   5
BRANCH   1  19
ATOM     19  C   UNL     1       2.028   9.707   0.493  0.00  0.00    +0.176 C 
BRANCH  19  20
ATOM     20  C   UNL     1       1.964   8.207   0.621  0.00  0.00    +0.239 C 
ATOM     21  O   UNL     1       2.978   7.547   0.525  0.00  0.00    -0.273 OA
ATOM     22  N   UNL     1       0.782   7.598   0.840  0.00  0.00    -0.233 N 
ATOM     23  H   UNL     1      -0.028   8.126   0.916  0.00  0.00    +0.173 HD
BRANCH  22  24
ATOM     24  N   UNL     1       0.723   6.204   0.958  0.00  0.00    -0.230 N 
ATOM     25  C   UNL     1      -0.459   5.595   1.178  0.00  0.00    +0.260 C 
ATOM     26  O   UNL     1      -1.474   6.256   1.273  0.00  0.00    -0.269 OA
ATOM     27  H   UNL     1       1.534   5.676   0.882  0.00  0.00    +0.173 HD
BRANCH  25  28
ATOM     28  C   UNL     1      -0.521   4.123   1.302  0.00  0.00    +0.040 A 
ATOM     29  C   UNL     1       0.643   3.361   1.193  0.00  0.00    +0.013 A 
ATOM     30  C   UNL     1       0.578   1.988   1.310  0.00  0.00    +0.003 A 
ATOM     31  C   UNL     1      -0.638   1.366   1.534  0.00  0.00    +0.033 A 
ATOM     32  C   UNL     1      -1.796   2.115   1.638  0.00  0.00    +0.127 A 
ATOM     33  C   UNL     1      -1.744   3.490   1.529  0.00  0.00    +0.045 A 
BRANCH  32  34
ATOM     34  N   UNL     1      -3.093   1.442   1.872  0.00  0.00    +0.056 N 
ATOM     35  O   UNL     1      -3.140   0.229   1.973  0.00  0.00    -0.126 OA
ATOM     36  O   UNL     1      -4.114   2.100   1.964  0.00  0.00    -0.126 OA
ENDBRANCH  32  34
ENDBRANCH  25  28
ENDBRANCH  22  24
ENDBRANCH  19  20
ENDBRANCH   1  19
TORSDOF 8
