REMARK  Name = ZINC04978742
REMARK  4 active torsions:
REMARK  status: ('A' for Active; 'I' for Inactive)
REMARK    1  A    between atoms: C_7  and  C_11
REMARK    2  A    between atoms: C_11  and  C_12
REMARK    3  A    between atoms: C_11  and  C_20
REMARK    4  A    between atoms: C_16  and  O_19
REMARK                            x       y       z     vdW  Elec       q    Type
REMARK                         _______ _______ _______ _____ _____    ______ ____
ROOT
ATOM      1  C   UNL     1      -0.018   1.503   0.010  0.00  0.00    +0.084 C 
ENDROOT
BRANCH   1   8
ATOM      2  C   UNL     1      -1.714  -1.711  -2.951  0.00  0.00    +0.001 A 
ATOM      3  C   UNL     1      -1.452  -3.013  -2.545  0.00  0.00    +0.002 A 
ATOM      4  C   UNL     1      -0.759  -3.259  -1.379  0.00  0.00    +0.026 A 
ATOM      5  C   UNL     1      -0.317  -2.195  -0.601  0.00  0.00    +0.047 A 
ATOM      6  C   UNL     1      -0.585  -0.878  -1.017  0.00  0.00    +0.004 A 
ATOM      7  C   UNL     1      -1.288  -0.651  -2.201  0.00  0.00    +0.010 A 
ATOM      8  C   UNL     1       0.002  -0.004   0.002  0.00  0.00    -0.011 A 
ATOM      9  C   UNL     1       0.566  -0.800   0.924  0.00  0.00    +0.088 A 
ATOM     10  N   UNL     1       0.381  -2.112   0.584  0.00  0.00    -0.360 N 
ATOM     11  H   UNL     1       0.698  -2.872   1.098  0.00  0.00    +0.165 HD
ENDBRANCH   1   8
BRANCH   1  12
ATOM     12  C   UNL     1       1.395   2.024  -0.000  0.00  0.00    -0.011 A 
ATOM     13  C   UNL     1       2.338   1.794   0.927  0.00  0.00    +0.088 A 
ATOM     14  N   UNL     1       3.500   2.428   0.578  0.00  0.00    -0.360 N 
ATOM     15  H   UNL     1       4.322   2.407   1.092  0.00  0.00    +0.165 HD
ATOM     16  C   UNL     1       3.325   3.107  -0.607  0.00  0.00    +0.047 A 
ATOM     17  C   UNL     1       1.999   2.884  -1.021  0.00  0.00    +0.004 A 
ATOM     18  C   UNL     1       1.534   3.456  -2.207  0.00  0.00    +0.010 A 
ATOM     19  C   UNL     1       2.371   4.231  -2.960  0.00  0.00    +0.001 A 
ATOM     20  C   UNL     1       3.680   4.455  -2.555  0.00  0.00    +0.002 A 
ATOM     21  C   UNL     1       4.159   3.900  -1.389  0.00  0.00    +0.026 A 
ENDBRANCH   1  12
BRANCH   1  22
ATOM     22  C   UNL     1      -0.724   1.989   1.250  0.00  0.00    -0.014 A 
ATOM     23  C   UNL     1      -0.238   1.649   2.500  0.00  0.00    +0.006 A 
ATOM     24  C   UNL     1      -0.879   2.098   3.639  0.00  0.00    +0.004 A 
ATOM     25  C   UNL     1      -2.015   2.878   3.532  0.00  0.00    +0.047 A 
ATOM     26  C   UNL     1      -2.508   3.216   2.281  0.00  0.00    +0.135 A 
ATOM     27  C   UNL     1      -1.859   2.769   1.138  0.00  0.00    +0.086 A 
ATOM     28 CL   UNL     1      -2.474   3.188  -0.431  0.00  0.00    -0.079 Cl
BRANCH  26  29
ATOM     29  O   UNL     1      -3.625   3.983   2.174  0.00  0.00    -0.505 OA
ATOM     30  H   UNL     1      -4.449   3.477   2.143  0.00  0.00    +0.292 HD
ENDBRANCH  26  29
ENDBRANCH   1  22
TORSDOF 4
