REMARK  Name = ZINC34990997
REMARK  3 active torsions:
REMARK  status: ('A' for Active; 'I' for Inactive)
REMARK    1  A    between atoms: C_1  and  C_2
REMARK    2  A    between atoms: C_3  and  C_30
REMARK    3  A    between atoms: C_8  and  C_23
REMARK                            x       y       z     vdW  Elec       q    Type
REMARK                         _______ _______ _______ _____ _____    ______ ____
ROOT
ATOM      1  C   UNL     1      -0.018   1.503   0.010  0.00  0.00    +0.066 C 
ATOM      2  C   UNL     1       0.002  -0.004   0.002  0.00  0.00    +0.050 A 
ATOM      3  C   UNL     1       0.006  -0.706  -1.158  0.00  0.00    +0.011 A 
ATOM      4  S   UNL     1       0.032  -2.379  -0.535  0.00  0.00    -0.057 S 
ATOM      5  C   UNL     1       0.035  -2.015   1.108  0.00  0.00    +0.169 A 
ATOM      6  N   UNL     1       0.023  -0.699   1.124  0.00  0.00    -0.229 NA
ATOM      7  N   UNL     1       0.051  -2.890   2.185  0.00  0.00    -0.232 N 
ATOM      8  C   UNL     1       0.047  -2.511   3.608  0.00  0.00    +0.151 C 
ATOM      9  C   UNL     1       0.072  -3.795   4.371  0.00  0.00    +0.072 A 
ATOM     10  C   UNL     1       0.089  -4.061   5.812  0.00  0.00    +0.199 A 
ATOM     11  O   UNL     1      -0.091  -3.198   6.653  0.00  0.00    -0.287 OA
ATOM     12  C   UNL     1       0.347  -5.484   6.151  0.00  0.00    +0.064 A 
ATOM     13  C   UNL     1       0.591  -5.863   7.470  0.00  0.00    +0.015 A 
ATOM     14  C   UNL     1       0.832  -7.176   7.765  0.00  0.00    +0.001 A 
ATOM     15  C   UNL     1       0.835  -8.130   6.756  0.00  0.00    +0.004 A 
ATOM     16  C   UNL     1       0.594  -7.773   5.448  0.00  0.00    +0.047 A 
ATOM     17  C   UNL     1       0.343  -6.440   5.122  0.00  0.00    +0.139 A 
ATOM     18  O   UNL     1       0.099  -6.114   3.832  0.00  0.00    -0.450 OA
ATOM     19  C   UNL     1       0.083  -4.818   3.465  0.00  0.00    +0.199 A 
ATOM     20  C   UNL     1       0.068  -4.237   2.112  0.00  0.00    +0.289 C 
ATOM     21  O   UNL     1       0.072  -4.878   1.079  0.00  0.00    -0.266 OA
ATOM     22  C   UNL     1      -0.008  -0.211  -2.582  0.00  0.00    +0.053 C 
ENDROOT
BRANCH   8  23
ATOM     23  C   UNL     1      -1.201  -1.734   3.935  0.00  0.00    -0.022 A 
ATOM     24  C   UNL     1      -2.409  -2.096   3.369  0.00  0.00    +0.007 A 
ATOM     25  C   UNL     1      -3.555  -1.383   3.669  0.00  0.00    +0.015 A 
ATOM     26  C   UNL     1      -3.492  -0.307   4.536  0.00  0.00    +0.013 A 
ATOM     27  C   UNL     1      -2.284   0.055   5.102  0.00  0.00    +0.015 A 
ATOM     28  C   UNL     1      -1.140  -0.662   4.806  0.00  0.00    +0.007 A 
ATOM     29  I   UNL     1      -5.228   0.774   4.990  0.00  0.00    -0.044 I 
ENDBRANCH   8  23
TORSDOF 1
