REMARK  Name = ZINC39923094
REMARK  7 active torsions:
REMARK  status: ('A' for Active; 'I' for Inactive)
REMARK    1  A    between atoms: C_7  and  C_10
REMARK    2  A    between atoms: N_11  and  N_12
REMARK    3  A    between atoms: C_13  and  C_15
REMARK    4  A    between atoms: C_18  and  C_21
REMARK    5  A    between atoms: C_26  and  O_27
REMARK    6  A    between atoms: O_27  and  C_28
REMARK    7  A    between atoms: C_28  and  C_29
REMARK                            x       y       z     vdW  Elec       q    Type
REMARK                         _______ _______ _______ _____ _____    ______ ____
ROOT
ATOM      1  C   UNL     1      -0.220  -7.864  -0.038  0.00  0.00    +0.240 C 
ATOM      2  C   UNL     1      -0.720  -8.152  -1.443  0.00  0.00    +0.041 C 
ATOM      3  C   UNL     1      -0.288  -9.405  -1.689  0.00  0.00    +0.095 C 
ATOM      4  N   UNL     1       0.396  -9.889  -0.619  0.00  0.00    -0.153 NA
ATOM      5  N   UNL     1       0.479  -9.106   0.334  0.00  0.00    -0.170 NA
ENDROOT
BRANCH   3   6
ATOM      6  C   UNL     1      -0.527 -10.149  -2.949  0.00  0.00    +0.044 A 
ATOM      7  C   UNL     1      -0.040 -11.446  -3.098  0.00  0.00    +0.014 A 
ATOM      8  C   UNL     1      -0.264 -12.136  -4.272  0.00  0.00    +0.001 A 
ATOM      9  C   UNL     1      -0.972 -11.543  -5.304  0.00  0.00    +0.004 A 
ATOM     10  C   UNL     1      -1.459 -10.257  -5.167  0.00  0.00    +0.046 A 
ATOM     11  C   UNL     1      -1.246  -9.556  -3.991  0.00  0.00    +0.130 A 
BRANCH  11  12
ATOM     12  O   UNL     1      -1.729  -8.294  -3.852  0.00  0.00    -0.487 OA
BRANCH  12  13
ATOM     13  C   UNL     1      -2.455  -7.752  -4.958  0.00  0.00    +0.264 C 
BRANCH  13  14
ATOM     14  C   UNL     1      -2.910  -6.355  -4.625  0.00  0.00    -0.010 A 
ATOM     15  C   UNL     1      -4.134  -6.154  -4.014  0.00  0.00    +0.008 A 
ATOM     16  C   UNL     1      -4.552  -4.873  -3.708  0.00  0.00    +0.020 A 
ATOM     17  C   UNL     1      -3.745  -3.791  -4.012  0.00  0.00    +0.041 A 
ATOM     18  C   UNL     1      -2.520  -3.993  -4.623  0.00  0.00    +0.020 A 
ATOM     19  C   UNL     1      -2.101  -5.275  -4.924  0.00  0.00    +0.008 A 
ATOM     20 CL   UNL     1      -4.270  -2.182  -3.628  0.00  0.00    -0.084 Cl
ENDBRANCH  13  14
ENDBRANCH  12  13
ENDBRANCH  11  12
ENDBRANCH   3   6
BRANCH   1  22
ATOM     21  N   UNL     1       0.255  -5.437  -0.030  0.00  0.00    -0.205 N 
ATOM     22  C   UNL     1       0.733  -6.697  -0.041  0.00  0.00    +0.263 C 
ATOM     23  O   UNL     1       1.930  -6.892  -0.054  0.00  0.00    -0.271 OA
ATOM     24  H   UNL     1      -0.702  -5.281  -0.020  0.00  0.00    +0.177 HD
BRANCH  21  26
ATOM     25  C   UNL     1       0.677  -3.128  -0.022  0.00  0.00    +0.136 C 
ATOM     26  N   UNL     1       1.141  -4.352  -0.033  0.00  0.00    -0.188 NA
BRANCH  25  33
ATOM     27  C   UNL     1      -0.016   1.353   0.009  0.00  0.00    +0.001 A 
ATOM     28  C   UNL     1       1.164   2.102   0.002  0.00  0.00    +0.002 A 
ATOM     29  C   UNL     1       2.384   1.514  -0.013  0.00  0.00    +0.026 A 
ATOM     30  C   UNL     1       2.485   0.097  -0.022  0.00  0.00    +0.043 A 
ATOM     31  N   UNL     1       3.531  -0.702  -0.037  0.00  0.00    -0.380 N 
ATOM     32  C   UNL     1       3.076  -2.096  -0.040  0.00  0.00    +0.150 C 
ATOM     33  C   UNL     1       1.565  -2.042  -0.024  0.00  0.00    +0.000 C 
ATOM     34  C   UNL     1       1.238  -0.688  -0.013  0.00  0.00    +0.004 A 
ATOM     35  C   UNL     1       0.002  -0.004   0.002  0.00  0.00    +0.010 A 
ATOM     36  H   UNL     1       4.458  -0.414  -0.045  0.00  0.00    +0.160 HD
ENDBRANCH  25  33
ENDBRANCH  21  26
ENDBRANCH   1  22
TORSDOF 7
