REMARK  Name = ZINC13500189
REMARK  16 active torsions:
REMARK  status: ('A' for Active; 'I' for Inactive)
REMARK    1  A    between atoms: C_1  and  C_2
REMARK    2  A    between atoms: C_2  and  C_3
REMARK    3  A    between atoms: C_3  and  C_4
REMARK    4  A    between atoms: C_4  and  C_6
REMARK    5  A    between atoms: C_4  and  N_78
REMARK    6  A    between atoms: N_10  and  C_11
REMARK    7  A    between atoms: C_11  and  C_12
REMARK    8  A    between atoms: C_11  and  C_13
REMARK    9  A    between atoms: C_11  and  C_14
REMARK   10  A    between atoms: C_14  and  C_15
REMARK   11  A    between atoms: C_16  and  C_17
REMARK   12  A    between atoms: C_16  and  N_78
REMARK   13  A    between atoms: C_21  and  O_29
REMARK   14  A    between atoms: O_29  and  C_30
REMARK   15  A    between atoms: C_30  and  C_31
REMARK   16  A    between atoms: C_32  and  N_78
REMARK                            x       y       z     vdW  Elec       q    Type
REMARK                         _______ _______ _______ _____ _____    ______ ____
ROOT
ATOM      1  N   UNL     1       1.060   4.005   0.323  0.00  0.00    +0.391 N 
ATOM      2  H   UNL     1       0.738   4.722  -0.338  0.00  0.00    -0.080 HD
ENDROOT
BRANCH   1   3
ATOM      3  C   UNL     1       0.632   2.677  -0.163  0.00  0.00    -0.067 C 
ATOM      4  C   UNL     1       1.274   2.416  -1.527  0.00  0.00    -0.015 C 
ATOM      5  C   UNL     1       0.818   1.053  -2.052  0.00  0.00    -0.002 C 
ATOM      6  C   UNL     1       1.244  -0.041  -1.070  0.00  0.00    -0.000 C 
ATOM      7  C   UNL     1       0.602   0.221   0.294  0.00  0.00    -0.002 C 
ATOM      8  C   UNL     1       1.058   1.583   0.819  0.00  0.00    -0.015 C 
ENDBRANCH   1   3
BRANCH   1   9
ATOM      9  C   UNL     1       2.534   4.060   0.411  0.00  0.00    +0.003 C 
BRANCH   9  10
ATOM     10  C   UNL     1       3.086   4.386  -0.953  0.00  0.00    +0.139 A 
ATOM     11  N   UNL     1       2.538   5.166  -1.853  0.00  0.00    -0.115 NA
ATOM     12  N   UNL     1       3.312   5.190  -2.883  0.00  0.00    -0.023 NA
ATOM     13  N   UNL     1       4.339   4.446  -2.663  0.00  0.00    -0.043 NA
ATOM     14  N   UNL     1       4.239   3.937  -1.482  0.00  0.00    -0.225 N 
BRANCH  14  15
ATOM     15  C   UNL     1       5.199   3.035  -0.839  0.00  0.00    +0.061 C 
ATOM     16  C   UNL     1       5.595   3.603   0.525  0.00  0.00    +0.036 C 
ATOM     17  C   UNL     1       4.559   1.658  -0.653  0.00  0.00    +0.036 C 
BRANCH  15  18
ATOM     18  C   UNL     1       6.444   2.905  -1.719  0.00  0.00    +0.026 C 
ATOM     19  C   UNL     1       7.446   1.964  -1.047  0.00  0.00    +0.006 C 
ENDBRANCH  15  18
ENDBRANCH  14  15
ENDBRANCH   9  10
BRANCH   9  20
ATOM     20  C   UNL     1       2.943   5.153   1.400  0.00  0.00    -0.008 C 
BRANCH  20  22
ATOM     21  C   UNL     1       3.154   5.731   3.822  0.00  0.00    +0.004 C 
ATOM     22  C   UNL     1       2.857   4.607   2.827  0.00  0.00    -0.005 C 
ENDBRANCH  20  22
ENDBRANCH   9  20
ENDBRANCH   1   9
BRANCH   1  23
ATOM     23  C   UNL     1       0.465   4.274   1.649  0.00  0.00    -0.036 C 
BRANCH  23  24
ATOM     24  C   UNL     1      -1.034   4.345   1.506  0.00  0.00    +0.001 A 
ATOM     25  C   UNL     1      -1.790   3.250   1.765  0.00  0.00    +0.017 A 
ATOM     26  C   UNL     1      -3.243   3.351   1.617  0.00  0.00    +0.002 A 
ATOM     27  C   UNL     1      -4.072   2.254   1.871  0.00  0.00    +0.055 A 
ATOM     28  C   UNL     1      -5.438   2.384   1.722  0.00  0.00    +0.121 A 
ATOM     29  C   UNL     1      -5.989   3.598   1.320  0.00  0.00    +0.047 A 
ATOM     30  C   UNL     1      -5.183   4.686   1.067  0.00  0.00    +0.030 A 
ATOM     31  C   UNL     1      -3.804   4.576   1.211  0.00  0.00    +0.049 A 
ATOM     32  N   UNL     1      -2.978   5.654   0.962  0.00  0.00    -0.322 N 
ATOM     33  H   UNL     1      -3.366   6.498   0.682  0.00  0.00    +0.169 HD
ATOM     34  C   UNL     1      -1.646   5.553   1.107  0.00  0.00    +0.251 A 
ATOM     35  O   UNL     1      -0.948   6.527   0.884  0.00  0.00    -0.268 OA
BRANCH  28  36
ATOM     36  O   UNL     1      -6.250   1.321   1.967  0.00  0.00    -0.492 OA
BRANCH  36  37
ATOM     37  C   UNL     1      -7.654   1.523   1.793  0.00  0.00    +0.225 C 
ATOM     38  C   UNL     1      -8.399   0.226   2.113  0.00  0.00    +0.048 C 
ENDBRANCH  36  37
ENDBRANCH  28  36
ENDBRANCH  23  24
ENDBRANCH   1  23
TORSDOF 11
