REMARK  Name = ZINC11991960
REMARK  7 active torsions:
REMARK  status: ('A' for Active; 'I' for Inactive)
REMARK    1  A    between atoms: C_1  and  C_2
REMARK    2  A    between atoms: C_5  and  C_8
REMARK    3  A    between atoms: N_13  and  N_14
REMARK    4  A    between atoms: C_15  and  C_16
REMARK    5  A    between atoms: C_19  and  O_22
REMARK    6  A    between atoms: O_22  and  C_23
REMARK    7  A    between atoms: C_23  and  C_24
REMARK                            x       y       z     vdW  Elec       q    Type
REMARK                         _______ _______ _______ _____ _____    ______ ____
ROOT
ATOM      1  N   UNL     1       0.120  -8.453   1.868  0.00  0.00    -0.155 NA
ATOM      2  C   UNL     1       0.133  -9.310   2.855  0.00  0.00    +0.143 C 
ENDROOT
BRANCH   1   8
ATOM      3  C   UNL     1       0.061  -4.252  -0.021  0.00  0.00    +0.055 A 
ATOM      4  C   UNL     1       0.070  -4.924  -1.192  0.00  0.00    +0.075 A 
ATOM      5  S   UNL     1       0.093  -6.624  -0.646  0.00  0.00    -0.056 S 
ATOM      6  C   UNL     1       0.090  -6.319   1.113  0.00  0.00    +0.192 A 
ATOM      7  N   UNL     1       0.076  -4.945   1.156  0.00  0.00    -0.332 N 
ATOM      8  N   UNL     1       0.102  -7.187   2.113  0.00  0.00    -0.124 NA
ATOM      9  H   UNL     1       0.073  -4.477   2.006  0.00  0.00    +0.168 HD
BRANCH   3  14
ATOM     10  C   UNL     1      -0.018   1.503   0.010  0.00  0.00    +0.044 C 
ATOM     11  C   UNL     1       0.002  -0.004   0.002  0.00  0.00    -0.050 A 
ATOM     12  C   UNL     1       0.006  -0.686  -1.202  0.00  0.00    +0.004 A 
ATOM     13  C   UNL     1       0.025  -2.066  -1.216  0.00  0.00    +0.010 A 
ATOM     14  C   UNL     1       0.041  -2.773  -0.013  0.00  0.00    -0.001 A 
ATOM     15  C   UNL     1       0.037  -2.079   1.198  0.00  0.00    +0.010 A 
ATOM     16  C   UNL     1       0.023  -0.699   1.198  0.00  0.00    +0.004 A 
ENDBRANCH   3  14
ENDBRANCH   1   8
BRANCH   2  17
ATOM     17  C   UNL     1       0.153 -10.754   2.575  0.00  0.00    -0.005 A 
ATOM     18  C   UNL     1       0.166 -11.212   1.253  0.00  0.00    +0.013 A 
ATOM     19  C   UNL     1       0.185 -12.566   0.997  0.00  0.00    +0.046 A 
ATOM     20  C   UNL     1       0.192 -13.475   2.047  0.00  0.00    +0.121 A 
ATOM     21  C   UNL     1       0.179 -13.025   3.361  0.00  0.00    +0.046 A 
ATOM     22  C   UNL     1       0.167 -11.673   3.629  0.00  0.00    +0.013 A 
BRANCH  20  23
ATOM     23  O   UNL     1       0.211 -14.809   1.789  0.00  0.00    -0.487 OA
BRANCH  23  24
ATOM     24  C   UNL     1       0.217 -15.688   2.915  0.00  0.00    +0.264 C 
BRANCH  24  25
ATOM     25  C   UNL     1       0.239 -17.117   2.437  0.00  0.00    -0.010 A 
ATOM     26  C   UNL     1      -0.949 -17.786   2.207  0.00  0.00    +0.008 A 
ATOM     27  C   UNL     1      -0.930 -19.097   1.768  0.00  0.00    +0.020 A 
ATOM     28  C   UNL     1       0.278 -19.739   1.560  0.00  0.00    +0.041 A 
ATOM     29  C   UNL     1       1.466 -19.068   1.790  0.00  0.00    +0.020 A 
ATOM     30  C   UNL     1       1.446 -17.756   2.223  0.00  0.00    +0.008 A 
ATOM     31 CL   UNL     1       0.302 -21.385   1.009  0.00  0.00    -0.084 Cl
ENDBRANCH  24  25
ENDBRANCH  23  24
ENDBRANCH  20  23
ENDBRANCH   2  17
TORSDOF 6
