REMARK  Name = ZINC26130394
REMARK  7 active torsions:
REMARK  status: ('A' for Active; 'I' for Inactive)
REMARK    1  A    between atoms: C_1  and  N_2
REMARK    2  A    between atoms: N_9  and  C_12
REMARK    3  A    between atoms: C_12  and  C_13
REMARK    4  A    between atoms: N_15  and  C_16
REMARK    5  A    between atoms: C_16  and  C_18
REMARK    6  A    between atoms: C_16  and  C_24
REMARK    7  A    between atoms: C_32  and  C_34
REMARK                            x       y       z     vdW  Elec       q    Type
REMARK                         _______ _______ _______ _____ _____    ______ ____
ROOT
ATOM      1  C   UNL     1       3.103  -5.005  -3.088  0.00  0.00    +0.134 C 
ENDROOT
BRANCH   1   2
ATOM      2  C   UNL     1       3.501  -6.457  -3.142  0.00  0.00    -0.021 A 
ATOM      3  C   UNL     1       4.305  -6.989  -2.144  0.00  0.00    +0.008 A 
ATOM      4  C   UNL     1       4.677  -8.303  -2.175  0.00  0.00    +0.030 A 
ATOM      5  C   UNL     1       4.245  -9.124  -3.220  0.00  0.00    +0.089 A 
ATOM      6  C   UNL     1       3.431  -8.586  -4.231  0.00  0.00    +0.067 A 
ATOM      7  C   UNL     1       3.060  -7.250  -4.180  0.00  0.00    +0.033 A 
ATOM      8  N   UNL     1       3.174  -9.623  -5.105  0.00  0.00    -0.335 N 
ATOM      9  H   UNL     1       2.638  -9.575  -5.912  0.00  0.00    +0.167 HD
ATOM     10  C   UNL     1       3.813 -10.725  -4.626  0.00  0.00    +0.213 A 
ATOM     11  N   UNL     1       4.439 -10.434  -3.523  0.00  0.00    -0.224 NA
BRANCH  10  12
ATOM     12  C   UNL     1       3.796 -12.084  -5.276  0.00  0.00    +0.450 C 
ATOM     13  F   UNL     1       4.252 -13.042  -4.365  0.00  0.00    -0.163 F 
ATOM     14  F   UNL     1       2.490 -12.397  -5.669  0.00  0.00    -0.163 F 
ATOM     15  F   UNL     1       4.631 -12.073  -6.399  0.00  0.00    -0.163 F 
ENDBRANCH  10  12
ENDBRANCH   1   2
BRANCH   1  16
ATOM     16  C   UNL     1       4.236  -4.154  -3.603  0.00  0.00    -0.023 A 
ATOM     17  C   UNL     1       5.309  -3.860  -2.783  0.00  0.00    +0.006 A 
ATOM     18  C   UNL     1       6.347  -3.080  -3.256  0.00  0.00    +0.000 A 
ATOM     19  C   UNL     1       6.313  -2.594  -4.549  0.00  0.00    +0.000 A 
ATOM     20  C   UNL     1       5.240  -2.888  -5.370  0.00  0.00    +0.000 A 
ATOM     21  C   UNL     1       4.204  -3.672  -4.899  0.00  0.00    +0.006 A 
ENDBRANCH   1  16
BRANCH   1  24
ATOM     22  C   UNL     1       1.974  -3.600  -1.448  0.00  0.00    +0.234 C 
ATOM     23  O   UNL     1       1.476  -2.981  -2.364  0.00  0.00    -0.274 OA
ATOM     24  N   UNL     1       2.804  -4.631  -1.703  0.00  0.00    -0.303 N 
ATOM     25  H   UNL     1       3.202  -5.127  -0.970  0.00  0.00    +0.150 HD
BRANCH  22  26
ATOM     26  C   UNL     1       1.666  -3.217  -0.023  0.00  0.00    +0.222 C 
BRANCH  26  35
ATOM     27  C   UNL     1      -0.018   1.461   0.010  0.00  0.00    +0.154 C 
ATOM     28  N   UNL     1       0.002  -0.004   0.002  0.00  0.00    -0.295 N 
ATOM     29  C   UNL     1      -1.116  -0.835   0.003  0.00  0.00    +0.070 A 
ATOM     30  C   UNL     1      -2.481  -0.592   0.010  0.00  0.00    +0.028 A 
ATOM     31  C   UNL     1      -3.368  -1.651   0.009  0.00  0.00    +0.002 A 
ATOM     32  C   UNL     1      -2.899  -2.954  -0.000  0.00  0.00    +0.002 A 
ATOM     33  C   UNL     1      -1.541  -3.205  -0.007  0.00  0.00    +0.028 A 
ATOM     34  C   UNL     1      -0.643  -2.148  -0.007  0.00  0.00    +0.070 A 
ATOM     35  N   UNL     1       0.748  -2.075  -0.013  0.00  0.00    -0.283 N 
ATOM     36  C   UNL     1       1.104  -0.777  -0.013  0.00  0.00    +0.330 A 
ATOM     37  O   UNL     1       2.249  -0.365  -0.022  0.00  0.00    -0.246 OA
ENDBRANCH  26  35
ENDBRANCH  22  26
ENDBRANCH   1  24
TORSDOF 6
