REMARK  Name = ZINC37606911
REMARK  5 active torsions:
REMARK  status: ('A' for Active; 'I' for Inactive)
REMARK    1  A    between atoms: C_1  and  C_2
REMARK    2  A    between atoms: C_2  and  C_3
REMARK    3  A    between atoms: C_3  and  C_5
REMARK    4  A    between atoms: C_3  and  N_6
REMARK    5  A    between atoms: N_10  and  C_13
REMARK                            x       y       z     vdW  Elec       q    Type
REMARK                         _______ _______ _______ _____ _____    ______ ____
ROOT
ATOM      1  N   UNL     1      -2.082  -0.162   1.273  0.00  0.00    -0.273 N 
ATOM      2  C   UNL     1      -3.295   0.659   1.430  0.00  0.00    +0.206 C 
ATOM      3  C   UNL     1      -3.497   0.712   2.931  0.00  0.00    +0.245 C 
ATOM      4  O   UNL     1      -4.383   1.282   3.531  0.00  0.00    -0.273 OA
ATOM      5  N   UNL     1      -2.489  -0.009   3.461  0.00  0.00    -0.190 N 
ATOM      6  C   UNL     1      -1.688  -0.508   2.512  0.00  0.00    +0.316 C 
ATOM      7  O   UNL     1      -0.713  -1.195   2.744  0.00  0.00    -0.252 OA
ENDROOT
BRANCH   5   8
ATOM      8  C   UNL     1      -2.304  -0.214   4.836  0.00  0.00    +0.081 A 
ATOM      9  C   UNL     1      -2.885  -1.308   5.460  0.00  0.00    +0.027 A 
ATOM     10  C   UNL     1      -2.700  -1.508   6.815  0.00  0.00    +0.002 A 
ATOM     11  C   UNL     1      -1.939  -0.618   7.550  0.00  0.00    +0.003 A 
ATOM     12  C   UNL     1      -1.359   0.474   6.933  0.00  0.00    +0.040 A 
ATOM     13  C   UNL     1      -1.534   0.677   5.576  0.00  0.00    +0.145 A 
ATOM     14  F   UNL     1      -0.962   1.741   4.971  0.00  0.00    -0.204 F 
ENDBRANCH   5   8
BRANCH   1  15
ATOM     15  C   UNL     1      -1.433  -0.534   0.013  0.00  0.00    +0.075 C 
ATOM     16  C   UNL     1      -1.416  -2.058  -0.121  0.00  0.00    +0.028 C 
BRANCH  15  18
ATOM     17  C   UNL     1      -0.019   1.526   0.010  0.00  0.00    +0.006 C 
ATOM     18  C   UNL     1       0.002  -0.004   0.002  0.00  0.00    +0.019 C 
ENDBRANCH  15  18
ENDBRANCH   1  15
TORSDOF 3
