REMARK  Name = ZINC57316649
REMARK  6 active torsions:
REMARK  status: ('A' for Active; 'I' for Inactive)
REMARK    1  A    between atoms: C_1  and  N_2
REMARK    2  A    between atoms: N_7  and  C_8
REMARK    3  A    between atoms: C_8  and  N_10
REMARK    4  A    between atoms: C_11  and  C_13
REMARK    5  A    between atoms: C_14  and  C_15
REMARK    6  A    between atoms: C_18  and  C_20
REMARK                            x       y       z     vdW  Elec       q    Type
REMARK                         _______ _______ _______ _____ _____    ______ ____
ROOT
ATOM      1  N   UNL     1       0.071  -5.564  -1.593  0.00  0.00    -0.264 N 
ATOM      2  C   UNL     1       0.091  -6.770  -0.992  0.00  0.00    +0.242 C 
ATOM      3  O   UNL     1       0.099  -6.845   0.224  0.00  0.00    -0.270 OA
ATOM      4  H   UNL     1       0.065  -5.504  -2.561  0.00  0.00    +0.157 HD
ENDROOT
BRANCH   1   5
ATOM      5  C   UNL     1       0.060  -4.440  -0.848  0.00  0.00    +0.143 C 
ATOM      6  S   UNL     1       0.071  -4.545   0.860  0.00  0.00    -0.018 S 
BRANCH   5  13
ATOM      7  C   UNL     1      -0.018   1.461   0.010  0.00  0.00    +0.199 C 
ATOM      8  N   UNL     1       0.002  -0.004   0.002  0.00  0.00    -0.165 N 
ATOM      9  N   UNL     1       0.008  -0.833  -1.132  0.00  0.00    -0.115 NA
ATOM     10  C   UNL     1       0.028  -2.068  -0.677  0.00  0.00    +0.261 A 
ATOM     11  N   UNL     1       0.033  -2.005   0.655  0.00  0.00    -0.092 NA
ATOM     12  N   UNL     1       0.023  -0.776   1.035  0.00  0.00    -0.045 NA
ATOM     13  N   UNL     1       0.040  -3.234  -1.449  0.00  0.00    -0.263 N 
ATOM     14  H   UNL     1       0.034  -3.174  -2.417  0.00  0.00    +0.157 HD
ENDBRANCH   5  13
ENDBRANCH   1   5
BRANCH   2  15
ATOM     15  C   UNL     1       0.104  -7.948  -1.772  0.00  0.00    +0.071 C 
ATOM     16  C   UNL     1       0.124  -9.164  -1.166  0.00  0.00    +0.051 C 
BRANCH  16  17
ATOM     17  C   UNL     1       0.136 -10.342  -1.947  0.00  0.00    +0.129 A 
ATOM     18  C   UNL     1       0.151 -11.636  -1.460  0.00  0.00    +0.050 A 
ATOM     19  C   UNL     1       0.159 -12.485  -2.570  0.00  0.00    +0.050 A 
ATOM     20  C   UNL     1       0.149 -11.683  -3.689  0.00  0.00    +0.136 A 
ATOM     21  O   UNL     1       0.129 -10.398  -3.295  0.00  0.00    -0.455 OA
BRANCH  20  22
ATOM     22  C   UNL     1       0.152 -12.155  -5.088  0.00  0.00    +0.017 A 
ATOM     23  C   UNL     1       0.161 -13.525  -5.366  0.00  0.00    +0.012 A 
ATOM     24  C   UNL     1       0.164 -13.959  -6.674  0.00  0.00    +0.016 A 
ATOM     25  C   UNL     1       0.158 -13.042  -7.712  0.00  0.00    +0.018 A 
ATOM     26  C   UNL     1       0.150 -11.684  -7.443  0.00  0.00    +0.016 A 
ATOM     27  C   UNL     1       0.141 -11.236  -6.139  0.00  0.00    +0.012 A 
ATOM     28 BR   UNL     1       0.163 -13.647  -9.503  0.00  0.00    -0.050 Br
ENDBRANCH  20  22
ENDBRANCH  16  17
ENDBRANCH   2  15
TORSDOF 5
