REMARK  Name = ZINC04345965
REMARK  8 active torsions:
REMARK  status: ('A' for Active; 'I' for Inactive)
REMARK    1  A    between atoms: C_1  and  O_2
REMARK    2  A    between atoms: O_2  and  C_3
REMARK    3  A    between atoms: C_6  and  C_9
REMARK    4  A    between atoms: C_12  and  S_17
REMARK    5  A    between atoms: N_13  and  C_14
REMARK    6  A    between atoms: C_14  and  C_15
REMARK    7  A    between atoms: S_17  and  C_18
REMARK    8  A    between atoms: C_18  and  C_19
REMARK                            x       y       z     vdW  Elec       q    Type
REMARK                         _______ _______ _______ _____ _____    ______ ____
ROOT
ATOM      1  C   UNL     1       7.680  -3.080  -1.733  0.00  0.00    +0.165 A 
ATOM      2  N   UNL     1       7.670  -2.489  -0.561  0.00  0.00    -0.128 NA
ATOM      3  N   UNL     1       6.578  -1.828  -0.412  0.00  0.00    -0.122 NA
ATOM      4  C   UNL     1       5.823  -1.958  -1.480  0.00  0.00    +0.192 A 
ATOM      5  N   UNL     1       6.495  -2.763  -2.356  0.00  0.00    -0.298 N 
ENDROOT
BRANCH   1   9
ATOM      6  C   UNL     1      10.780  -5.528  -3.301  0.00  0.00    +0.120 A 
ATOM      7  C   UNL     1      10.510  -5.539  -1.939  0.00  0.00    +0.046 A 
ATOM      8  C   UNL     1       9.506  -4.747  -1.426  0.00  0.00    +0.015 A 
ATOM      9  C   UNL     1       8.759  -3.931  -2.279  0.00  0.00    +0.020 A 
ATOM     10  C   UNL     1       9.029  -3.926  -3.648  0.00  0.00    +0.015 A 
ATOM     11  C   UNL     1      10.039  -4.718  -4.152  0.00  0.00    +0.046 A 
BRANCH   6  13
ATOM     12  C   UNL     1      11.995  -6.250  -5.213  0.00  0.00    +0.277 C 
ATOM     13  O   UNL     1      11.771  -6.310  -3.803  0.00  0.00    -0.495 OA
ENDBRANCH   6  13
ENDBRANCH   1   9
BRANCH   5  14
ATOM     14  C   UNL     1       6.048  -3.195  -3.682  0.00  0.00    +0.152 C 
BRANCH  14  15
ATOM     15  C   UNL     1       6.371  -2.126  -4.694  0.00  0.00    -0.013 C 
ATOM     16  C   UNL     1       7.046  -2.430  -5.776  0.00  0.00    +0.005 C 
ENDBRANCH  14  15
ENDBRANCH   5  14
BRANCH   4  17
ATOM     17  S   UNL     1       4.237  -1.233  -1.732  0.00  0.00    -0.081 S 
BRANCH  17  18
ATOM     18  C   UNL     1       4.044  -0.346  -0.167  0.00  0.00    +0.115 C 
BRANCH  18  19
ATOM     19  C   UNL     1       2.718   0.370  -0.155  0.00  0.00    +0.001 A 
ATOM     20  C   UNL     1       1.592  -0.267   0.333  0.00  0.00    +0.007 A 
ATOM     21  C   UNL     1       0.375   0.389   0.344  0.00  0.00    +0.003 A 
ATOM     22  C   UNL     1       0.281   1.683  -0.133  0.00  0.00    +0.041 A 
ATOM     23  C   UNL     1       1.406   2.323  -0.622  0.00  0.00    +0.159 A 
ATOM     24  C   UNL     1       2.627   1.665  -0.633  0.00  0.00    +0.162 A 
ATOM     25  F   UNL     1       3.727   2.288  -1.111  0.00  0.00    -0.202 F 
ATOM     26  F   UNL     1       1.315   3.588  -1.089  0.00  0.00    -0.202 F 
ENDBRANCH  18  19
ENDBRANCH  17  18
ENDBRANCH   4  17
TORSDOF 7
