REMARK  Name = ZINC10211390
REMARK  6 active torsions:
REMARK  status: ('A' for Active; 'I' for Inactive)
REMARK    1  A    between atoms: C_1  and  C_2
REMARK    2  A    between atoms: C_5  and  N_9
REMARK    3  A    between atoms: C_6  and  C_8
REMARK    4  A    between atoms: C_19  and  S_20
REMARK    5  A    between atoms: S_20  and  C_21
REMARK    6  A    between atoms: C_21  and  C_22
REMARK                            x       y       z     vdW  Elec       q    Type
REMARK                         _______ _______ _______ _____ _____    ______ ____
ROOT
ATOM      1  N   UNL     1      -2.458   3.824   0.046  0.00  0.00    -0.255 N 
ATOM      2  C   UNL     1      -3.035   4.141   1.228  0.00  0.00    +0.267 A 
ATOM      3  O   UNL     1      -2.512   3.841   2.286  0.00  0.00    -0.267 OA
ATOM      4  C   UNL     1      -4.312   4.864   1.188  0.00  0.00    +0.065 A 
ATOM      5  C   UNL     1      -4.984   5.239   2.352  0.00  0.00    +0.015 A 
ATOM      6  C   UNL     1      -6.173   5.906   2.258  0.00  0.00    +0.001 A 
ATOM      7  C   UNL     1      -6.719   6.214   1.018  0.00  0.00    +0.002 A 
ATOM      8  C   UNL     1      -6.083   5.858  -0.138  0.00  0.00    +0.028 A 
ATOM      9  C   UNL     1      -4.865   5.175  -0.075  0.00  0.00    +0.079 A 
ATOM     10  N   UNL     1      -4.202   4.803  -1.195  0.00  0.00    -0.223 NA
ATOM     11  C   UNL     1      -3.060   4.163  -1.134  0.00  0.00    +0.177 A 
ENDROOT
BRANCH   1  16
ATOM     12  C   UNL     1       2.490   1.045  -0.016  0.00  0.00    +0.044 C 
ATOM     13  C   UNL     1       1.176   1.783   0.000  0.00  0.00    -0.050 A 
ATOM     14  C   UNL     1       1.161   3.166   0.008  0.00  0.00    +0.005 A 
ATOM     15  C   UNL     1      -0.041   3.845   0.024  0.00  0.00    +0.027 A 
ATOM     16  C   UNL     1      -1.236   3.138   0.031  0.00  0.00    +0.055 A 
ATOM     17  C   UNL     1      -1.218   1.749   0.017  0.00  0.00    -0.026 A 
ATOM     18  C   UNL     1      -0.013   1.076   0.008  0.00  0.00    +0.008 A 
ATOM     19  C   UNL     1      -2.513   0.978   0.019  0.00  0.00    +0.046 C 
ENDBRANCH   1  16
BRANCH  11  20
ATOM     20  S   UNL     1      -2.265   3.718  -2.642  0.00  0.00    -0.079 S 
BRANCH  20  21
ATOM     21  C   UNL     1      -3.453   4.386  -3.833  0.00  0.00    +0.151 C 
BRANCH  21  22
ATOM     22  C   UNL     1      -2.967   4.114  -5.233  0.00  0.00    +0.121 A 
ATOM     23  N   UNL     1      -3.728   4.542  -6.275  0.00  0.00    -0.309 N 
ATOM     24  H   UNL     1      -4.562   5.009  -6.113  0.00  0.00    +0.170 HD
ATOM     25  C   UNL     1      -3.309   4.309  -7.543  0.00  0.00    +0.266 A 
ATOM     26  O   UNL     1      -3.969   4.679  -8.499  0.00  0.00    -0.267 OA
ATOM     27  C   UNL     1      -2.102   3.632  -7.723  0.00  0.00    +0.102 A 
ATOM     28  C   UNL     1      -1.334   3.201  -6.627  0.00  0.00    +0.085 A 
ATOM     29  N   UNL     1      -1.843   3.490  -5.385  0.00  0.00    -0.232 NA
ATOM     30  C   UNL     1      -0.144   2.534  -6.949  0.00  0.00    +0.036 A 
ATOM     31  C   UNL     1       0.199   2.344  -8.242  0.00  0.00    +0.048 A 
ATOM     32  S   UNL     1      -1.155   3.103  -9.124  0.00  0.00    -0.090 S 
ENDBRANCH  21  22
ENDBRANCH  20  21
ENDBRANCH  11  20
TORSDOF 4
