REMARK  Name = ZINC35450121
REMARK  8 active torsions:
REMARK  status: ('A' for Active; 'I' for Inactive)
REMARK    1  A    between atoms: C_1  and  C_2
REMARK    2  A    between atoms: C_2  and  C_3
REMARK    3  A    between atoms: C_3  and  C_5
REMARK    4  A    between atoms: C_3  and  S_6
REMARK    5  A    between atoms: S_6  and  C_7
REMARK    6  A    between atoms: C_14  and  C_26
REMARK    7  A    between atoms: C_20  and  C_24
REMARK    8  A    between atoms: C_20  and  C_25
REMARK                            x       y       z     vdW  Elec       q    Type
REMARK                         _______ _______ _______ _____ _____    ______ ____
ROOT
ATOM      1  C   UNL     1      -3.900  -0.616   1.373  0.00  0.00    +0.171 A 
ATOM      2  N   UNL     1      -4.255  -1.208   0.251  0.00  0.00    -0.208 NA
ATOM      3  C   UNL     1      -5.509  -1.634   0.061  0.00  0.00    +0.135 A 
ATOM      4  C   UNL     1      -6.456  -1.450   1.054  0.00  0.00    +0.069 A 
ATOM      5  C   UNL     1      -6.073  -0.822   2.244  0.00  0.00    +0.258 A 
ATOM      6  O   UNL     1      -6.881  -0.646   3.143  0.00  0.00    -0.267 OA
ATOM      7  N   UNL     1      -4.792  -0.420   2.384  0.00  0.00    -0.302 N 
ATOM      8  C   UNL     1      -7.870  -1.911   0.860  0.00  0.00    +0.092 C 
ATOM      9  C   UNL     1      -7.971  -2.912  -0.263  0.00  0.00    +0.024 C 
ATOM     10  C   UNL     1      -6.992  -3.032  -1.183  0.00  0.00    +0.017 C 
ATOM     11  N   UNL     1      -5.866  -2.258  -1.118  0.00  0.00    -0.302 N 
ATOM     12  C   UNL     1      -7.110  -4.021  -2.318  0.00  0.00    +0.058 C 
ATOM     13  C   UNL     1      -7.920  -5.235  -1.860  0.00  0.00    -0.023 C 
ATOM     14  C   UNL     1      -9.299  -4.752  -1.399  0.00  0.00    +0.086 C 
ATOM     15  C   UNL     1      -9.121  -3.720  -0.319  0.00  0.00    +0.162 C 
ATOM     16  O   UNL     1      -9.987  -3.582   0.521  0.00  0.00    -0.292 OA
ATOM     17  C   UNL     1      -7.202  -5.926  -0.698  0.00  0.00    +0.011 C 
ATOM     18  C   UNL     1      -8.081  -6.216  -3.023  0.00  0.00    +0.011 C 
ATOM     19  H   UNL     1      -5.313  -2.146  -1.907  0.00  0.00    +0.153 HD
ATOM     20  H   UNL     1      -4.507   0.014   3.203  0.00  0.00    +0.171 HD
ENDROOT
BRANCH   8  21
ATOM     21  C   UNL     1      -8.736  -0.721   0.538  0.00  0.00    -0.035 A 
ATOM     22  C   UNL     1      -8.475   0.040  -0.587  0.00  0.00    +0.006 A 
ATOM     23  C   UNL     1      -9.269   1.131  -0.883  0.00  0.00    +0.020 A 
ATOM     24  C   UNL     1     -10.326   1.462  -0.054  0.00  0.00    +0.041 A 
ATOM     25  C   UNL     1     -10.588   0.701   1.071  0.00  0.00    +0.020 A 
ATOM     26  C   UNL     1      -9.796  -0.394   1.363  0.00  0.00    +0.006 A 
ATOM     27 CL   UNL     1     -11.325   2.834  -0.425  0.00  0.00    -0.084 Cl
ENDBRANCH   8  21
BRANCH   1  28
ATOM     28  S   UNL     1      -2.236  -0.073   1.573  0.00  0.00    -0.085 S 
BRANCH  28  29
ATOM     29  C   UNL     1      -1.433  -0.534   0.013  0.00  0.00    +0.051 C 
ATOM     30  C   UNL     1      -1.416  -2.058  -0.121  0.00  0.00    +0.019 C 
BRANCH  29  32
ATOM     31  C   UNL     1      -0.019   1.526   0.010  0.00  0.00    +0.005 C 
ATOM     32  C   UNL     1       0.002  -0.004   0.002  0.00  0.00    +0.011 C 
ENDBRANCH  29  32
ENDBRANCH  28  29
ENDBRANCH   1  28
TORSDOF 4
