REMARK  Name = ZINC06074133
REMARK  10 active torsions:
REMARK  status: ('A' for Active; 'I' for Inactive)
REMARK    1  A    between atoms: C_1  and  C_2
REMARK    2  A    between atoms: C_2  and  C_4
REMARK    3  A    between atoms: C_7  and  N_10
REMARK    4  A    between atoms: C_11  and  C_13
REMARK    5  A    between atoms: C_13  and  S_14
REMARK    6  A    between atoms: S_14  and  C_15
REMARK    7  A    between atoms: N_27  and  C_28
REMARK    8  A    between atoms: C_28  and  C_29
REMARK    9  A    between atoms: C_29  and  O_30
REMARK   10  A    between atoms: O_30  and  C_31
REMARK                            x       y       z     vdW  Elec       q    Type
REMARK                         _______ _______ _______ _____ _____    ______ ____
ROOT
ATOM      1  C   UNL     1       3.834   3.074  -0.389  0.00  0.00    +0.173 A 
ATOM      2  N   UNL     1       2.533   3.152  -0.190  0.00  0.00    -0.216 NA
ATOM      3  C   UNL     1       1.787   2.054  -0.146  0.00  0.00    +0.117 A 
ATOM      4  C   UNL     1       2.334   0.773  -0.309  0.00  0.00    +0.076 A 
ATOM      5  C   UNL     1       1.384  -0.349  -0.238  0.00  0.00    -0.023 A 
ATOM      6  C   UNL     1       0.095  -0.041  -0.025  0.00  0.00    -0.004 A 
ATOM      7  S   UNL     1       0.059   1.733   0.092  0.00  0.00    -0.073 S 
ATOM      8  C   UNL     1      -0.781  -1.264   0.032  0.00  0.00    +0.043 C 
ATOM      9  C   UNL     1       0.203  -2.434   0.255  0.00  0.00    +0.010 C 
ATOM     10  C   UNL     1       1.502  -1.871  -0.355  0.00  0.00    +0.037 C 
ATOM     11  C   UNL     1       3.747   0.717  -0.524  0.00  0.00    +0.263 A 
ATOM     12  O   UNL     1       4.308  -0.355  -0.675  0.00  0.00    -0.267 OA
ATOM     13  N   UNL     1       4.447   1.866  -0.556  0.00  0.00    -0.285 N 
ENDROOT
BRANCH   1  14
ATOM     14  S   UNL     1       4.794   4.550  -0.441  0.00  0.00    -0.078 S 
BRANCH  14  15
ATOM     15  C   UNL     1       3.494   5.780  -0.170  0.00  0.00    +0.173 C 
BRANCH  15  17
ATOM     16  N   UNL     1       3.316   8.241   0.010  0.00  0.00    -0.285 N 
ATOM     17  C   UNL     1       4.099   7.160  -0.175  0.00  0.00    +0.227 C 
ATOM     18  O   UNL     1       5.292   7.299  -0.345  0.00  0.00    -0.275 OA
ATOM     19  H   UNL     1       2.353   8.137   0.070  0.00  0.00    +0.155 HD
BRANCH  16  23
ATOM     20  C   UNL     1       5.024  12.021   0.324  0.00  0.00    +0.017 A 
ATOM     21  C   UNL     1       3.767  11.866  -0.275  0.00  0.00    +0.013 A 
ATOM     22  C   UNL     1       3.208  10.618  -0.376  0.00  0.00    +0.024 A 
ATOM     23  C   UNL     1       3.888   9.507   0.115  0.00  0.00    +0.033 A 
ATOM     24  C   UNL     1       5.134   9.657   0.717  0.00  0.00    +0.024 A 
ATOM     25  C   UNL     1       5.703  10.900   0.817  0.00  0.00    +0.013 A 
BRANCH  20  27
ATOM     26  C   UNL     1       6.979  13.520   1.080  0.00  0.00    +0.091 C 
ATOM     27  C   UNL     1       5.627  13.355   0.435  0.00  0.00    +0.160 C 
ATOM     28  O   UNL     1       5.037  14.325   0.007  0.00  0.00    -0.292 OA
ENDBRANCH  20  27
ENDBRANCH  16  23
ENDBRANCH  15  17
ENDBRANCH  14  15
ENDBRANCH   1  14
BRANCH  13  29
ATOM     29  C   UNL     1       5.895   1.820  -0.776  0.00  0.00    +0.155 C 
BRANCH  29  30
ATOM     30  C   UNL     1       6.186   1.893  -2.276  0.00  0.00    +0.181 C 
BRANCH  30  31
ATOM     31  O   UNL     1       5.767   3.163  -2.781  0.00  0.00    -0.381 OA
ATOM     32  C   UNL     1       5.995   3.335  -4.181  0.00  0.00    +0.194 C 
ENDBRANCH  30  31
ENDBRANCH  29  30
ENDBRANCH  13  29
TORSDOF 8
