REMARK  Name = ZINC14718754
REMARK  21 active torsions:
REMARK  status: ('A' for Active; 'I' for Inactive)
REMARK    1  A    between atoms: C_1  and  C_2
REMARK    2  A    between atoms: C_2  and  C_3
REMARK    3  A    between atoms: C_3  and  C_5
REMARK    4  A    between atoms: C_3  and  C_6
REMARK    5  A    between atoms: C_6  and  C_8
REMARK    6  A    between atoms: C_9  and  O_38
REMARK    7  A    between atoms: C_10  and  C_28
REMARK    8  A    between atoms: C_11  and  O_27
REMARK    9  A    between atoms: C_18  and  C_19
REMARK   10  A    between atoms: C_19  and  C_21
REMARK   11  A    between atoms: C_19  and  O_23
REMARK   12  A    between atoms: C_21  and  C_22
REMARK   13  A    between atoms: O_23  and  C_24
REMARK   14  A    between atoms: C_24  and  C_26
REMARK   15  A    between atoms: C_28  and  C_29
REMARK   16  A    between atoms: C_30  and  C_31
REMARK   17  A    between atoms: C_30  and  C_32
REMARK   18  A    between atoms: C_32  and  C_33
REMARK   19  A    between atoms: C_33  and  C_34
REMARK   20  A    between atoms: C_35  and  C_36
REMARK   21  A    between atoms: C_35  and  C_37
REMARK                            x       y       z     vdW  Elec       q    Type
REMARK                         _______ _______ _______ _____ _____    ______ ____
ROOT
ATOM      1  C   UNL     1      -0.278   6.452  -1.955  0.00  0.00    +0.102 A 
ATOM      2  C   UNL     1       0.384   7.497  -1.284  0.00  0.00    +0.138 A 
ATOM      3  C   UNL     1       0.945   7.282  -0.035  0.00  0.00    +0.041 A 
ATOM      4  C   UNL     1       0.861   6.040   0.568  0.00  0.00    +0.135 A 
ATOM      5  C   UNL     1       0.197   4.982  -0.085  0.00  0.00    +0.067 A 
ATOM      6  C   UNL     1      -0.370   5.186  -1.352  0.00  0.00    +0.157 A 
ATOM      7  O   UNL     1      -1.001   4.173  -1.980  0.00  0.00    -0.421 OA
ATOM      8  C   UNL     1      -1.094   2.958  -1.412  0.00  0.00    +0.338 A 
ATOM      9  O   UNL     1      -1.670   2.062  -2.003  0.00  0.00    -0.245 OA
ATOM     10  C   UNL     1      -0.534   2.706  -0.143  0.00  0.00    +0.100 A 
ATOM     11  C   UNL     1       0.109   3.702   0.520  0.00  0.00    +0.014 A 
ENDROOT
BRANCH   1  12
ATOM     12  C   UNL     1      -0.868   6.683  -3.272  0.00  0.00    +0.173 C 
ATOM     13  O   UNL     1      -0.246   6.394  -4.274  0.00  0.00    -0.292 OA
BRANCH  12  14
ATOM     14  C   UNL     1      -2.247   7.279  -3.387  0.00  0.00    +0.057 C 
ATOM     15  C   UNL     1      -3.292   6.162  -3.326  0.00  0.00    +0.016 C 
BRANCH  14  17
ATOM     16  C   UNL     1      -3.727   8.732  -4.781  0.00  0.00    +0.004 C 
ATOM     17  C   UNL     1      -2.372   8.022  -4.718  0.00  0.00    +0.008 C 
ENDBRANCH  14  17
ENDBRANCH  12  14
ENDBRANCH   1  12
BRANCH   4  18
ATOM     18  O   UNL     1       1.413   5.842   1.789  0.00  0.00    -0.506 OA
ATOM     19  H   UNL     1       0.812   6.021   2.526  0.00  0.00    +0.292 HD
ENDBRANCH   4  18
BRANCH   2  20
ATOM     20  O   UNL     1       0.474   8.719  -1.862  0.00  0.00    -0.506 OA
ATOM     21  H   UNL     1      -0.260   9.310  -1.648  0.00  0.00    +0.292 HD
ENDBRANCH   2  20
BRANCH  11  22
ATOM     22  C   UNL     1       0.714   3.452   1.878  0.00  0.00    +0.207 C 
BRANCH  22  23
ATOM     23  C   UNL     1      -0.252   3.932   2.963  0.00  0.00    +0.046 C 
ATOM     24  C   UNL     1       0.412   3.793   4.334  0.00  0.00    +0.008 C 
ENDBRANCH  22  23
BRANCH  22  25
ATOM     25  O   UNL     1       0.961   2.031   2.043  0.00  0.00    -0.457 OA
BRANCH  25  26
ATOM     26  C   UNL     1       1.990   1.679   2.830  0.00  0.00    +0.305 C 
ATOM     27  O   UNL     1       2.663   2.530   3.361  0.00  0.00    -0.251 OA
ATOM     28  C   UNL     1       2.307   0.222   3.049  0.00  0.00    +0.136 C 
ENDBRANCH  25  26
ENDBRANCH  22  25
ENDBRANCH  11  22
BRANCH   3  29
ATOM     29  C   UNL     1       1.651   8.411   0.672  0.00  0.00    +0.069 C 
BRANCH  29  30
ATOM     30  C   UNL     1       0.663   9.168   1.522  0.00  0.00    -0.023 C 
ATOM     31  C   UNL     1       0.870   9.297   2.809  0.00  0.00    -0.076 C 
ATOM     32  C   UNL     1       2.047   8.613   3.455  0.00  0.00    +0.039 C 
BRANCH  31  33
ATOM     33  C   UNL     1      -0.069  10.130   3.643  0.00  0.00    +0.034 C 
BRANCH  33  34
ATOM     34  C   UNL     1      -1.129   9.225   4.275  0.00  0.00    +0.031 C 
BRANCH  34  35
ATOM     35  C   UNL     1      -2.068  10.058   5.109  0.00  0.00    -0.028 C 
ATOM     36  C   UNL     1      -3.359  10.009   4.889  0.00  0.00    -0.080 C 
ATOM     37  C   UNL     1      -3.904   9.120   3.801  0.00  0.00    +0.038 C 
ATOM     38  C   UNL     1      -4.298  10.842   5.723  0.00  0.00    +0.038 C 
ENDBRANCH  34  35
ENDBRANCH  33  34
ENDBRANCH  31  33
ENDBRANCH  29  30
ENDBRANCH   3  29
TORSDOF 14
