REMARK  Name = ZINC16079998
REMARK  7 active torsions:
REMARK  status: ('A' for Active; 'I' for Inactive)
REMARK    1  A    between atoms: C_1  and  C_2
REMARK    2  A    between atoms: C_10  and  N_13
REMARK    3  A    between atoms: N_13  and  C_14
REMARK    4  A    between atoms: C_19  and  C_20
REMARK    5  A    between atoms: C_19  and  N_68
REMARK    6  A    between atoms: C_26  and  C_28
REMARK    7  A    between atoms: C_32  and  C_34
REMARK                            x       y       z     vdW  Elec       q    Type
REMARK                         _______ _______ _______ _____ _____    ______ ____
ROOT
ATOM      1  N   UNL     1      -2.812   0.478   0.698  0.00  0.00    -0.264 N 
ATOM      2  C   UNL     1      -2.475  -0.646   0.035  0.00  0.00    +0.251 C 
ATOM      3  O   UNL     1      -3.292  -1.205  -0.669  0.00  0.00    -0.270 OA
ENDROOT
BRANCH   1  13
ATOM      4  C   UNL     1       1.583  -0.921   5.788  0.00  0.00    +0.109 C 
ATOM      5  C   UNL     1       0.587  -0.509   4.735  0.00  0.00    +0.217 C 
ATOM      6  O   UNL     1      -0.238  -1.304   4.337  0.00  0.00    -0.276 OA
ATOM      7  N   UNL     1       0.612   0.742   4.236  0.00  0.00    -0.271 N 
ATOM      8  C   UNL     1       1.485   1.819   4.712  0.00  0.00    +0.118 C 
ATOM      9  C   UNL     1       1.141   3.034   3.836  0.00  0.00    +0.056 C 
ATOM     10  C   UNL     1       0.062   2.537   2.901  0.00  0.00    -0.024 A 
ATOM     11  C   UNL     1      -0.192   1.205   3.190  0.00  0.00    +0.041 A 
ATOM     12  C   UNL     1      -1.159   0.522   2.451  0.00  0.00    +0.047 A 
ATOM     13  C   UNL     1      -1.849   1.169   1.439  0.00  0.00    +0.039 A 
ATOM     14  C   UNL     1      -1.589   2.506   1.164  0.00  0.00    +0.024 A 
ATOM     15  C   UNL     1      -0.632   3.183   1.895  0.00  0.00    +0.007 A 
ENDBRANCH   1  13
BRANCH   1  16
ATOM     16  C   UNL     1      -4.189   0.975   0.642  0.00  0.00    +0.078 C 
ATOM     17  C   UNL     1      -5.146  -0.110   1.144  0.00  0.00    +0.004 C 
ATOM     18  C   UNL     1      -6.587   0.392   1.025  0.00  0.00    -0.077 C 
ATOM     19  C   UNL     1      -6.004   1.794  -0.864  0.00  0.00    -0.077 C 
ATOM     20  C   UNL     1      -4.546   1.333  -0.803  0.00  0.00    +0.004 C 
ATOM     21  N   UNL     1      -6.875   0.696  -0.393  0.00  0.00    +0.382 N 
ATOM     22  H   UNL     1      -6.689  -0.142  -0.957  0.00  0.00    -0.081 HD
BRANCH  21  23
ATOM     23  C   UNL     1      -8.294   1.075  -0.549  0.00  0.00    -0.043 C 
BRANCH  23  24
ATOM     24  C   UNL     1      -9.155   0.074   0.177  0.00  0.00    -0.064 A 
ATOM     25  C   UNL     1      -9.603  -1.058  -0.480  0.00  0.00    +0.002 A 
ATOM     26  C   UNL     1     -10.389  -1.978   0.188  0.00  0.00    +0.000 A 
ATOM     27  C   UNL     1     -10.736  -1.762   1.509  0.00  0.00    +0.000 A 
ATOM     28  C   UNL     1     -10.293  -0.628   2.163  0.00  0.00    +0.000 A 
ATOM     29  C   UNL     1      -9.502   0.290   1.497  0.00  0.00    +0.002 A 
ENDBRANCH  23  24
ENDBRANCH  21  23
ENDBRANCH   1  16
BRANCH   2  30
ATOM     30  C   UNL     1      -1.110  -1.198   0.164  0.00  0.00    +0.038 A 
ATOM     31  C   UNL     1      -0.026  -0.345   0.382  0.00  0.00    +0.013 A 
ATOM     32  C   UNL     1       1.244  -0.868   0.507  0.00  0.00    +0.001 A 
ATOM     33  C   UNL     1       1.447  -2.233   0.407  0.00  0.00    +0.012 A 
ATOM     34  C   UNL     1       0.379  -3.083   0.186  0.00  0.00    +0.056 A 
ATOM     35  C   UNL     1      -0.898  -2.574   0.064  0.00  0.00    +0.025 A 
BRANCH  34  36
ATOM     36  C   UNL     1       0.609  -4.568   0.078  0.00  0.00    +0.417 C 
ATOM     37  F   UNL     1       0.853  -4.906  -1.258  0.00  0.00    -0.166 F 
ATOM     38  F   UNL     1       1.713  -4.927   0.859  0.00  0.00    -0.166 F 
ATOM     39  F   UNL     1      -0.525  -5.251   0.532  0.00  0.00    -0.166 F 
ENDBRANCH  34  36
ENDBRANCH   2  30
TORSDOF 6
