REMARK  Name = ZINC59459405
REMARK  6 active torsions:
REMARK  status: ('A' for Active; 'I' for Inactive)
REMARK    1  A    between atoms: C_1  and  C_2
REMARK    2  A    between atoms: C_5  and  N_9
REMARK    3  A    between atoms: C_6  and  C_8
REMARK    4  A    between atoms: C_15  and  C_16
REMARK    5  A    between atoms: C_19  and  O_24
REMARK    6  A    between atoms: C_21  and  O_22
REMARK                            x       y       z     vdW  Elec       q    Type
REMARK                         _______ _______ _______ _____ _____    ______ ____
ROOT
ATOM      1  N   UNL     1       0.606  -4.243  -0.054  0.00  0.00    -0.225 NA
ATOM      2  C   UNL     1       0.377  -4.872  -1.186  0.00  0.00    +0.166 C 
ATOM      3  N   UNL     1       0.207  -6.223  -1.397  0.00  0.00    -0.260 N 
ATOM      4  C   UNL     1      -0.018  -6.692  -2.612  0.00  0.00    +0.256 C 
ATOM      5  O   UNL     1      -0.171  -7.882  -2.816  0.00  0.00    -0.269 OA
ATOM      6  C   UNL     1      -0.078  -5.709  -3.708  0.00  0.00    +0.078 C 
ATOM      7  C   UNL     1      -0.292  -5.910  -5.035  0.00  0.00    +0.032 C 
ATOM      8  S   UNL     1       0.201  -4.182  -2.823  0.00  0.00    -0.049 S 
ATOM      9  H   UNL     1       0.254  -6.835  -0.646  0.00  0.00    +0.157 HD
ENDROOT
BRANCH   1  14
ATOM     10  C   UNL     1       0.709   1.399   0.070  0.00  0.00    +0.044 C 
ATOM     11  C   UNL     1       0.681  -0.107   0.037  0.00  0.00    -0.050 A 
ATOM     12  C   UNL     1      -0.375  -0.763  -0.570  0.00  0.00    +0.005 A 
ATOM     13  C   UNL     1      -0.406  -2.142  -0.605  0.00  0.00    +0.028 A 
ATOM     14  C   UNL     1       0.631  -2.875  -0.024  0.00  0.00    +0.069 A 
ATOM     15  C   UNL     1       1.694  -2.206   0.587  0.00  0.00    -0.025 A 
ATOM     16  C   UNL     1       1.715  -0.827   0.609  0.00  0.00    +0.008 A 
ATOM     17  C   UNL     1       2.818  -2.989   1.216  0.00  0.00    +0.046 C 
ENDBRANCH   1  14
BRANCH   7  18
ATOM     18  C   UNL     1      -0.152  -4.795  -5.977  0.00  0.00    +0.020 A 
ATOM     19  C   UNL     1       0.554  -3.644  -5.605  0.00  0.00    +0.030 A 
ATOM     20  C   UNL     1       0.684  -2.601  -6.494  0.00  0.00    +0.061 A 
ATOM     21  C   UNL     1       0.115  -2.684  -7.762  0.00  0.00    +0.148 A 
ATOM     22  C   UNL     1      -0.587  -3.820  -8.141  0.00  0.00    +0.102 A 
ATOM     23  C   UNL     1      -0.720  -4.879  -7.260  0.00  0.00    +0.141 A 
ATOM     24 BR   UNL     1      -1.355  -3.923  -9.866  0.00  0.00    -0.043 Br
ATOM     25 BR   UNL     1       1.637  -1.047  -5.990  0.00  0.00    -0.046 Br
BRANCH  23  26
ATOM     26  O   UNL     1      -1.402  -5.993  -7.632  0.00  0.00    -0.505 OA
ATOM     27  H   UNL     1      -2.348  -5.960  -7.431  0.00  0.00    +0.292 HD
ENDBRANCH  23  26
BRANCH  21  28
ATOM     28  O   UNL     1       0.248  -1.650  -8.631  0.00  0.00    -0.504 OA
ATOM     29  H   UNL     1       1.032  -1.707  -9.194  0.00  0.00    +0.292 HD
ENDBRANCH  21  28
ENDBRANCH   7  18
TORSDOF 4
