REMARK  Name = ZINC39842078
REMARK  18 active torsions:
REMARK  status: ('A' for Active; 'I' for Inactive)
REMARK    1  A    between atoms: C_1  and  C_2
REMARK    2  A    between atoms: C_7  and  O_8
REMARK    3  A    between atoms: O_8  and  C_9
REMARK    4  A    between atoms: C_9  and  C_10
REMARK    5  A    between atoms: C_10  and  O_12
REMARK    6  A    between atoms: O_12  and  C_13
REMARK    7  A    between atoms: C_15  and  N_37
REMARK    8  A    between atoms: C_17  and  O_33
REMARK    9  A    between atoms: C_19  and  O_29
REMARK   10  A    between atoms: C_21  and  C_24
REMARK   11  A    between atoms: C_24  and  O_25
REMARK   12  A    between atoms: O_25  and  C_26
REMARK   13  A    between atoms: C_26  and  C_28
REMARK   14  A    between atoms: O_29  and  C_30
REMARK   15  A    between atoms: C_30  and  C_32
REMARK   16  A    between atoms: O_33  and  C_34
REMARK   17  A    between atoms: C_34  and  C_36
REMARK   18  A    between atoms: C_38  and  C_40
REMARK                            x       y       z     vdW  Elec       q    Type
REMARK                         _______ _______ _______ _____ _____    ______ ____
ROOT
ATOM      1  C   UNL     1       0.045   0.512   7.121  0.00  0.00    +0.335 C 
ATOM      2  C   UNL     1       0.337  -0.264   8.408  0.00  0.00    +0.186 C 
ATOM      3  C   UNL     1       0.297   0.700   9.597  0.00  0.00    +0.246 C 
ATOM      4  C   UNL     1      -1.069   1.392   9.633  0.00  0.00    +0.251 C 
ATOM      5  C   UNL     1      -1.307   2.104   8.299  0.00  0.00    +0.204 C 
ATOM      6  O   UNL     1      -1.226   1.156   7.233  0.00  0.00    -0.329 OA
ENDROOT
BRANCH   2   7
ATOM      7  N   UNL     1      -0.673  -1.310   8.590  0.00  0.00    -0.303 N 
ATOM      8  C   UNL     1      -0.361  -2.441   9.253  0.00  0.00    +0.210 C 
ATOM      9  O   UNL     1       0.756  -2.593   9.700  0.00  0.00    -0.276 OA
ATOM     10  C   UNL     1      -1.401  -3.516   9.440  0.00  0.00    +0.109 C 
ATOM     11  H   UNL     1      -1.567  -1.188   8.232  0.00  0.00    +0.149 HD
ENDBRANCH   2   7
BRANCH   1  12
ATOM     12  O   UNL     1       0.025  -0.392   6.014  0.00  0.00    -0.431 OA
BRANCH  12  13
ATOM     13  C   UNL     1      -0.013   0.150   4.787  0.00  0.00    +0.347 C 
ATOM     14  O   UNL     1      -0.029   1.351   4.656  0.00  0.00    -0.247 OA
BRANCH  13  15
ATOM     15  C   UNL     1      -0.035  -0.740   3.571  0.00  0.00    +0.349 C 
BRANCH  15  16
ATOM     16  O   UNL     1      -0.074   0.065   2.391  0.00  0.00    -0.481 OA
BRANCH  16  23
ATOM     17  C   UNL     1      -0.153   1.639   0.047  0.00  0.00    +0.047 C 
ATOM     18  C   UNL     1      -0.138   0.133   0.014  0.00  0.00    -0.009 A 
ATOM     19  C   UNL     1      -0.156  -0.532  -1.197  0.00  0.00    +0.007 A 
ATOM     20  C   UNL     1      -0.142  -1.914  -1.228  0.00  0.00    +0.000 A 
ATOM     21  C   UNL     1      -0.109  -2.634  -0.047  0.00  0.00    +0.004 A 
ATOM     22  C   UNL     1      -0.090  -1.974   1.166  0.00  0.00    +0.046 A 
ATOM     23  C   UNL     1      -0.099  -0.587   1.199  0.00  0.00    +0.124 A 
ENDBRANCH  16  23
ENDBRANCH  15  16
ENDBRANCH  13  15
ENDBRANCH  12  13
ENDBRANCH   1  12
BRANCH   5  24
ATOM     24  C   UNL     1      -2.695   2.748   8.304  0.00  0.00    +0.267 C 
BRANCH  24  25
ATOM     25  O   UNL     1      -2.872   3.509   7.108  0.00  0.00    -0.462 OA
BRANCH  25  26
ATOM     26  C   UNL     1      -4.046   4.142   6.956  0.00  0.00    +0.304 C 
ATOM     27  O   UNL     1      -4.895   4.053   7.811  0.00  0.00    -0.251 OA
ATOM     28  C   UNL     1      -4.304   4.964   5.720  0.00  0.00    +0.136 C 
ENDBRANCH  25  26
ENDBRANCH  24  25
ENDBRANCH   5  24
BRANCH   4  29
ATOM     29  O   UNL     1      -2.093   0.418   9.845  0.00  0.00    -0.455 OA
BRANCH  29  30
ATOM     30  C   UNL     1      -3.194   0.822  10.498  0.00  0.00    +0.304 C 
ATOM     31  O   UNL     1      -3.286   1.966  10.877  0.00  0.00    -0.251 OA
ATOM     32  C   UNL     1      -4.316  -0.150  10.758  0.00  0.00    +0.136 C 
ENDBRANCH  29  30
ENDBRANCH   4  29
BRANCH   3  33
ATOM     33  O   UNL     1       0.498  -0.028  10.811  0.00  0.00    -0.456 OA
BRANCH  33  34
ATOM     34  C   UNL     1       1.093   0.625  11.821  0.00  0.00    +0.304 C 
ATOM     35  O   UNL     1       1.432   1.776  11.681  0.00  0.00    -0.251 OA
ATOM     36  C   UNL     1       1.338  -0.078  13.131  0.00  0.00    +0.136 C 
ENDBRANCH  33  34
ENDBRANCH   3  33
TORSDOF 13
