REMARK  Name = ZINC13628779
REMARK  13 active torsions:
REMARK  status: ('A' for Active; 'I' for Inactive)
REMARK    1  A    between atoms: C_1  and  C_2
REMARK    2  A    between atoms: C_5  and  S_8
REMARK    3  A    between atoms: S_8  and  N_11
REMARK    4  A    between atoms: N_11  and  C_12
REMARK    5  A    between atoms: C_12  and  C_13
REMARK    6  A    between atoms: C_16  and  C_19
REMARK    7  A    between atoms: N_21  and  C_22
REMARK    8  A    between atoms: C_22  and  C_24
REMARK    9  A    between atoms: C_22  and  C_27
REMARK   10  A    between atoms: C_24  and  C_25
REMARK   11  A    between atoms: C_24  and  C_26
REMARK   12  A    between atoms: N_29  and  C_30
REMARK   13  A    between atoms: C_30  and  C_31
REMARK                            x       y       z     vdW  Elec       q    Type
REMARK                         _______ _______ _______ _____ _____    ______ ____
ROOT
ATOM      1  C   UNL     1      -0.069   1.551   1.196  0.00  0.00    +0.005 C 
ATOM      2  C   UNL     1       0.242   0.108   0.794  0.00  0.00    +0.005 C 
ATOM      3  C   UNL     1       0.916   0.095  -0.580  0.00  0.00    +0.013 C 
ATOM      4  C   UNL     1      -0.021   0.721  -1.614  0.00  0.00    +0.075 C 
ATOM      5  C   UNL     1      -0.333   2.164  -1.212  0.00  0.00    +0.013 C 
ATOM      6  C   UNL     1      -1.007   2.177   0.161  0.00  0.00    +0.005 C 
ENDROOT
BRANCH   4   7
ATOM      7  C   UNL     1       0.642   0.708  -2.967  0.00  0.00    +0.217 C 
ATOM      8  O   UNL     1       1.756   0.244  -3.091  0.00  0.00    -0.275 OA
ATOM      9  N   UNL     1      -0.001   1.213  -4.038  0.00  0.00    -0.304 N 
ATOM     10  H   UNL     1      -0.891   1.584  -3.938  0.00  0.00    +0.149 HD
BRANCH   9  11
ATOM     11  C   UNL     1       0.644   1.200  -5.353  0.00  0.00    +0.161 C 
BRANCH  11  12
ATOM     12  C   UNL     1      -0.410   1.219  -6.430  0.00  0.00    +0.234 C 
ATOM     13  O   UNL     1      -1.542   1.563  -6.165  0.00  0.00    -0.274 OA
ATOM     14  N   UNL     1      -0.094   0.853  -7.688  0.00  0.00    -0.307 N 
ATOM     15  H   UNL     1       0.826   0.648  -7.917  0.00  0.00    +0.149 HD
BRANCH  14  16
ATOM     16  C   UNL     1      -1.140   0.766  -8.710  0.00  0.00    +0.178 C 
BRANCH  16  17
ATOM     17  C   UNL     1      -0.529   0.340 -10.020  0.00  0.00    +0.122 A 
ATOM     18  C   UNL     1      -0.378  -0.928 -10.442  0.00  0.00    +0.046 A 
ATOM     19  C   UNL     1       0.235  -0.867 -11.714  0.00  0.00    +0.041 A 
ATOM     20  C   UNL     1       0.422   0.436 -11.994  0.00  0.00    +0.195 A 
ATOM     21  O   UNL     1      -0.048   1.162 -10.966  0.00  0.00    -0.466 OA
ENDBRANCH  16  17
ENDBRANCH  14  16
ENDBRANCH  11  12
BRANCH  11  22
ATOM     22  C   UNL     1       1.539   2.433  -5.494  0.00  0.00    +0.012 C 
ATOM     23  C   UNL     1       0.713   3.695  -5.237  0.00  0.00    +0.009 C 
ATOM     24  C   UNL     1       2.680   2.354  -4.477  0.00  0.00    +0.009 C 
ENDBRANCH  11  22
ENDBRANCH   9  11
ENDBRANCH   4   7
BRANCH   1  25
ATOM     25  C   UNL     1      -0.743   1.564   2.569  0.00  0.00    +0.109 C 
BRANCH  25  26
ATOM     26  N   UNL     1       0.198   1.075   3.579  0.00  0.00    -0.190 NA
ATOM     27  H   UNL     1       1.002   0.606   3.307  0.00  0.00    +0.148 HD
BRANCH  26  28
ATOM     28  S   UNL     1      -0.112   1.321   5.188  0.00  0.00    +0.058 S 
ATOM     29  O   UNL     1       0.956   0.716   5.904  0.00  0.00    -0.153 OA
ATOM     30  O   UNL     1      -0.443   2.695   5.332  0.00  0.00    -0.153 OA
BRANCH  28  35
ATOM     31  C   UNL     1      -5.090  -1.806   6.546  0.00  0.00    +0.044 C 
ATOM     32  C   UNL     1      -3.847  -1.025   6.207  0.00  0.00    -0.050 A 
ATOM     33  C   UNL     1      -2.604  -1.618   6.325  0.00  0.00    +0.005 A 
ATOM     34  C   UNL     1      -1.463  -0.902   6.015  0.00  0.00    +0.029 A 
ATOM     35  C   UNL     1      -1.566   0.408   5.584  0.00  0.00    +0.105 A 
ATOM     36  C   UNL     1      -2.808   1.003   5.470  0.00  0.00    +0.029 A 
ATOM     37  C   UNL     1      -3.949   0.285   5.776  0.00  0.00    +0.005 A 
ENDBRANCH  28  35
ENDBRANCH  26  28
ENDBRANCH  25  26
ENDBRANCH   1  25
TORSDOF 10
