REMARK  Name = ZINC36540062
REMARK  8 active torsions:
REMARK  status: ('A' for Active; 'I' for Inactive)
REMARK    1  A    between atoms: C_1  and  C_2
REMARK    2  A    between atoms: C_2  and  C_3
REMARK    3  A    between atoms: N_5  and  C_6
REMARK    4  A    between atoms: N_5  and  C_7
REMARK    5  A    between atoms: C_7  and  C_9
REMARK    6  A    between atoms: C_7  and  C_19
REMARK    7  A    between atoms: C_11  and  N_16
REMARK    8  A    between atoms: N_21  and  C_22
REMARK                            x       y       z     vdW  Elec       q    Type
REMARK                         _______ _______ _______ _____ _____    ______ ____
ROOT
ATOM      1  C   UNL     1      -0.500  -2.765   0.062  0.00  0.00    +0.193 C 
ENDROOT
BRANCH   1   2
ATOM      2  C   UNL     1      -0.088  -2.416   1.468  0.00  0.00    +0.002 A 
ATOM      3  C   UNL     1      -0.637  -1.312   2.095  0.00  0.00    +0.040 A 
ATOM      4  C   UNL     1      -0.259  -0.991   3.385  0.00  0.00    +0.127 A 
ATOM      5  C   UNL     1       0.668  -1.772   4.050  0.00  0.00    +0.034 A 
ATOM      6  C   UNL     1       1.217  -2.876   3.425  0.00  0.00    +0.022 A 
ATOM      7  C   UNL     1       0.834  -3.201   2.135  0.00  0.00    +0.047 A 
ATOM      8 CL   UNL     1       1.518  -4.591   1.351  0.00  0.00    -0.083 Cl
BRANCH   4   9
ATOM      9  N   UNL     1      -0.847   0.191   4.055  0.00  0.00    +0.056 N 
ATOM     10  O   UNL     1      -1.657   0.875   3.474  0.00  0.00    -0.126 OA
ATOM     11  O   UNL     1      -0.516   0.472   5.184  0.00  0.00    -0.126 OA
ENDBRANCH   4   9
ENDBRANCH   1   2
BRANCH   1  14
ATOM     12  C   UNL     1      -2.903  -2.750   0.465  0.00  0.00    +0.216 C 
ATOM     13  O   UNL     1      -4.025  -2.380   0.189  0.00  0.00    -0.276 OA
ATOM     14  N   UNL     1      -1.844  -2.244  -0.198  0.00  0.00    -0.289 N 
ATOM     15  C   UNL     1      -2.038  -1.172  -1.178  0.00  0.00    +0.133 C 
BRANCH  12  17
ATOM     16  C   UNL     1      -4.037  -4.117   2.195  0.00  0.00    +0.013 C 
ATOM     17  C   UNL     1      -2.693  -3.776   1.549  0.00  0.00    +0.092 C 
ENDBRANCH  12  17
ENDBRANCH   1  14
BRANCH   1  18
ATOM     18  C   UNL     1       0.473  -2.154  -0.913  0.00  0.00    +0.238 C 
ATOM     19  O   UNL     1       0.396  -0.975  -1.189  0.00  0.00    -0.273 OA
ATOM     20  N   UNL     1       1.429  -2.917  -1.479  0.00  0.00    -0.311 N 
ATOM     21  H   UNL     1       1.491  -3.860  -1.259  0.00  0.00    +0.149 HD
BRANCH  20  22
ATOM     22  C   UNL     1       2.375  -2.323  -2.427  0.00  0.00    +0.073 C 
ATOM     23  C   UNL     1       1.758  -2.316  -3.827  0.00  0.00    +0.022 C 
ATOM     24  C   UNL     1       2.745  -1.695  -4.817  0.00  0.00    +0.002 C 
ATOM     25  C   UNL     1       4.036  -2.517  -4.833  0.00  0.00    +0.000 C 
ATOM     26  C   UNL     1       4.653  -2.523  -3.433  0.00  0.00    +0.002 C 
ATOM     27  C   UNL     1       3.665  -3.144  -2.443  0.00  0.00    +0.022 C 
ENDBRANCH  20  22
ENDBRANCH   1  18
TORSDOF 6
