REMARK  Name = ZINC38638886
REMARK  8 active torsions:
REMARK  status: ('A' for Active; 'I' for Inactive)
REMARK    1  A    between atoms: C_1  and  N_2
REMARK    2  A    between atoms: N_5  and  C_8
REMARK    3  A    between atoms: C_8  and  C_10
REMARK    4  A    between atoms: C_8  and  C_23
REMARK    5  A    between atoms: C_10  and  N_11
REMARK    6  A    between atoms: N_11  and  S_12
REMARK    7  A    between atoms: S_12  and  C_15
REMARK    8  A    between atoms: C_15  and  C_16
REMARK                            x       y       z     vdW  Elec       q    Type
REMARK                         _______ _______ _______ _____ _____    ______ ____
ROOT
ATOM      1  C   UNL     1       1.453  -3.974  -0.034  0.00  0.00    +0.102 C 
ENDROOT
BRANCH   1   2
ATOM      2  C   UNL     1       0.076  -4.549   0.178  0.00  0.00    -0.025 A 
ATOM      3  C   UNL     1      -0.693  -4.916  -0.910  0.00  0.00    +0.009 A 
ATOM      4  C   UNL     1      -1.956  -5.444  -0.720  0.00  0.00    +0.050 A 
ATOM      5  C   UNL     1      -2.455  -5.606   0.562  0.00  0.00    +0.166 A 
ATOM      6  C   UNL     1      -1.679  -5.236   1.659  0.00  0.00    +0.167 A 
ATOM      7  C   UNL     1      -0.412  -4.713   1.461  0.00  0.00    +0.054 A 
ATOM      8  O   UNL     1      -2.386  -5.492   2.798  0.00  0.00    -0.453 OA
ATOM      9  C   UNL     1      -3.755  -5.639   2.377  0.00  0.00    +0.466 C 
ATOM     10  O   UNL     1      -3.647  -6.093   1.015  0.00  0.00    -0.453 OA
ENDBRANCH   1   2
BRANCH   1  15
ATOM     11  C   UNL     1       0.231   1.343   1.372  0.00  0.00    -0.096 C 
ATOM     12  N   UNL     1       0.192  -0.094   1.071  0.00  0.00    +0.379 N 
ATOM     13  C   UNL     1       0.610  -0.314  -0.320  0.00  0.00    -0.064 C 
ATOM     14  C   UNL     1       0.551  -1.810  -0.639  0.00  0.00    +0.066 C 
ATOM     15  N   UNL     1       1.438  -2.539   0.278  0.00  0.00    -0.298 NA
ATOM     16  C   UNL     1       1.047  -2.308   1.676  0.00  0.00    +0.066 C 
ATOM     17  C   UNL     1       1.102  -0.808   1.976  0.00  0.00    -0.064 C 
ATOM     18  H   UNL     1      -0.748  -0.439   1.198  0.00  0.00    -0.082 HD
ENDBRANCH   1  15
BRANCH   1  19
ATOM     19  C   UNL     1       2.450  -4.685   0.884  0.00  0.00    +0.129 C 
BRANCH  19  20
ATOM     20  N   UNL     1       3.764  -4.048   0.765  0.00  0.00    -0.192 NA
ATOM     21  H   UNL     1       3.947  -3.448   0.025  0.00  0.00    +0.148 HD
BRANCH  20  22
ATOM     22  S   UNL     1       4.936  -4.351   1.895  0.00  0.00    +0.034 S 
ATOM     23  O   UNL     1       6.046  -3.563   1.486  0.00  0.00    -0.158 OA
ATOM     24  O   UNL     1       4.303  -4.117   3.145  0.00  0.00    -0.158 OA
BRANCH  22  25
ATOM     25  C   UNL     1       5.319  -6.114   1.707  0.00  0.00    +0.220 C 
BRANCH  25  26
ATOM     26  C   UNL     1       6.386  -6.504   2.697  0.00  0.00    -0.025 A 
ATOM     27  C   UNL     1       7.721  -6.409   2.348  0.00  0.00    +0.007 A 
ATOM     28  C   UNL     1       8.700  -6.766   3.256  0.00  0.00    +0.020 A 
ATOM     29  C   UNL     1       8.344  -7.220   4.514  0.00  0.00    +0.041 A 
ATOM     30  C   UNL     1       7.009  -7.315   4.862  0.00  0.00    +0.020 A 
ATOM     31  C   UNL     1       6.031  -6.952   3.956  0.00  0.00    +0.007 A 
ATOM     32 CL   UNL     1       9.574  -7.670   5.654  0.00  0.00    -0.084 Cl
ENDBRANCH  25  26
ENDBRANCH  22  25
ENDBRANCH  20  22
ENDBRANCH  19  20
ENDBRANCH   1  19
TORSDOF 7
