REMARK  Name = ZINC00939151
REMARK  16 active torsions:
REMARK  status: ('A' for Active; 'I' for Inactive)
REMARK    1  A    between atoms: C_1  and  C_2
REMARK    2  A    between atoms: C_2  and  O_3
REMARK    3  A    between atoms: O_3  and  C_4
REMARK    4  A    between atoms: C_4  and  C_6
REMARK    5  A    between atoms: C_7  and  C_36
REMARK    6  A    between atoms: C_8  and  C_31
REMARK    7  A    between atoms: C_10  and  N_11
REMARK    8  A    between atoms: C_12  and  C_14
REMARK    9  A    between atoms: C_14  and  C_16
REMARK   10  A    between atoms: C_14  and  N_20
REMARK   11  A    between atoms: C_16  and  C_17
REMARK   12  A    between atoms: C_17  and  C_18
REMARK   13  A    between atoms: C_17  and  C_19
REMARK   14  A    between atoms: C_31  and  O_33
REMARK   15  A    between atoms: O_33  and  C_34
REMARK   16  A    between atoms: C_34  and  C_35
REMARK                            x       y       z     vdW  Elec       q    Type
REMARK                         _______ _______ _______ _____ _____    ______ ____
ROOT
ATOM      1  N   UNL     1      -2.274   0.953   3.854  0.00  0.00    -0.278 N 
ATOM      2  C   UNL     1      -2.850   1.125   2.647  0.00  0.00    +0.239 C 
ATOM      3  O   UNL     1      -4.002   1.496   2.572  0.00  0.00    -0.273 OA
ATOM      4  H   UNL     1      -1.353   0.656   3.914  0.00  0.00    +0.155 HD
ENDROOT
BRANCH   1   9
ATOM      5  C   UNL     1      -2.583   1.081   6.336  0.00  0.00    +0.091 A 
ATOM      6  C   UNL     1      -3.502   1.390   7.327  0.00  0.00    -0.014 A 
ATOM      7  C   UNL     1      -4.751   1.789   6.934  0.00  0.00    +0.102 A 
ATOM      8  S   UNL     1      -4.637   1.739   5.155  0.00  0.00    -0.066 S 
ATOM      9  C   UNL     1      -2.997   1.200   5.005  0.00  0.00    +0.087 A 
ATOM     10  C   UNL     1      -3.139   1.289   8.786  0.00  0.00    +0.046 C 
BRANCH   5  11
ATOM     11  C   UNL     1      -1.223   0.645   6.672  0.00  0.00    +0.342 C 
ATOM     12  O   UNL     1      -0.335   1.466   6.800  0.00  0.00    -0.245 OA
BRANCH  11  13
ATOM     13  O   UNL     1      -0.957  -0.666   6.839  0.00  0.00    -0.461 OA
BRANCH  13  15
ATOM     14  C   UNL     1       0.517  -2.544   7.319  0.00  0.00    +0.048 C 
ATOM     15  C   UNL     1       0.410  -1.025   7.170  0.00  0.00    +0.229 C 
ENDBRANCH  13  15
ENDBRANCH  11  13
ENDBRANCH   5  11
BRANCH   7  16
ATOM     16  C   UNL     1      -5.893   2.168   7.765  0.00  0.00    +0.346 C 
ATOM     17  O   UNL     1      -5.795   2.151   8.978  0.00  0.00    -0.244 OA
BRANCH  16  18
ATOM     18  O   UNL     1      -7.055   2.537   7.188  0.00  0.00    -0.461 OA
BRANCH  18  19
ATOM     19  C   UNL     1      -8.129   2.895   8.061  0.00  0.00    +0.229 C 
ATOM     20  C   UNL     1      -9.354   3.281   7.230  0.00  0.00    +0.048 C 
ENDBRANCH  18  19
ENDBRANCH  16  18
ENDBRANCH   7  16
ENDBRANCH   1   9
BRANCH   2  21
ATOM     21  C   UNL     1      -2.061   0.856   1.391  0.00  0.00    +0.171 C 
BRANCH  21  22
ATOM     22  N   UNL     1      -2.904   1.115   0.221  0.00  0.00    -0.222 N 
ATOM     23  C   UNL     1      -3.395   2.322  -0.112  0.00  0.00    +0.254 C 
ATOM     24  O   UNL     1      -3.212   3.355   0.501  0.00  0.00    -0.270 OA
ATOM     25  C   UNL     1      -4.191   2.182  -1.349  0.00  0.00    +0.049 A 
ATOM     26  C   UNL     1      -4.913   3.061  -2.140  0.00  0.00    +0.014 A 
ATOM     27  C   UNL     1      -5.570   2.592  -3.267  0.00  0.00    +0.001 A 
ATOM     28  C   UNL     1      -5.509   1.253  -3.606  0.00  0.00    +0.001 A 
ATOM     29  C   UNL     1      -4.790   0.362  -2.825  0.00  0.00    +0.014 A 
ATOM     30  C   UNL     1      -4.129   0.817  -1.695  0.00  0.00    +0.049 A 
ATOM     31  C   UNL     1      -3.293   0.175  -0.659  0.00  0.00    +0.254 C 
ATOM     32  O   UNL     1      -3.005  -1.004  -0.611  0.00  0.00    -0.270 OA
ENDBRANCH  21  22
BRANCH  21  33
ATOM     33  C   UNL     1      -0.837   1.773   1.351  0.00  0.00    +0.035 C 
BRANCH  33  34
ATOM     34  C   UNL     1       0.009   1.441   0.121  0.00  0.00    -0.015 C 
ATOM     35  C   UNL     1       0.574   0.026   0.257  0.00  0.00    +0.007 C 
ATOM     36  C   UNL     1       1.161   2.442   0.008  0.00  0.00    +0.007 C 
ENDBRANCH  33  34
ENDBRANCH  21  33
ENDBRANCH   2  21
TORSDOF 11
