REMARK  Name = ZINC40020037
REMARK  19 active torsions:
REMARK  status: ('A' for Active; 'I' for Inactive)
REMARK    1  A    between atoms: C_1  and  C_2
REMARK    2  A    between atoms: C_2  and  C_3
REMARK    3  A    between atoms: C_3  and  C_4
REMARK    4  A    between atoms: C_4  and  N_5
REMARK    5  A    between atoms: N_5  and  C_6
REMARK    6  A    between atoms: N_5  and  C_10
REMARK    7  A    between atoms: C_6  and  C_7
REMARK    8  A    between atoms: C_7  and  C_8
REMARK    9  A    between atoms: C_8  and  C_9
REMARK   10  A    between atoms: C_10  and  C_11
REMARK   11  A    between atoms: C_11  and  C_12
REMARK   12  A    between atoms: C_12  and  N_13
REMARK   13  A    between atoms: C_14  and  C_31
REMARK   14  A    between atoms: C_16  and  C_21
REMARK   15  A    between atoms: C_21  and  C_23
REMARK   16  A    between atoms: C_26  and  C_30
REMARK   17  A    between atoms: C_36  and  O_37
REMARK   18  A    between atoms: O_37  and  C_38
REMARK   19  A    between atoms: C_38  and  C_39
REMARK                            x       y       z     vdW  Elec       q    Type
REMARK                         _______ _______ _______ _____ _____    ______ ____
ROOT
ATOM      1  N   UNL     1      -5.682  -7.077   0.650  0.00  0.00    -0.283 N 
ATOM      2  C   UNL     1      -6.496  -7.224   1.863  0.00  0.00    +0.148 C 
ATOM      3  C   UNL     1      -7.669  -8.096   1.480  0.00  0.00    +0.076 C 
ATOM      4  C   UNL     1      -7.515  -8.405   0.171  0.00  0.00    +0.249 C 
ATOM      5  C   UNL     1      -6.284  -7.764  -0.338  0.00  0.00    +0.288 C 
ATOM      6  O   UNL     1      -5.874  -7.848  -1.478  0.00  0.00    -0.266 OA
ATOM      7  O   UNL     1      -8.357  -9.173  -0.557  0.00  0.00    -0.282 OA
ENDROOT
BRANCH   2   8
ATOM      8  C   UNL     1      -5.690  -7.885   2.951  0.00  0.00    +0.019 A 
ATOM      9  C   UNL     1      -4.669  -8.755   2.623  0.00  0.00    +0.009 A 
ATOM     10  C   UNL     1      -3.929  -9.362   3.622  0.00  0.00    +0.001 A 
ATOM     11  C   UNL     1      -4.210  -9.099   4.950  0.00  0.00    +0.004 A 
ATOM     12  C   UNL     1      -5.230  -8.229   5.283  0.00  0.00    +0.046 A 
ATOM     13  C   UNL     1      -5.970  -7.615   4.283  0.00  0.00    +0.126 A 
BRANCH  13  14
ATOM     14  O   UNL     1      -6.970  -6.754   4.607  0.00  0.00    -0.488 OA
BRANCH  14  15
ATOM     15  C   UNL     1      -7.160  -6.474   5.996  0.00  0.00    +0.256 C 
BRANCH  15  16
ATOM     16  C   UNL     1      -8.353  -5.570   6.167  0.00  0.00    +0.006 C 
ATOM     17  C   UNL     1      -9.263  -5.849   7.067  0.00  0.00    +0.007 C 
ENDBRANCH  15  16
ENDBRANCH  14  15
ENDBRANCH  13  14
ENDBRANCH   2   8
BRANCH   3  18
ATOM     18  C   UNL     1      -8.761  -8.526   2.357  0.00  0.00    +0.195 C 
ATOM     19  O   UNL     1      -8.881  -9.702   2.648  0.00  0.00    -0.287 OA
BRANCH  18  20
ATOM     20  C   UNL     1      -9.718  -7.532   2.889  0.00  0.00    +0.025 A 
ATOM     21  C   UNL     1      -9.653  -6.202   2.467  0.00  0.00    +0.012 A 
ATOM     22  C   UNL     1     -10.549  -5.279   2.966  0.00  0.00    +0.007 A 
ATOM     23  C   UNL     1     -11.510  -5.666   3.882  0.00  0.00    -0.015 A 
ATOM     24  C   UNL     1     -11.581  -6.984   4.305  0.00  0.00    +0.127 A 
ATOM     25  C   UNL     1     -10.694  -7.920   3.809  0.00  0.00    +0.050 A 
ATOM     26  F   UNL     1     -12.522  -7.355   5.200  0.00  0.00    -0.205 F 
ATOM     27  C   UNL     1     -12.485  -4.652   4.422  0.00  0.00    +0.047 C 
ENDBRANCH  18  20
ENDBRANCH   3  18
BRANCH   1  28
ATOM     28  C   UNL     1      -4.438  -6.313   0.535  0.00  0.00    +0.107 C 
BRANCH  28  29
ATOM     29  C   UNL     1      -4.760  -4.871   0.136  0.00  0.00    +0.000 C 
BRANCH  29  30
ATOM     30  C   UNL     1      -3.460  -4.073   0.015  0.00  0.00    -0.077 C 
BRANCH  30  31
ATOM     31  N   UNL     1      -3.759  -2.724  -0.486  0.00  0.00    +0.380 N 
ATOM     32  H   UNL     1      -4.278  -2.794  -1.348  0.00  0.00    -0.082 HD
BRANCH  31  33
ATOM     33  C   UNL     1      -2.502  -2.003  -0.728  0.00  0.00    -0.079 C 
BRANCH  33  34
ATOM     34  C   UNL     1      -1.739  -2.677  -1.870  0.00  0.00    -0.019 C 
BRANCH  34  35
ATOM     35  C   UNL     1      -0.398  -1.968  -2.075  0.00  0.00    -0.005 C 
ATOM     36  C   UNL     1       0.365  -2.642  -3.217  0.00  0.00    +0.004 C 
ENDBRANCH  34  35
ENDBRANCH  33  34
ENDBRANCH  31  33
BRANCH  31  37
ATOM     37  C   UNL     1      -4.557  -1.997   0.510  0.00  0.00    -0.079 C 
BRANCH  37  38
ATOM     38  C   UNL     1      -4.973  -0.641  -0.062  0.00  0.00    -0.019 C 
BRANCH  38  40
ATOM     39  C   UNL     1      -6.221   1.473   0.403  0.00  0.00    +0.004 C 
ATOM     40  C   UNL     1      -5.805   0.117   0.975  0.00  0.00    -0.005 C 
ENDBRANCH  38  40
ENDBRANCH  37  38
ENDBRANCH  31  37
ENDBRANCH  30  31
ENDBRANCH  29  30
ENDBRANCH  28  29
ENDBRANCH   1  28
TORSDOF 16
