REMARK  Name = ZINC58870670
REMARK  8 active torsions:
REMARK  status: ('A' for Active; 'I' for Inactive)
REMARK    1  A    between atoms: C_1  and  C_2
REMARK    2  A    between atoms: C_2  and  C_24
REMARK    3  A    between atoms: N_3  and  N_4
REMARK    4  A    between atoms: C_5  and  S_7
REMARK    5  A    between atoms: S_7  and  C_8
REMARK    6  A    between atoms: N_13  and  C_16
REMARK    7  A    between atoms: C_21  and  O_22
REMARK    8  A    between atoms: O_22  and  C_23
REMARK                            x       y       z     vdW  Elec       q    Type
REMARK                         _______ _______ _______ _____ _____    ______ ____
ROOT
ATOM      1  S   UNL     1       0.046   0.238   5.016  0.00  0.00    -0.078 S 
ENDROOT
BRANCH   1   2
ATOM      2  C   UNL     1       0.076  -1.074   6.269  0.00  0.00    +0.149 C 
ATOM      3  C   UNL     1       0.153  -0.469   7.686  0.00  0.00    +0.120 C 
ATOM      4  C   UNL     1      -1.121  -0.949   8.346  0.00  0.00    +0.228 C 
ATOM      5  O   UNL     1      -1.461  -0.698   9.482  0.00  0.00    -0.275 OA
ATOM      6  N   UNL     1      -1.813  -1.695   7.476  0.00  0.00    -0.206 N 
ATOM      7  C   UNL     1      -1.232  -1.834   6.274  0.00  0.00    +0.240 C 
ATOM      8  O   UNL     1      -1.681  -2.466   5.342  0.00  0.00    -0.274 OA
BRANCH   6   9
ATOM      9  C   UNL     1      -3.046  -2.286   7.795  0.00  0.00    +0.085 A 
ATOM     10  C   UNL     1      -4.228  -1.599   7.560  0.00  0.00    +0.027 A 
ATOM     11  C   UNL     1      -5.440  -2.183   7.874  0.00  0.00    +0.002 A 
ATOM     12  C   UNL     1      -5.479  -3.451   8.424  0.00  0.00    +0.004 A 
ATOM     13  C   UNL     1      -4.305  -4.142   8.662  0.00  0.00    +0.047 A 
ATOM     14  C   UNL     1      -3.086  -3.566   8.344  0.00  0.00    +0.142 A 
BRANCH  14  15
ATOM     15  O   UNL     1      -1.931  -4.245   8.572  0.00  0.00    -0.493 OA
ATOM     16  C   UNL     1      -2.048  -5.553   9.136  0.00  0.00    +0.277 C 
ENDBRANCH  14  15
ENDBRANCH   6   9
ENDBRANCH   1   2
BRANCH   1  18
ATOM     17  N   UNL     1       0.024   0.030   2.348  0.00  0.00    -0.259 N 
ATOM     18  C   UNL     1       0.044  -0.635   3.485  0.00  0.00    +0.146 C 
ATOM     19  N   UNL     1       0.062  -2.010   3.478  0.00  0.00    -0.338 N 
ATOM     20  H   UNL     1       0.061  -2.490   2.635  0.00  0.00    +0.144 HD
ATOM     21  H   UNL     1       0.077  -2.499   4.315  0.00  0.00    +0.144 HD
ATOM     22  H   UNL     1       0.011   1.000   2.353  0.00  0.00    +0.191 HD
BRANCH  17  25
ATOM     23  C   UNL     1      -0.018   1.503   0.010  0.00  0.00    +0.068 C 
ATOM     24  C   UNL     1       0.002  -0.004   0.002  0.00  0.00    +0.072 C 
ATOM     25  N   UNL     1       0.022  -0.664   1.131  0.00  0.00    -0.176 NA
BRANCH  24  26
ATOM     26  C   UNL     1      -0.000  -0.729  -1.269  0.00  0.00    +0.036 A 
ATOM     27  C   UNL     1       0.011  -2.096  -1.495  0.00  0.00    +0.018 A 
ATOM     28  C   UNL     1       0.006  -2.542  -2.796  0.00  0.00    +0.023 A 
ATOM     29  C   UNL     1      -0.009  -1.637  -3.810  0.00  0.00    +0.055 A 
ATOM     30  S   UNL     1      -0.025  -0.083  -2.933  0.00  0.00    -0.080 S 
ATOM     31 BR   UNL     1      -0.019  -1.946  -5.676  0.00  0.00    -0.043 Br
ENDBRANCH  24  26
ENDBRANCH  17  25
ENDBRANCH   1  18
TORSDOF 6
