REMARK  Name = ZINC08646159
REMARK  12 active torsions:
REMARK  status: ('A' for Active; 'I' for Inactive)
REMARK    1  A    between atoms: C_1  and  C_2
REMARK    2  A    between atoms: C_2  and  C_3
REMARK    3  A    between atoms: C_3  and  C_4
REMARK    4  A    between atoms: C_4  and  N_5
REMARK    5  A    between atoms: C_9  and  C_30
REMARK    6  A    between atoms: C_10  and  C_29
REMARK    7  A    between atoms: C_14  and  S_15
REMARK    8  A    between atoms: S_15  and  C_16
REMARK    9  A    between atoms: C_16  and  C_17
REMARK   10  A    between atoms: C_17  and  C_19
REMARK   11  A    between atoms: C_22  and  N_25
REMARK   12  A    between atoms: C_26  and  C_28
REMARK                            x       y       z     vdW  Elec       q    Type
REMARK                         _______ _______ _______ _____ _____    ______ ____
ROOT
ATOM      1  N   UNL     1      -7.821   7.988  -0.565  0.00  0.00    -0.287 N 
ATOM      2  C   UNL     1      -7.723   9.325  -0.687  0.00  0.00    +0.263 A 
ATOM      3  O   UNL     1      -8.726  10.015  -0.741  0.00  0.00    -0.267 OA
ATOM      4  C   UNL     1      -6.426   9.925  -0.750  0.00  0.00    +0.075 A 
ATOM      5  C   UNL     1      -6.067  11.327  -0.880  0.00  0.00    -0.026 A 
ATOM      6  C   UNL     1      -4.771  11.670  -0.920  0.00  0.00    -0.008 A 
ATOM      7  S   UNL     1      -3.924  10.107  -0.785  0.00  0.00    -0.073 S 
ATOM      8  C   UNL     1      -5.336   9.037  -0.678  0.00  0.00    +0.117 A 
ATOM      9  N   UNL     1      -5.502   7.726  -0.554  0.00  0.00    -0.216 NA
ATOM     10  C   UNL     1      -6.708   7.199  -0.502  0.00  0.00    +0.173 A 
ATOM     11  C   UNL     1      -4.174  13.048  -1.050  0.00  0.00    +0.052 C 
ATOM     12  C   UNL     1      -7.138  12.383  -0.967  0.00  0.00    +0.045 C 
ENDROOT
BRANCH   1  13
ATOM     13  C   UNL     1      -9.146   7.367  -0.500  0.00  0.00    +0.127 C 
BRANCH  13  14
ATOM     14  C   UNL     1      -9.597   7.281   0.960  0.00  0.00    +0.021 C 
BRANCH  14  16
ATOM     15  C   UNL     1     -11.432   6.546   2.487  0.00  0.00    +0.004 C 
ATOM     16  C   UNL     1     -10.982   6.633   1.028  0.00  0.00    -0.002 C 
ENDBRANCH  14  16
ENDBRANCH  13  14
ENDBRANCH   1  13
BRANCH  10  17
ATOM     17  S   UNL     1      -6.889   5.454  -0.344  0.00  0.00    -0.080 S 
BRANCH  17  18
ATOM     18  C   UNL     1      -5.148   4.960  -0.312  0.00  0.00    +0.157 C 
BRANCH  18  19
ATOM     19  C   UNL     1      -5.053   3.462  -0.178  0.00  0.00    +0.173 C 
ATOM     20  O   UNL     1      -6.063   2.794  -0.110  0.00  0.00    -0.291 OA
BRANCH  19  21
ATOM     21  C   UNL     1      -3.737   2.811  -0.129  0.00  0.00    +0.018 A 
ATOM     22  C   UNL     1      -3.647   1.419  -0.004  0.00  0.00    +0.013 A 
ATOM     23  C   UNL     1      -2.417   0.815   0.041  0.00  0.00    +0.024 A 
ATOM     24  C   UNL     1      -1.259   1.584  -0.038  0.00  0.00    +0.033 A 
ATOM     25  C   UNL     1      -1.344   2.968  -0.157  0.00  0.00    +0.024 A 
ATOM     26  C   UNL     1      -2.570   3.580  -0.207  0.00  0.00    +0.013 A 
BRANCH  24  27
ATOM     27  N   UNL     1      -0.011   0.966   0.007  0.00  0.00    -0.286 N 
ATOM     28  C   UNL     1       1.022   1.578   0.619  0.00  0.00    +0.214 C 
ATOM     29  O   UNL     1       0.887   2.699   1.061  0.00  0.00    -0.276 OA
ATOM     30  C   UNL     1       2.346   0.870   0.753  0.00  0.00    +0.109 C 
ATOM     31  H   UNL     1       0.115   0.097  -0.405  0.00  0.00    +0.155 HD
ENDBRANCH  24  27
ENDBRANCH  19  21
ENDBRANCH  18  19
ENDBRANCH  17  18
ENDBRANCH  10  17
TORSDOF 8
