REMARK  Name = ZINC09246569
REMARK  6 active torsions:
REMARK  status: ('A' for Active; 'I' for Inactive)
REMARK    1  A    between atoms: C_1  and  C_2
REMARK    2  A    between atoms: C_6  and  C_24
REMARK    3  A    between atoms: C_16  and  C_17
REMARK    4  A    between atoms: C_24  and  O_26
REMARK    5  A    between atoms: O_26  and  C_27
REMARK    6  A    between atoms: C_27  and  C_28
REMARK                            x       y       z     vdW  Elec       q    Type
REMARK                         _______ _______ _______ _____ _____    ______ ____
ROOT
ATOM      1  C   UNL     1       7.365   1.589  -1.208  0.00  0.00    +0.008 C 
ATOM      2  C   UNL     1       5.989   2.250  -1.107  0.00  0.00    -0.005 C 
ATOM      3  C   UNL     1       4.986   1.252  -0.535  0.00  0.00    +0.041 C 
ATOM      4  C   UNL     1       3.651   1.900  -0.291  0.00  0.00    -0.007 A 
ATOM      5  C   UNL     1       2.519   1.097  -0.229  0.00  0.00    +0.073 A 
ATOM      6  C   UNL     1       1.236   1.752   0.023  0.00  0.00    +0.015 A 
ATOM      7  C   UNL     1       0.044   1.024   0.103  0.00  0.00    +0.011 A 
ATOM      8  C   UNL     1      -1.130   1.676   0.337  0.00  0.00    +0.001 A 
ATOM      9  C   UNL     1      -1.157   3.059   0.508  0.00  0.00    +0.002 A 
ATOM     10  C   UNL     1      -0.017   3.798   0.436  0.00  0.00    +0.028 A 
ATOM     11  C   UNL     1       1.214   3.161   0.190  0.00  0.00    +0.072 A 
ATOM     12  N   UNL     1       2.346   3.857   0.111  0.00  0.00    -0.247 NA
ATOM     13  C   UNL     1       3.519   3.289  -0.118  0.00  0.00    +0.072 A 
ATOM     14  C   UNL     1       4.721   4.148  -0.196  0.00  0.00    -0.021 C 
ATOM     15  C   UNL     1       4.615   5.486  -0.277  0.00  0.00    +0.013 C 
ATOM     16  C   UNL     1       6.074   3.470  -0.181  0.00  0.00    +0.041 C 
ENDROOT
BRANCH  15  17
ATOM     17  C   UNL     1       5.820   6.328  -0.181  0.00  0.00    -0.025 A 
ATOM     18  C   UNL     1       6.888   5.935   0.630  0.00  0.00    +0.008 A 
ATOM     19  C   UNL     1       8.016   6.725   0.710  0.00  0.00    +0.001 A 
ATOM     20  C   UNL     1       8.086   7.910  -0.002  0.00  0.00    +0.000 A 
ATOM     21  C   UNL     1       7.030   8.308  -0.803  0.00  0.00    +0.001 A 
ATOM     22  C   UNL     1       5.899   7.526  -0.897  0.00  0.00    +0.008 A 
ENDBRANCH  15  17
BRANCH   5  23
ATOM     23  C   UNL     1       2.607  -0.367  -0.413  0.00  0.00    +0.341 C 
ATOM     24  O   UNL     1       2.502  -0.847  -1.524  0.00  0.00    -0.245 OA
BRANCH  23  25
ATOM     25  O   UNL     1       2.805  -1.169   0.652  0.00  0.00    -0.452 OA
BRANCH  25  26
ATOM     26  C   UNL     1       2.881  -2.596   0.397  0.00  0.00    +0.328 C 
BRANCH  26  27
ATOM     27  C   UNL     1       3.104  -3.327   1.696  0.00  0.00    +0.258 C 
ATOM     28  O   UNL     1       3.189  -2.707   2.733  0.00  0.00    -0.272 OA
ATOM     29  N   UNL     1       3.208  -4.671   1.703  0.00  0.00    -0.238 N 
ATOM     30  C   UNL     1       3.406  -5.325   2.865  0.00  0.00    +0.303 C 
ATOM     31  O   UNL     1       3.492  -4.702   3.905  0.00  0.00    -0.253 OA
ATOM     32  N   UNL     1       3.510  -6.668   2.873  0.00  0.00    -0.313 N 
ATOM     33  H   UNL     1       3.139  -5.167   0.873  0.00  0.00    +0.159 HD
ATOM     34  H   UNL     1       3.442  -7.165   2.042  0.00  0.00    +0.146 HD
ATOM     35  H   UNL     1       3.653  -7.139   3.709  0.00  0.00    +0.146 HD
ENDBRANCH  26  27
ENDBRANCH  25  26
ENDBRANCH  23  25
ENDBRANCH   5  23
TORSDOF 5
