REMARK  Name = ZINC63411801
REMARK  9 active torsions:
REMARK  status: ('A' for Active; 'I' for Inactive)
REMARK    1  A    between atoms: C_1  and  C_2
REMARK    2  A    between atoms: C_2  and  N_19
REMARK    3  A    between atoms: N_9  and  C_12
REMARK    4  A    between atoms: N_19  and  C_20
REMARK    5  A    between atoms: C_20  and  C_22
REMARK    6  A    between atoms: C_20  and  C_32
REMARK    7  A    between atoms: C_22  and  C_23
REMARK    8  A    between atoms: C_32  and  O_34
REMARK    9  A    between atoms: O_34  and  C_35
REMARK                            x       y       z     vdW  Elec       q    Type
REMARK                         _______ _______ _______ _____ _____    ______ ____
ROOT
ATOM      1  C   UNL     1      -1.113   1.339   0.278  0.00  0.00    +0.061 C 
ATOM      2  C   UNL     1      -1.177  -0.160   0.429  0.00  0.00    +0.019 C 
ATOM      3  C   UNL     1      -0.512  -0.778   1.471  0.00  0.00    +0.116 C 
ATOM      4  C   UNL     1       0.154   0.002   2.529  0.00  0.00    +0.258 C 
ATOM      5  O   UNL     1       0.136   1.219   2.514  0.00  0.00    -0.270 OA
ATOM      6  N   UNL     1       0.784  -0.669   3.516  0.00  0.00    -0.235 N 
ATOM      7  C   UNL     1       0.812  -2.008   3.545  0.00  0.00    +0.320 C 
ATOM      8  O   UNL     1       1.397  -2.552   4.461  0.00  0.00    -0.251 OA
ATOM      9  N   UNL     1       0.229  -2.780   2.617  0.00  0.00    -0.190 N 
ATOM     10  C   UNL     1      -0.443  -2.246   1.576  0.00  0.00    +0.265 C 
ATOM     11  O   UNL     1      -0.972  -2.958   0.743  0.00  0.00    -0.269 OA
ATOM     12  H   UNL     1       1.228  -0.170   4.220  0.00  0.00    +0.159 HD
ENDROOT
BRANCH   9  13
ATOM     13  C   UNL     1       0.313  -4.175   2.735  0.00  0.00    +0.046 A 
ATOM     14  C   UNL     1       1.326  -4.867   2.087  0.00  0.00    +0.025 A 
ATOM     15  C   UNL     1       1.407  -6.241   2.204  0.00  0.00    +0.022 A 
ATOM     16  C   UNL     1       0.479  -6.927   2.967  0.00  0.00    +0.041 A 
ATOM     17  C   UNL     1      -0.533  -6.239   3.614  0.00  0.00    +0.022 A 
ATOM     18  C   UNL     1      -0.614  -4.865   3.505  0.00  0.00    +0.025 A 
ATOM     19 CL   UNL     1       0.583  -8.654   3.113  0.00  0.00    -0.084 Cl
ENDBRANCH   9  13
BRANCH   2  20
ATOM     20  N   UNL     1      -1.882  -0.897  -0.452  0.00  0.00    -0.334 N 
ATOM     21  H   UNL     1      -1.946  -1.858  -0.339  0.00  0.00    +0.147 HD
BRANCH  20  22
ATOM     22  C   UNL     1      -2.554  -0.246  -1.580  0.00  0.00    +0.184 C 
BRANCH  22  23
ATOM     23  C   UNL     1      -1.579  -0.082  -2.718  0.00  0.00    +0.328 C 
ATOM     24  O   UNL     1      -0.441  -0.469  -2.599  0.00  0.00    -0.249 OA
BRANCH  23  25
ATOM     25  O   UNL     1      -1.976   0.495  -3.863  0.00  0.00    -0.467 OA
ATOM     26  C   UNL     1      -1.000   0.618  -4.900  0.00  0.00    +0.280 C 
ENDBRANCH  23  25
ENDBRANCH  22  23
BRANCH  22  27
ATOM     27  C   UNL     1      -3.732  -1.107  -2.038  0.00  0.00    +0.066 C 
BRANCH  27  28
ATOM     28  C   UNL     1      -4.764  -1.169  -0.942  0.00  0.00    -0.039 C 
ATOM     29  C   UNL     1      -5.860  -0.388  -0.811  0.00  0.00    -0.001 A 
ATOM     30  C   UNL     1      -6.398   0.714  -1.619  0.00  0.00    +0.010 A 
ATOM     31  C   UNL     1      -7.542   1.319  -1.225  0.00  0.00    +0.001 A 
ATOM     32  C   UNL     1      -8.224   0.922  -0.067  0.00  0.00    +0.002 A 
ATOM     33  C   UNL     1      -7.793  -0.082   0.726  0.00  0.00    +0.026 A 
ATOM     34  C   UNL     1      -6.601  -0.788   0.406  0.00  0.00    +0.043 A 
ATOM     35  N   UNL     1      -5.986  -1.779   1.006  0.00  0.00    -0.380 N 
ATOM     36  C   UNL     1      -4.788  -2.124   0.231  0.00  0.00    +0.144 C 
ATOM     37  H   UNL     1      -6.277  -2.215   1.822  0.00  0.00    +0.160 HD
ENDBRANCH  27  28
ENDBRANCH  22  27
ENDBRANCH  20  22
ENDBRANCH   2  20
TORSDOF 7
