REMARK  Name = ZINC05800172
REMARK  4 active torsions:
REMARK  status: ('A' for Active; 'I' for Inactive)
REMARK    1  A    between atoms: C_4  and  C_7
REMARK    2  A    between atoms: N_18  and  N_19
REMARK    3  A    between atoms: C_20  and  C_22
REMARK    4  A    between atoms: C_25  and  N_28
REMARK                            x       y       z     vdW  Elec       q    Type
REMARK                         _______ _______ _______ _____ _____    ______ ____
ROOT
ATOM      1  C   UNL     1      -0.013   1.086   0.008  0.00  0.00    +0.212 C 
ATOM      2  N   UNL     1      -0.740   1.569  -1.172  0.00  0.00    -0.320 N 
ATOM      3  C   UNL     1      -0.605   2.904  -1.535  0.00  0.00    +0.041 A 
ATOM      4  C   UNL     1      -1.619   3.596  -2.174  0.00  0.00    +0.024 A 
ATOM      5  C   UNL     1      -1.434   4.924  -2.508  0.00  0.00    +0.002 A 
ATOM      6  C   UNL     1      -0.243   5.567  -2.210  0.00  0.00    +0.001 A 
ATOM      7  C   UNL     1       0.778   4.891  -1.575  0.00  0.00    +0.015 A 
ATOM      8  C   UNL     1       0.606   3.552  -1.233  0.00  0.00    +0.059 A 
ATOM      9  C   UNL     1       1.665   2.781  -0.556  0.00  0.00    +0.266 C 
ATOM     10  O   UNL     1       2.799   3.215  -0.498  0.00  0.00    -0.268 OA
ATOM     11  N   UNL     1       1.361   1.589  -0.002  0.00  0.00    -0.191 N 
ATOM     12  H   UNL     1      -1.303   0.969  -1.687  0.00  0.00    +0.148 HD
ENDROOT
BRANCH   1  16
ATOM     13  C   UNL     1      -1.993   2.454   3.537  0.00  0.00    +0.000 A 
ATOM     14  C   UNL     1      -2.719   2.222   2.383  0.00  0.00    +0.000 A 
ATOM     15  C   UNL     1      -2.078   1.779   1.241  0.00  0.00    +0.007 A 
ATOM     16  C   UNL     1      -0.711   1.569   1.253  0.00  0.00    -0.008 A 
ATOM     17  C   UNL     1       0.013   1.795   2.408  0.00  0.00    +0.007 A 
ATOM     18  C   UNL     1      -0.627   2.242   3.549  0.00  0.00    +0.000 A 
ENDBRANCH   1  16
BRANCH  11  19
ATOM     19  N   UNL     1       2.380   0.818   0.573  0.00  0.00    -0.226 N 
ATOM     20  C   UNL     1       3.249   0.155  -0.215  0.00  0.00    +0.260 C 
ATOM     21  O   UNL     1       3.149   0.225  -1.424  0.00  0.00    -0.269 OA
ATOM     22  H   UNL     1       2.459   0.762   1.538  0.00  0.00    +0.173 HD
BRANCH  20  23
ATOM     23  C   UNL     1       4.324  -0.658   0.392  0.00  0.00    +0.038 A 
ATOM     24  C   UNL     1       4.445  -0.737   1.781  0.00  0.00    +0.015 A 
ATOM     25  C   UNL     1       5.447  -1.503   2.341  0.00  0.00    +0.033 A 
ATOM     26  C   UNL     1       6.338  -2.182   1.529  0.00  0.00    +0.126 A 
ATOM     27  C   UNL     1       6.227  -2.104   0.152  0.00  0.00    +0.033 A 
ATOM     28  C   UNL     1       5.226  -1.347  -0.420  0.00  0.00    +0.015 A 
BRANCH  26  29
ATOM     29  N   UNL     1       7.414  -2.997   2.137  0.00  0.00    +0.056 N 
ATOM     30  O   UNL     1       8.200  -3.596   1.425  0.00  0.00    -0.126 OA
ATOM     31  O   UNL     1       7.514  -3.067   3.349  0.00  0.00    -0.126 OA
ENDBRANCH  26  29
ENDBRANCH  20  23
ENDBRANCH  11  19
TORSDOF 4
