REMARK  Name = ZINC01906633
REMARK  8 active torsions:
REMARK  status: ('A' for Active; 'I' for Inactive)
REMARK    1  A    between atoms: C_2  and  C_3
REMARK    2  A    between atoms: C_3  and  N_4
REMARK    3  A    between atoms: C_5  and  C_27
REMARK    4  A    between atoms: C_8  and  S_9
REMARK    5  A    between atoms: S_9  and  C_10
REMARK    6  A    between atoms: C_10  and  C_11
REMARK    7  A    between atoms: C_17  and  C_19
REMARK    8  A    between atoms: C_19  and  C_20
REMARK                            x       y       z     vdW  Elec       q    Type
REMARK                         _______ _______ _______ _____ _____    ______ ____
ROOT
ATOM      1  S   UNL     1      -3.642  -0.549   0.015  0.00  0.00    -0.077 S 
ENDROOT
BRANCH   1   6
ATOM      2  N   UNL     1      -2.100   1.454   1.211  0.00  0.00    -0.298 N 
ATOM      3  C   UNL     1      -1.980   1.995   2.472  0.00  0.00    +0.166 A 
ATOM      4  N   UNL     1      -2.825   1.354   3.248  0.00  0.00    -0.128 NA
ATOM      5  N   UNL     1      -3.455   0.464   2.568  0.00  0.00    -0.122 NA
ATOM      6  C   UNL     1      -3.056   0.485   1.316  0.00  0.00    +0.193 A 
BRANCH   3   7
ATOM      7  C   UNL     1      -1.074   3.087   2.875  0.00  0.00    +0.027 A 
ATOM      8  C   UNL     1      -1.007   4.254   2.129  0.00  0.00    +0.012 A 
ATOM      9  C   UNL     1      -0.159   5.288   2.507  0.00  0.00    +0.001 A 
ATOM     10  C   UNL     1       0.635   5.182   3.609  0.00  0.00    +0.008 A 
ATOM     11  C   UNL     1       0.604   4.015   4.392  0.00  0.00    -0.017 A 
ATOM     12  C   UNL     1      -0.258   2.952   4.026  0.00  0.00    -0.007 A 
ATOM     13  C   UNL     1      -0.288   1.789   4.807  0.00  0.00    +0.009 A 
ATOM     14  C   UNL     1       0.510   1.694   5.907  0.00  0.00    +0.001 A 
ATOM     15  C   UNL     1       1.359   2.738   6.269  0.00  0.00    +0.001 A 
ATOM     16  C   UNL     1       1.414   3.882   5.533  0.00  0.00    +0.008 A 
ENDBRANCH   3   7
BRANCH   2  17
ATOM     17  C   UNL     1      -1.361   1.843   0.007  0.00  0.00    +0.152 C 
BRANCH  17  19
ATOM     18  C   UNL     1       1.080   1.787  -0.045  0.00  0.00    +0.005 C 
ATOM     19  C   UNL     1      -0.043   1.113  -0.030  0.00  0.00    -0.013 C 
ENDBRANCH  17  19
ENDBRANCH   2  17
ENDBRANCH   1   6
BRANCH   1  20
ATOM     20  C   UNL     1      -4.859  -1.535   0.921  0.00  0.00    +0.173 C 
BRANCH  20  21
ATOM     21  C   UNL     1      -5.509  -2.519  -0.018  0.00  0.00    +0.229 C 
ATOM     22  O   UNL     1      -5.181  -2.550  -1.185  0.00  0.00    -0.275 OA
ATOM     23  N   UNL     1      -6.454  -3.364   0.439  0.00  0.00    -0.264 N 
ATOM     24  C   UNL     1      -7.053  -4.271  -0.427  0.00  0.00    +0.165 A 
ATOM     25  N   UNL     1      -6.838  -4.452  -1.715  0.00  0.00    -0.233 NA
ATOM     26  C   UNL     1      -7.496  -5.370  -2.395  0.00  0.00    +0.124 A 
ATOM     27  C   UNL     1      -8.415  -6.124  -1.742  0.00  0.00    +0.015 A 
ATOM     28  S   UNL     1      -8.281  -5.452  -0.092  0.00  0.00    -0.057 S 
ATOM     29  H   UNL     1      -6.716  -3.339   1.373  0.00  0.00    +0.157 HD
BRANCH  27  30
ATOM     30  C   UNL     1      -9.303  -7.223  -2.264  0.00  0.00    +0.079 C 
BRANCH  30  31
ATOM     31  C   UNL     1      -8.595  -8.547  -2.130  0.00  0.00    -0.042 A 
ATOM     32  C   UNL     1      -7.807  -9.016  -3.164  0.00  0.00    +0.007 A 
ATOM     33  C   UNL     1      -7.153 -10.228  -3.041  0.00  0.00    +0.038 A 
ATOM     34  C   UNL     1      -7.297 -10.976  -1.885  0.00  0.00    +0.123 A 
ATOM     35  C   UNL     1      -8.091 -10.508  -0.852  0.00  0.00    +0.038 A 
ATOM     36  C   UNL     1      -8.739  -9.294  -0.976  0.00  0.00    +0.007 A 
ATOM     37  F   UNL     1      -6.662 -12.163  -1.765  0.00  0.00    -0.205 F 
ENDBRANCH  30  31
ENDBRANCH  27  30
ENDBRANCH  20  21
ENDBRANCH   1  20
TORSDOF 8
