REMARK  Name = ZINC12485330
REMARK  8 active torsions:
REMARK  status: ('A' for Active; 'I' for Inactive)
REMARK    1  A    between atoms: C_1  and  C_2
REMARK    2  A    between atoms: C_5  and  C_32
REMARK    3  A    between atoms: C_8  and  S_18
REMARK    4  A    between atoms: C_10  and  C_12
REMARK    5  A    between atoms: S_18  and  C_19
REMARK    6  A    between atoms: C_19  and  C_20
REMARK    7  A    between atoms: N_22  and  C_23
REMARK    8  A    between atoms: C_28  and  N_29
REMARK                            x       y       z     vdW  Elec       q    Type
REMARK                         _______ _______ _______ _____ _____    ______ ____
ROOT
ATOM      1  C   UNL     1       8.653   3.922  -0.172  0.00  0.00    +0.044 C 
ATOM      2  C   UNL     1       7.384   4.733  -0.106  0.00  0.00    -0.039 A 
ATOM      3  C   UNL     1       7.374   6.030  -0.532  0.00  0.00    +0.004 A 
ATOM      4  C   UNL     1       6.210   6.791  -0.478  0.00  0.00    +0.006 A 
ATOM      5  C   UNL     1       5.048   6.264   0.002  0.00  0.00    -0.024 A 
ATOM      6  C   UNL     1       5.023   4.935   0.448  0.00  0.00    +0.079 A 
ATOM      7  C   UNL     1       6.209   4.162   0.392  0.00  0.00    +0.035 A 
ATOM      8  C   UNL     1       6.160   2.820   0.848  0.00  0.00    +0.109 A 
ATOM      9  N   UNL     1       5.006   2.354   1.305  0.00  0.00    -0.220 NA
ATOM     10  C   UNL     1       3.915   3.116   1.340  0.00  0.00    +0.161 A 
ATOM     11  N   UNL     1       3.905   4.369   0.924  0.00  0.00    -0.227 NA
ATOM     12  C   UNL     1       3.798   7.104   0.053  0.00  0.00    +0.046 C 
ENDROOT
BRANCH  10  13
ATOM     13  C   UNL     1       2.657   2.531   1.863  0.00  0.00    +0.019 A 
ATOM     14  C   UNL     1       1.496   3.301   1.915  0.00  0.00    +0.011 A 
ATOM     15  C   UNL     1       0.328   2.752   2.402  0.00  0.00    +0.001 A 
ATOM     16  C   UNL     1       0.307   1.440   2.840  0.00  0.00    +0.000 A 
ATOM     17  C   UNL     1       1.456   0.671   2.792  0.00  0.00    +0.001 A 
ATOM     18  C   UNL     1       2.631   1.210   2.306  0.00  0.00    +0.011 A 
ENDBRANCH  10  13
BRANCH   8  19
ATOM     19  S   UNL     1       7.595   1.799   0.807  0.00  0.00    -0.096 S 
BRANCH  19  20
ATOM     20  C   UNL     1       6.911   0.269   1.492  0.00  0.00    +0.171 C 
BRANCH  20  21
ATOM     21  C   UNL     1       7.991  -0.780   1.554  0.00  0.00    +0.227 C 
ATOM     22  O   UNL     1       9.112  -0.519   1.173  0.00  0.00    -0.275 OA
ATOM     23  N   UNL     1       7.710  -2.009   2.033  0.00  0.00    -0.283 N 
ATOM     24  H   UNL     1       6.828  -2.201   2.387  0.00  0.00    +0.155 HD
BRANCH  23  25
ATOM     25  C   UNL     1       8.692  -3.006   2.019  0.00  0.00    +0.064 A 
ATOM     26  C   UNL     1      10.018  -2.681   2.276  0.00  0.00    +0.025 A 
ATOM     27  C   UNL     1      10.983  -3.668   2.267  0.00  0.00    +0.002 A 
ATOM     28  C   UNL     1      10.633  -4.978   1.992  0.00  0.00    +0.002 A 
ATOM     29  C   UNL     1       9.315  -5.303   1.730  0.00  0.00    +0.034 A 
ATOM     30  C   UNL     1       8.344  -4.321   1.742  0.00  0.00    +0.147 A 
BRANCH  30  31
ATOM     31  N   UNL     1       6.933  -4.670   1.461  0.00  0.00    +0.058 N 
ATOM     32  O   UNL     1       6.610  -5.837   1.327  0.00  0.00    -0.126 OA
ATOM     33  O   UNL     1       6.096  -3.791   1.364  0.00  0.00    -0.126 OA
ENDBRANCH  30  31
ENDBRANCH  23  25
ENDBRANCH  20  21
ENDBRANCH  19  20
ENDBRANCH   8  19
TORSDOF 6
