REMARK  Name = ZINC06321402
REMARK  9 active torsions:
REMARK  status: ('A' for Active; 'I' for Inactive)
REMARK    1  A    between atoms: C_1  and  C_2
REMARK    2  A    between atoms: C_6  and  C_15
REMARK    3  A    between atoms: C_13  and  C_14
REMARK    4  A    between atoms: C_15  and  C_17
REMARK    5  A    between atoms: C_15  and  N_73
REMARK    6  A    between atoms: N_21  and  C_22
REMARK    7  A    between atoms: C_22  and  C_23
REMARK    8  A    between atoms: C_31  and  C_34
REMARK    9  A    between atoms: C_34  and  C_35
REMARK                            x       y       z     vdW  Elec       q    Type
REMARK                         _______ _______ _______ _____ _____    ______ ____
ROOT
ATOM      1  C   UNL     1       1.665   6.426  -1.703  0.00  0.00    +0.039 C 
ENDROOT
BRANCH   1   7
ATOM      2  C   UNL     1       4.166  11.531   3.124  0.00  0.00    +0.044 C 
ATOM      3  C   UNL     1       3.997  11.027   1.714  0.00  0.00    -0.047 A 
ATOM      4  C   UNL     1       3.344   9.848   1.490  0.00  0.00    +0.013 A 
ATOM      5  C   UNL     1       3.188   9.380   0.181  0.00  0.00    -0.001 A 
ATOM      6  C   UNL     1       2.490   8.123  -0.095  0.00  0.00    +0.017 A 
ATOM      7  C   UNL     1       2.374   7.717  -1.384  0.00  0.00    +0.011 A 
ATOM      8  C   UNL     1       2.908   8.502  -2.428  0.00  0.00    +0.251 A 
ATOM      9  O   UNL     1       2.789   8.121  -3.579  0.00  0.00    -0.268 OA
ATOM     10  N   UNL     1       3.547   9.660  -2.184  0.00  0.00    -0.322 N 
ATOM     11  H   UNL     1       3.902  10.175  -2.925  0.00  0.00    +0.169 HD
ATOM     12  C   UNL     1       3.704  10.126  -0.896  0.00  0.00    +0.049 A 
ATOM     13  C   UNL     1       4.364  11.323  -0.643  0.00  0.00    +0.030 A 
ATOM     14  C   UNL     1       4.507  11.765   0.655  0.00  0.00    -0.046 A 
ATOM     15  C   UNL     1       5.223  13.063   0.926  0.00  0.00    +0.044 C 
ENDBRANCH   1   7
BRANCH   1  21
ATOM     16  C   UNL     1       0.001   5.420  -3.144  0.00  0.00    -0.077 C 
ATOM     17  C   UNL     1      -0.987   5.708  -4.277  0.00  0.00    -0.015 C 
ATOM     18  C   UNL     1      -2.067   6.670  -3.774  0.00  0.00    -0.010 C 
ATOM     19  C   UNL     1      -1.402   7.952  -3.266  0.00  0.00    -0.015 C 
ATOM     20  C   UNL     1      -0.402   7.599  -2.163  0.00  0.00    -0.077 C 
ATOM     21  N   UNL     1       0.625   6.691  -2.717  0.00  0.00    +0.389 N 
ATOM     22  H   UNL     1       1.060   7.138  -3.533  0.00  0.00    -0.080 HD
BRANCH  18  23
ATOM     23  C   UNL     1      -3.023   7.009  -4.919  0.00  0.00    +0.038 C 
BRANCH  23  24
ATOM     24  C   UNL     1      -3.768   5.767  -5.336  0.00  0.00    -0.047 A 
ATOM     25  C   UNL     1      -3.252   4.951  -6.325  0.00  0.00    +0.003 A 
ATOM     26  C   UNL     1      -3.933   3.809  -6.705  0.00  0.00    +0.000 A 
ATOM     27  C   UNL     1      -5.136   3.490  -6.102  0.00  0.00    +0.000 A 
ATOM     28  C   UNL     1      -5.655   4.309  -5.117  0.00  0.00    +0.000 A 
ATOM     29  C   UNL     1      -4.971   5.448  -4.735  0.00  0.00    +0.003 A 
ENDBRANCH  23  24
ENDBRANCH  18  23
ENDBRANCH   1  21
BRANCH   1  30
ATOM     30  C   UNL     1       2.654   5.435  -2.262  0.00  0.00    +0.143 A 
ATOM     31  N   UNL     1       3.173   5.442  -3.465  0.00  0.00    -0.115 NA
ATOM     32  N   UNL     1       3.971   4.435  -3.560  0.00  0.00    -0.023 NA
ATOM     33  N   UNL     1       3.979   3.789  -2.447  0.00  0.00    -0.044 NA
ATOM     34  N   UNL     1       3.175   4.371  -1.623  0.00  0.00    -0.226 N 
BRANCH  34  35
ATOM     35  C   UNL     1       2.888   3.956  -0.247  0.00  0.00    +0.182 C 
BRANCH  35  36
ATOM     36  C   UNL     1       1.716   3.008  -0.243  0.00  0.00    -0.026 A 
ATOM     37  C   UNL     1       1.928   1.647  -0.364  0.00  0.00    +0.005 A 
ATOM     38  C   UNL     1       0.854   0.778  -0.359  0.00  0.00    +0.000 A 
ATOM     39  C   UNL     1      -0.433   1.269  -0.240  0.00  0.00    +0.000 A 
ATOM     40  C   UNL     1      -0.644   2.629  -0.114  0.00  0.00    +0.000 A 
ATOM     41  C   UNL     1       0.430   3.499  -0.117  0.00  0.00    +0.005 A 
ENDBRANCH  35  36
ENDBRANCH  34  35
ENDBRANCH   1  30
TORSDOF 7
