REMARK  Name = ZINC08948273
REMARK  10 active torsions:
REMARK  status: ('A' for Active; 'I' for Inactive)
REMARK    1  A    between atoms: C_1  and  C_2
REMARK    2  A    between atoms: C_2  and  C_20
REMARK    3  A    between atoms: N_5  and  C_9
REMARK    4  A    between atoms: C_9  and  C_10
REMARK    5  A    between atoms: N_12  and  C_13
REMARK    6  A    between atoms: C_13  and  C_14
REMARK    7  A    between atoms: C_23  and  C_26
REMARK    8  A    between atoms: C_26  and  C_27
REMARK    9  A    between atoms: C_26  and  C_28
REMARK   10  A    between atoms: C_26  and  C_29
REMARK                            x       y       z     vdW  Elec       q    Type
REMARK                         _______ _______ _______ _____ _____    ______ ____
ROOT
ATOM      1  C   UNL     1      -2.040   3.118  10.543  0.00  0.00    +0.047 C 
ATOM      2  C   UNL     1      -2.371   3.788   9.209  0.00  0.00    +0.135 C 
ATOM      3  C   UNL     1      -1.942   2.911   8.050  0.00  0.00    +0.251 C 
ATOM      4  O   UNL     1      -2.341   1.797   7.788  0.00  0.00    -0.272 OA
ATOM      5  N   UNL     1      -1.025   3.627   7.370  0.00  0.00    -0.215 N 
ATOM      6  C   UNL     1      -0.813   4.821   7.936  0.00  0.00    +0.310 C 
ATOM      7  O   UNL     1      -0.027   5.643   7.507  0.00  0.00    -0.252 OA
ATOM      8  N   UNL     1      -1.571   5.013   9.031  0.00  0.00    -0.281 N 
ATOM      9  H   UNL     1      -1.585   5.801   9.596  0.00  0.00    +0.152 HD
ENDROOT
BRANCH   2  10
ATOM     10  C   UNL     1      -3.843   4.100   9.121  0.00  0.00    -0.015 A 
ATOM     11  C   UNL     1      -4.707   3.197   8.530  0.00  0.00    +0.006 A 
ATOM     12  C   UNL     1      -6.058   3.480   8.454  0.00  0.00    +0.004 A 
ATOM     13  C   UNL     1      -6.543   4.672   8.959  0.00  0.00    -0.042 A 
ATOM     14  C   UNL     1      -5.679   5.577   9.545  0.00  0.00    +0.004 A 
ATOM     15  C   UNL     1      -4.329   5.292   9.626  0.00  0.00    +0.006 A 
BRANCH  13  16
ATOM     16  C   UNL     1      -8.015   4.984   8.870  0.00  0.00    -0.013 C 
ATOM     17  C   UNL     1      -8.217   6.265   8.059  0.00  0.00    +0.015 C 
ATOM     18  C   UNL     1      -8.741   3.826   8.183  0.00  0.00    +0.015 C 
ATOM     19  C   UNL     1      -8.581   5.177  10.279  0.00  0.00    +0.015 C 
ENDBRANCH  13  16
ENDBRANCH   2  10
BRANCH   5  20
ATOM     20  C   UNL     1      -0.339   3.155   6.165  0.00  0.00    +0.213 C 
BRANCH  20  21
ATOM     21  C   UNL     1      -1.134   3.550   4.947  0.00  0.00    +0.231 C 
ATOM     22  O   UNL     1      -2.172   4.165   5.074  0.00  0.00    -0.274 OA
ATOM     23  N   UNL     1      -0.693   3.219   3.718  0.00  0.00    -0.314 N 
ATOM     24  H   UNL     1       0.137   2.727   3.617  0.00  0.00    +0.149 HD
BRANCH  23  25
ATOM     25  C   UNL     1      -1.466   3.603   2.534  0.00  0.00    +0.107 C 
BRANCH  25  26
ATOM     26  C   UNL     1      -0.750   3.109   1.275  0.00  0.00    +0.006 C 
ATOM     27  C   UNL     1      -0.729   1.579   1.267  0.00  0.00    +0.005 C 
ATOM     28  C   UNL     1      -0.013   1.086   0.008  0.00  0.00    +0.000 C 
ATOM     29  C   UNL     1      -0.753   1.593  -1.232  0.00  0.00    +0.000 C 
ATOM     30  C   UNL     1      -0.773   3.123  -1.223  0.00  0.00    +0.000 C 
ATOM     31  C   UNL     1      -1.490   3.616   0.036  0.00  0.00    +0.005 C 
ENDBRANCH  25  26
ENDBRANCH  23  25
ENDBRANCH  20  21
ENDBRANCH   5  20
TORSDOF 6
