REMARK  Name = ZINC06728734
REMARK  11 active torsions:
REMARK  status: ('A' for Active; 'I' for Inactive)
REMARK    1  A    between atoms: C_1  and  C_2
REMARK    2  A    between atoms: C_2  and  O_3
REMARK    3  A    between atoms: O_3  and  C_4
REMARK    4  A    between atoms: C_4  and  C_6
REMARK    5  A    between atoms: C_7  and  C_28
REMARK    6  A    between atoms: C_11  and  S_23
REMARK    7  A    between atoms: C_14  and  C_16
REMARK    8  A    between atoms: S_23  and  C_24
REMARK    9  A    between atoms: C_24  and  C_25
REMARK   10  A    between atoms: C_25  and  C_26
REMARK   11  A    between atoms: C_25  and  C_27
REMARK                            x       y       z     vdW  Elec       q    Type
REMARK                         _______ _______ _______ _____ _____    ______ ____
ROOT
ATOM      1  C   UNL     1      -1.244   2.980   0.273  0.00  0.00    +0.082 C 
ATOM      2  C   UNL     1      -1.193   1.663   0.017  0.00  0.00    +0.020 C 
ATOM      3  N   UNL     1      -0.011   0.966   0.007  0.00  0.00    -0.287 N 
ATOM      4  C   UNL     1       1.165   1.703   0.000  0.00  0.00    +0.219 A 
ATOM      5  N   UNL     1       2.393   1.323  -0.231  0.00  0.00    -0.187 NA
ATOM      6  C   UNL     1       3.213   2.380  -0.137  0.00  0.00    +0.210 A 
ATOM      7  N   UNL     1       2.504   3.448   0.159  0.00  0.00    -0.141 NA
ATOM      8  N   UNL     1       1.177   3.034   0.256  0.00  0.00    -0.220 N 
ATOM      9  C   UNL     1      -0.022   3.807   0.571  0.00  0.00    +0.179 C 
ATOM     10  C   UNL     1      -2.476   0.924  -0.265  0.00  0.00    +0.061 C 
ATOM     11  H   UNL     1       0.002  -0.004   0.002  0.00  0.00    +0.155 HD
ENDROOT
BRANCH   9  12
ATOM     12  C   UNL     1      -0.011   4.179   2.031  0.00  0.00    -0.018 A 
ATOM     13  C   UNL     1       0.006   3.190   2.996  0.00  0.00    +0.009 A 
ATOM     14  C   UNL     1       0.022   3.530   4.335  0.00  0.00    +0.039 A 
ATOM     15  C   UNL     1       0.009   4.863   4.711  0.00  0.00    +0.123 A 
ATOM     16  C   UNL     1      -0.013   5.853   3.743  0.00  0.00    +0.039 A 
ATOM     17  C   UNL     1      -0.023   5.510   2.405  0.00  0.00    +0.009 A 
ATOM     18  F   UNL     1       0.018   5.197   6.020  0.00  0.00    -0.205 F 
ENDBRANCH   9  12
BRANCH   1  19
ATOM     19  C   UNL     1      -2.503   3.621   0.257  0.00  0.00    +0.339 C 
ATOM     20  O   UNL     1      -3.509   2.979   0.019  0.00  0.00    -0.245 OA
BRANCH  19  21
ATOM     21  O   UNL     1      -2.590   4.944   0.505  0.00  0.00    -0.462 OA
BRANCH  21  23
ATOM     22  C   UNL     1      -3.793   7.023   0.775  0.00  0.00    +0.048 C 
ATOM     23  C   UNL     1      -3.894   5.527   0.472  0.00  0.00    +0.229 C 
ENDBRANCH  21  23
ENDBRANCH  19  21
ENDBRANCH   1  19
BRANCH   6  24
ATOM     24  S   UNL     1       4.959   2.344  -0.373  0.00  0.00    -0.084 S 
BRANCH  24  25
ATOM     25  C   UNL     1       5.315   0.606  -0.750  0.00  0.00    +0.080 C 
BRANCH  25  26
ATOM     26  C   UNL     1       6.817   0.431  -0.980  0.00  0.00    -0.007 C 
ATOM     27  C   UNL     1       7.134  -1.053  -1.175  0.00  0.00    +0.008 C 
ATOM     28  C   UNL     1       7.237   1.210  -2.228  0.00  0.00    +0.008 C 
ENDBRANCH  25  26
ENDBRANCH  24  25
ENDBRANCH   6  24
TORSDOF 7
