REMARK  Name = ZINC50896052
REMARK  7 active torsions:
REMARK  status: ('A' for Active; 'I' for Inactive)
REMARK    1  A    between atoms: C_1  and  C_2
REMARK    2  A    between atoms: C_4  and  C_8
REMARK    3  A    between atoms: C_11  and  N_14
REMARK    4  A    between atoms: C_15  and  C_17
REMARK    5  A    between atoms: C_22  and  N_23
REMARK    6  A    between atoms: C_24  and  C_26
REMARK    7  A    between atoms: C_29  and  C_31
REMARK                            x       y       z     vdW  Elec       q    Type
REMARK                         _______ _______ _______ _____ _____    ______ ____
ROOT
ATOM      1  N   UNL     1      -0.068  -6.451  -4.257  0.00  0.00    -0.281 N 
ATOM      2  C   UNL     1      -0.139  -6.257  -5.588  0.00  0.00    +0.250 C 
ATOM      3  O   UNL     1      -0.170  -5.127  -6.037  0.00  0.00    -0.270 OA
ATOM      4  H   UNL     1       0.032  -7.348  -3.902  0.00  0.00    +0.155 HD
ENDROOT
BRANCH   2   5
ATOM      5  C   UNL     1      -0.178  -7.414  -6.501  0.00  0.00    +0.061 A 
ATOM      6  C   UNL     1      -0.269  -8.711  -5.989  0.00  0.00    +0.053 A 
ATOM      7  C   UNL     1      -0.305  -9.789  -6.848  0.00  0.00    +0.124 A 
ATOM      8  C   UNL     1      -0.253  -9.592  -8.221  0.00  0.00    +0.040 A 
ATOM      9  C   UNL     1      -0.164  -8.316  -8.740  0.00  0.00    +0.027 A 
ATOM     10  C   UNL     1      -0.131  -7.220  -7.890  0.00  0.00    +0.046 A 
ATOM     11  F   UNL     1      -0.392 -11.043  -6.352  0.00  0.00    -0.205 F 
BRANCH  10  12
ATOM     12  N   UNL     1      -0.046  -5.931  -8.413  0.00  0.00    -0.285 N 
ATOM     13  C   UNL     1      -0.533  -5.669  -9.642  0.00  0.00    +0.221 C 
ATOM     14  O   UNL     1      -1.130  -6.530 -10.254  0.00  0.00    -0.275 OA
ATOM     15  H   UNL     1       0.363  -5.221  -7.893  0.00  0.00    +0.155 HD
BRANCH  13  16
ATOM     16  C   UNL     1      -0.335  -4.307 -10.257  0.00  0.00    +0.078 C 
ATOM     17  C   UNL     1       0.603  -4.205 -11.461  0.00  0.00    +0.017 C 
ATOM     18  C   UNL     1      -0.909  -4.074 -11.656  0.00  0.00    -0.002 C 
ATOM     19  C   UNL     1      -1.640  -5.241 -12.324  0.00  0.00    +0.008 C 
ENDBRANCH  13  16
ENDBRANCH  10  12
ENDBRANCH   2   5
BRANCH   1  23
ATOM     20  C   UNL     1      -0.281  -3.197  -1.661  0.00  0.00    +0.019 A 
ATOM     21  C   UNL     1      -0.999  -3.185  -2.858  0.00  0.00    +0.013 A 
ATOM     22  C   UNL     1      -0.927  -4.262  -3.714  0.00  0.00    +0.024 A 
ATOM     23  C   UNL     1      -0.139  -5.360  -3.387  0.00  0.00    +0.034 A 
ATOM     24  C   UNL     1       0.578  -5.375  -2.196  0.00  0.00    +0.024 A 
ATOM     25  C   UNL     1       0.514  -4.298  -1.339  0.00  0.00    +0.013 A 
BRANCH  20  29
ATOM     26  C   UNL     1       0.499  -0.261   2.294  0.00  0.00    +0.090 C 
ATOM     27  C   UNL     1      -0.027  -0.757   0.971  0.00  0.00    +0.148 A 
ATOM     28  N   UNL     1       0.273  -1.925   0.412  0.00  0.00    -0.212 NA
ATOM     29  C   UNL     1      -0.356  -2.043  -0.740  0.00  0.00    +0.156 A 
ATOM     30  N   UNL     1      -1.084  -0.918  -0.930  0.00  0.00    -0.259 N 
ATOM     31  H   UNL     1      -1.653  -0.714  -1.688  0.00  0.00    +0.191 HD
ATOM     32  N   UNL     1      -0.856  -0.108   0.195  0.00  0.00    -0.157 NA
ENDBRANCH  20  29
ENDBRANCH   1  23
TORSDOF 5
