REMARK  Name = ZINC14808746
REMARK  8 active torsions:
REMARK  status: ('A' for Active; 'I' for Inactive)
REMARK    1  A    between atoms: C_1  and  C_2
REMARK    2  A    between atoms: C_5  and  C_8
REMARK    3  A    between atoms: C_9  and  C_33
REMARK    4  A    between atoms: C_17  and  C_19
REMARK    5  A    between atoms: C_19  and  S_20
REMARK    6  A    between atoms: S_20  and  C_21
REMARK    7  A    between atoms: N_26  and  C_27
REMARK    8  A    between atoms: C_27  and  C_28
REMARK                            x       y       z     vdW  Elec       q    Type
REMARK                         _______ _______ _______ _____ _____    ______ ____
ROOT
ATOM      1  C   UNL     1       2.584   1.473  -0.014  0.00  0.00    +0.007 A 
ATOM      2  C   UNL     1       3.594   2.376  -0.019  0.00  0.00    -0.003 A 
ATOM      3  S   UNL     1       2.745   3.943  -0.002  0.00  0.00    -0.073 S 
ATOM      4  C   UNL     1       1.071   3.356   0.010  0.00  0.00    +0.116 A 
ATOM      5  C   UNL     1       1.209   1.958   0.001  0.00  0.00    +0.080 A 
ATOM      6  C   UNL     1      -0.015   1.215   0.009  0.00  0.00    +0.260 A 
ATOM      7  O   UNL     1       0.002  -0.004   0.002  0.00  0.00    -0.267 OA
ATOM      8  N   UNL     1      -1.183   1.882   0.018  0.00  0.00    -0.310 N 
ATOM      9  H   UNL     1      -2.015   1.384   0.019  0.00  0.00    +0.170 HD
ATOM     10  C   UNL     1      -1.220   3.239   0.031  0.00  0.00    +0.121 A 
ATOM     11  N   UNL     1      -0.121   3.945   0.025  0.00  0.00    -0.226 NA
ATOM     12  C   UNL     1       5.078   2.117  -0.034  0.00  0.00    +0.052 C 
ENDROOT
BRANCH   1  17
ATOM     13  C   UNL     1       3.700  -4.176  -0.053  0.00  0.00    +0.044 C 
ATOM     14  C   UNL     1       3.407  -2.698  -0.043  0.00  0.00    -0.050 A 
ATOM     15  C   UNL     1       3.761  -1.918  -1.130  0.00  0.00    +0.004 A 
ATOM     16  C   UNL     1       3.496  -0.564  -1.126  0.00  0.00    +0.009 A 
ATOM     17  C   UNL     1       2.871   0.018  -0.024  0.00  0.00    -0.016 A 
ATOM     18  C   UNL     1       2.522  -0.771   1.070  0.00  0.00    +0.009 A 
ATOM     19  C   UNL     1       2.787  -2.126   1.053  0.00  0.00    +0.004 A 
ENDBRANCH   1  17
BRANCH  10  20
ATOM     20  C   UNL     1      -2.553   3.943   0.048  0.00  0.00    +0.150 C 
BRANCH  20  21
ATOM     21  S   UNL     1      -2.288   5.738   0.055  0.00  0.00    -0.089 S 
BRANCH  21  22
ATOM     22  C   UNL     1      -3.917   6.409   0.074  0.00  0.00    +0.160 A 
ATOM     23  N   UNL     1      -5.079   5.784   0.082  0.00  0.00    -0.133 NA
ATOM     24  N   UNL     1      -6.247   6.511   0.098  0.00  0.00    -0.125 NA
ATOM     25  C   UNL     1      -6.200   7.828   0.105  0.00  0.00    +0.183 A 
ATOM     26  S   UNL     1      -4.437   8.118   0.096  0.00  0.00    -0.025 S 
ATOM     27  N   UNL     1      -7.243   8.747   0.120  0.00  0.00    -0.315 N 
ATOM     28  H   UNL     1      -7.052   9.698   0.124  0.00  0.00    +0.148 HD
BRANCH  27  29
ATOM     29  C   UNL     1      -8.631   8.278   0.131  0.00  0.00    +0.178 C 
BRANCH  29  30
ATOM     30  C   UNL     1      -9.562   9.464   0.147  0.00  0.00    +0.122 A 
ATOM     31  C   UNL     1     -10.058  10.089  -0.935  0.00  0.00    +0.046 A 
ATOM     32  C   UNL     1     -10.879  11.139  -0.462  0.00  0.00    +0.041 A 
ATOM     33  C   UNL     1     -10.835  11.092   0.881  0.00  0.00    +0.195 A 
ATOM     34  O   UNL     1     -10.040  10.072   1.245  0.00  0.00    -0.466 OA
ENDBRANCH  29  30
ENDBRANCH  27  29
ENDBRANCH  21  22
ENDBRANCH  20  21
ENDBRANCH  10  20
TORSDOF 6
