REMARK  Name = ZINC39663217
REMARK  5 active torsions:
REMARK  status: ('A' for Active; 'I' for Inactive)
REMARK    1  A    between atoms: C_3  and  C_15
REMARK    2  A    between atoms: C_4  and  O_7
REMARK    3  A    between atoms: O_7  and  C_8
REMARK    4  A    between atoms: C_19  and  C_28
REMARK    5  A    between atoms: N_30  and  C_31
REMARK                            x       y       z     vdW  Elec       q    Type
REMARK                         _______ _______ _______ _____ _____    ______ ____
ROOT
ATOM      1  C   UNL     1       3.588   2.139   0.205  0.00  0.00    +0.252 C 
ATOM      2  O   UNL     1       4.599   1.464   0.177  0.00  0.00    -0.270 OA
ATOM      3  N   UNL     1       3.670   3.480   0.089  0.00  0.00    -0.296 N 
ATOM      4  C   UNL     1       2.557   4.454   0.002  0.00  0.00    +0.121 C 
ATOM      5  C   UNL     1       3.024   5.658   0.849  0.00  0.00    +0.100 C 
ATOM      6  C   UNL     1       4.559   5.561   0.856  0.00  0.00    -0.004 C 
ATOM      7  C   UNL     1       4.895   4.313   0.027  0.00  0.00    +0.115 C 
ATOM      8  C   UNL     1       5.071   5.392   2.284  0.00  0.00    -0.010 C 
ATOM      9  C   UNL     1       6.602   5.355   2.271  0.00  0.00    -0.082 C 
ATOM     10  N   UNL     1       7.118   6.600   1.688  0.00  0.00    +0.379 N 
ATOM     11  C   UNL     1       6.697   6.709   0.286  0.00  0.00    -0.082 C 
ATOM     12  C   UNL     1       5.170   6.803   0.215  0.00  0.00    -0.010 C 
ATOM     13  H   UNL     1       6.759   7.387   2.208  0.00  0.00    -0.086 HD
ATOM     14  H   UNL     1       8.126   6.600   1.736  0.00  0.00    -0.086 HD
ENDROOT
BRANCH   1  17
ATOM     15  C   UNL     1      -0.070   1.365  -0.090  0.00  0.00    +0.021 A 
ATOM     16  C   UNL     1       1.141   2.010  -0.273  0.00  0.00    +0.020 A 
ATOM     17  C   UNL     1       2.272   1.492   0.367  0.00  0.00    +0.099 A 
ATOM     18  C   UNL     1       2.133   0.346   1.165  0.00  0.00    +0.233 A 
ATOM     19  N   UNL     1       0.952  -0.231   1.306  0.00  0.00    -0.220 NA
ATOM     20  C   UNL     1      -0.128   0.240   0.712  0.00  0.00    +0.114 A 
BRANCH  18  21
ATOM     21  O   UNL     1       3.215  -0.172   1.793  0.00  0.00    -0.437 OA
BRANCH  21  22
ATOM     22  C   UNL     1       3.063  -1.346   2.462  0.00  0.00    +0.130 A 
ATOM     23  C   UNL     1       3.021  -2.543   1.762  0.00  0.00    +0.048 A 
ATOM     24  C   UNL     1       2.866  -3.735   2.442  0.00  0.00    +0.023 A 
ATOM     25  C   UNL     1       2.755  -3.735   3.822  0.00  0.00    +0.041 A 
ATOM     26  C   UNL     1       2.797  -2.542   4.522  0.00  0.00    +0.023 A 
ATOM     27  C   UNL     1       2.957  -1.349   3.845  0.00  0.00    +0.048 A 
ATOM     28 CL   UNL     1       2.560  -5.235   4.675  0.00  0.00    -0.084 Cl
ENDBRANCH  21  22
ENDBRANCH  18  21
ENDBRANCH   1  17
BRANCH   5  29
ATOM     29  C   UNL     1       2.581   6.951   0.213  0.00  0.00    +0.218 C 
ATOM     30  O   UNL     1       2.435   7.016  -0.989  0.00  0.00    -0.275 OA
ATOM     31  N   UNL     1       2.346   8.034   0.981  0.00  0.00    -0.314 N 
ATOM     32  H   UNL     1       2.463   7.981   1.942  0.00  0.00    +0.149 HD
BRANCH  31  33
ATOM     33  C   UNL     1       1.915   9.290   0.363  0.00  0.00    +0.059 C 
ATOM     34  C   UNL     1       3.141  10.078  -0.106  0.00  0.00    -0.056 C 
ATOM     35  N   UNL     1       3.191  11.376   0.571  0.00  0.00    +0.381 N 
ATOM     36  C   UNL     1       3.312  11.197   2.020  0.00  0.00    -0.078 C 
ATOM     37  C   UNL     1       2.092  10.447   2.559  0.00  0.00    -0.014 C 
ATOM     38  C   UNL     1       1.146  10.131   1.390  0.00  0.00    +0.004 C 
ATOM     39  C   UNL     1       0.740  11.453   0.726  0.00  0.00    -0.014 C 
ATOM     40  C   UNL     1       2.006  12.173   0.246  0.00  0.00    -0.078 C 
ATOM     41  H   UNL     1       4.008  11.873   0.249  0.00  0.00    -0.082 HD
ENDBRANCH  31  33
ENDBRANCH   5  29
TORSDOF 5
