REMARK  Name = ZINC36420457
REMARK  11 active torsions:
REMARK  status: ('A' for Active; 'I' for Inactive)
REMARK    1  A    between atoms: C_1  and  C_2
REMARK    2  A    between atoms: C_3  and  C_29
REMARK    3  A    between atoms: N_4  and  C_20
REMARK    4  A    between atoms: C_5  and  S_7
REMARK    5  A    between atoms: S_7  and  C_8
REMARK    6  A    between atoms: C_8  and  C_9
REMARK    7  A    between atoms: C_8  and  C_10
REMARK    8  A    between atoms: N_16  and  C_17
REMARK    9  A    between atoms: N_16  and  C_18
REMARK   10  A    between atoms: C_20  and  C_21
REMARK   11  A    between atoms: C_20  and  C_22
REMARK                            x       y       z     vdW  Elec       q    Type
REMARK                         _______ _______ _______ _____ _____    ______ ____
ROOT
ATOM      1  C   UNL     1      -0.018   1.503   0.010  0.00  0.00    +0.065 C 
ATOM      2  C   UNL     1       0.002  -0.004   0.002  0.00  0.00    +0.034 A 
ATOM      3  C   UNL     1       0.008  -0.785  -1.092  0.00  0.00    +0.037 A 
ATOM      4  N   UNL     1       0.028  -2.090  -0.654  0.00  0.00    -0.321 N 
ATOM      5  C   UNL     1       0.034  -2.053   0.707  0.00  0.00    +0.148 A 
ATOM      6  N   UNL     1       0.024  -0.796   1.087  0.00  0.00    -0.338 N 
ATOM      7  C   UNL     1      -0.006  -0.320  -2.525  0.00  0.00    +0.065 C 
ATOM      8  H   UNL     1       0.028  -0.488   2.007  0.00  0.00    +0.168 HD
ENDROOT
BRANCH   4   9
ATOM      9  C   UNL     1       0.041  -3.291  -1.493  0.00  0.00    +0.090 C 
ATOM     10  C   UNL     1      -1.195  -4.139  -1.187  0.00  0.00    +0.031 C 
BRANCH   9  11
ATOM     11  C   UNL     1       1.303  -4.104  -1.200  0.00  0.00    +0.015 C 
ATOM     12  C   UNL     1       1.399  -5.314  -2.158  0.00  0.00    +0.009 C 
ATOM     13  C   UNL     1       2.721  -5.085  -2.951  0.00  0.00    -0.010 C 
ATOM     14  C   UNL     1       3.851  -5.323  -1.902  0.00  0.00    +0.004 C 
ATOM     15  C   UNL     1       3.756  -4.113  -0.945  0.00  0.00    +0.004 C 
ATOM     16  C   UNL     1       2.577  -3.259  -1.505  0.00  0.00    -0.006 C 
ATOM     17  C   UNL     1       2.737  -3.519  -3.044  0.00  0.00    +0.007 C 
ENDBRANCH   9  11
ENDBRANCH   4   9
BRANCH   5  18
ATOM     18  S   UNL     1       0.059  -3.453   1.776  0.00  0.00    -0.079 S 
BRANCH  18  19
ATOM     19  C   UNL     1       0.057  -2.734   3.441  0.00  0.00    +0.119 C 
ATOM     20  C   UNL     1      -1.260  -1.990   3.674  0.00  0.00    +0.028 C 
BRANCH  19  21
ATOM     21  C   UNL     1       0.202  -3.832   4.463  0.00  0.00    +0.149 A 
ATOM     22  N   UNL     1      -0.509  -4.940   4.344  0.00  0.00    -0.198 NA
ATOM     23  C   UNL     1      -0.384  -5.912   5.244  0.00  0.00    +0.217 A 
ATOM     24  N   UNL     1       0.457  -5.768   6.263  0.00  0.00    -0.181 NA
ATOM     25  C   UNL     1       1.169  -4.653   6.380  0.00  0.00    +0.222 A 
ATOM     26  N   UNL     1       1.042  -3.687   5.472  0.00  0.00    -0.198 NA
ATOM     27  N   UNL     1       2.042  -4.498   7.436  0.00  0.00    -0.306 N 
ATOM     28  C   UNL     1       2.185  -5.564   8.431  0.00  0.00    +0.132 C 
ATOM     29  C   UNL     1       2.828  -3.267   7.563  0.00  0.00    +0.132 C 
ATOM     30  N   UNL     1      -1.126  -7.069   5.120  0.00  0.00    -0.327 N 
ATOM     31  H   UNL     1      -1.740  -7.174   4.376  0.00  0.00    +0.145 HD
ATOM     32  H   UNL     1      -1.035  -7.777   5.776  0.00  0.00    +0.145 HD
ENDBRANCH  19  21
ENDBRANCH  18  19
ENDBRANCH   5  18
TORSDOF 5
