REMARK  Name = ZINC16572457
REMARK  9 active torsions:
REMARK  status: ('A' for Active; 'I' for Inactive)
REMARK    1  A    between atoms: C_1  and  C_2
REMARK    2  A    between atoms: C_2  and  C_3
REMARK    3  A    between atoms: C_3  and  C_5
REMARK    4  A    between atoms: C_3  and  C_6
REMARK    5  A    between atoms: C_6  and  C_8
REMARK    6  A    between atoms: C_6  and  N_23
REMARK    7  A    between atoms: C_14  and  C_16
REMARK    8  A    between atoms: C_19  and  C_22
REMARK    9  A    between atoms: N_26  and  C_27
REMARK                            x       y       z     vdW  Elec       q    Type
REMARK                         _______ _______ _______ _____ _____    ______ ____
ROOT
ATOM      1  C   UNL     1      -2.094   1.222   1.701  0.00  0.00    +0.163 C 
ENDROOT
BRANCH   1   2
ATOM      2  C   UNL     1      -2.814   1.396   0.389  0.00  0.00    +0.239 C 
ATOM      3  O   UNL     1      -3.898   1.939   0.359  0.00  0.00    -0.273 OA
ATOM      4  N   UNL     1      -2.254   0.947  -0.752  0.00  0.00    -0.262 N 
ATOM      5  C   UNL     1      -2.862   1.208  -1.974  0.00  0.00    +0.188 A 
ATOM      6  N   UNL     1      -3.982   1.863  -2.235  0.00  0.00    -0.125 NA
ATOM      7  N   UNL     1      -4.404   2.021  -3.413  0.00  0.00    -0.140 NA
ATOM      8  C   UNL     1      -3.733   1.515  -4.441  0.00  0.00    +0.134 A 
ATOM      9  S   UNL     1      -2.363   0.754  -3.577  0.00  0.00    -0.030 S 
ATOM     10  H   UNL     1      -1.426   0.442  -0.720  0.00  0.00    +0.157 HD
BRANCH   8  11
ATOM     11  C   UNL     1      -4.033   1.565  -5.887  0.00  0.00    +0.009 A 
ATOM     12  C   UNL     1      -3.172   0.959  -6.803  0.00  0.00    +0.011 A 
ATOM     13  C   UNL     1      -3.460   1.004  -8.151  0.00  0.00    +0.004 A 
ATOM     14  C   UNL     1      -4.594   1.659  -8.597  0.00  0.00    -0.050 A 
ATOM     15  C   UNL     1      -5.449   2.267  -7.695  0.00  0.00    +0.004 A 
ATOM     16  C   UNL     1      -5.176   2.224  -6.344  0.00  0.00    +0.011 A 
ATOM     17  C   UNL     1      -4.900   1.710 -10.072  0.00  0.00    +0.044 C 
ENDBRANCH   8  11
ENDBRANCH   1   2
BRANCH   1  18
ATOM     18  N   UNL     1      -3.050   1.349   2.803  0.00  0.00    -0.288 N 
ATOM     19  C   UNL     1      -2.794   0.761   3.989  0.00  0.00    +0.305 C 
ATOM     20  O   UNL     1      -1.770   0.124   4.143  0.00  0.00    -0.252 OA
ATOM     21  N   UNL     1      -3.674   0.878   5.003  0.00  0.00    -0.268 N 
ATOM     22  H   UNL     1      -3.867   1.858   2.680  0.00  0.00    +0.151 HD
ATOM     23  H   UNL     1      -4.521   1.329   4.861  0.00  0.00    +0.156 HD
BRANCH  21  24
ATOM     24  C   UNL     1      -3.365   0.349   6.262  0.00  0.00    +0.055 A 
ATOM     25  C   UNL     1      -2.538  -0.762   6.366  0.00  0.00    +0.025 A 
ATOM     26  C   UNL     1      -2.235  -1.282   7.609  0.00  0.00    +0.003 A 
ATOM     27  C   UNL     1      -2.754  -0.699   8.750  0.00  0.00    +0.021 A 
ATOM     28  C   UNL     1      -3.579   0.408   8.651  0.00  0.00    +0.061 A 
ATOM     29  C   UNL     1      -3.881   0.937   7.410  0.00  0.00    +0.080 A 
ATOM     30 CL   UNL     1      -4.910   2.330   7.285  0.00  0.00    -0.080 Cl
ATOM     31 CL   UNL     1      -4.228   1.137  10.087  0.00  0.00    -0.082 Cl
ENDBRANCH  21  24
ENDBRANCH   1  18
BRANCH   1  32
ATOM     32  C   UNL     1      -1.013   2.297   1.836  0.00  0.00    +0.015 C 
ATOM     33  C   UNL     1      -1.673   3.673   1.942  0.00  0.00    +0.010 C 
BRANCH  32  35
ATOM     34  C   UNL     1       0.609   0.734   2.916  0.00  0.00    +0.004 C 
ATOM     35  C   UNL     1      -0.183   2.031   3.093  0.00  0.00    +0.002 C 
ENDBRANCH  32  35
ENDBRANCH   1  32
TORSDOF 6
