REMARK  Name = ZINC20830239
REMARK  11 active torsions:
REMARK  status: ('A' for Active; 'I' for Inactive)
REMARK    1  A    between atoms: C_4  and  C_7
REMARK    2  A    between atoms: C_7  and  C_8
REMARK    3  A    between atoms: C_8  and  C_9
REMARK    4  A    between atoms: C_12  and  S_15
REMARK    5  A    between atoms: N_13  and  N_14
REMARK    6  A    between atoms: S_15  and  C_16
REMARK    7  A    between atoms: C_16  and  C_17
REMARK    8  A    between atoms: C_17  and  C_18
REMARK    9  A    between atoms: N_20  and  C_21
REMARK   10  A    between atoms: C_24  and  S_27
REMARK   11  A    between atoms: S_27  and  N_30
REMARK                            x       y       z     vdW  Elec       q    Type
REMARK                         _______ _______ _______ _____ _____    ______ ____
ROOT
ATOM      1  C   UNL     1       2.440  -4.300  -2.664  0.00  0.00    +0.218 C 
ATOM      2  O   UNL     1       2.220  -3.472  -3.523  0.00  0.00    -0.275 OA
ATOM      3  N   UNL     1       1.641  -4.377  -1.581  0.00  0.00    -0.285 N 
ATOM      4  H   UNL     1       1.890  -5.068  -0.762  0.00  0.00    +0.155 HD
ENDROOT
BRANCH   3   5
ATOM      5  C   UNL     1       0.495  -3.578  -1.499  0.00  0.00    +0.033 A 
ATOM      6  C   UNL     1      -0.214  -3.259  -2.650  0.00  0.00    +0.025 A 
ATOM      7  C   UNL     1      -1.345  -2.471  -2.566  0.00  0.00    +0.030 A 
ATOM      8  C   UNL     1      -1.772  -2.000  -1.337  0.00  0.00    +0.106 A 
ATOM      9  C   UNL     1      -1.065  -2.313  -0.190  0.00  0.00    +0.030 A 
ATOM     10  C   UNL     1       0.064  -3.104  -0.267  0.00  0.00    +0.025 A 
BRANCH   8  11
ATOM     11  S   UNL     1      -3.216  -0.995  -1.234  0.00  0.00    +0.061 S 
ATOM     12  O   UNL     1      -3.383  -0.392  -2.510  0.00  0.00    -0.153 OA
ATOM     13  O   UNL     1      -3.095  -0.233  -0.041  0.00  0.00    -0.153 OA
BRANCH  11  14
ATOM     14  N   UNL     1      -4.505  -2.011  -1.018  0.00  0.00    -0.177 NA
ATOM     15  C   UNL     1      -4.930  -2.379   0.301  0.00  0.00    +0.109 C 
ATOM     16  C   UNL     1      -4.246  -3.627   0.914  0.00  0.00    +0.017 C 
ATOM     17  C   UNL     1      -4.099  -4.735  -0.158  0.00  0.00    +0.001 C 
ATOM     18  C   UNL     1      -5.313  -4.786  -1.041  0.00  0.00    +0.001 C 
ATOM     19  C   UNL     1      -4.942  -3.990  -2.287  0.00  0.00    +0.017 C 
ATOM     20  C   UNL     1      -5.249  -2.563  -2.201  0.00  0.00    +0.109 C 
ENDBRANCH  11  14
ENDBRANCH   8  11
ENDBRANCH   3   5
BRANCH   1  21
ATOM     21  C   UNL     1       3.607  -5.243  -2.808  0.00  0.00    +0.107 C 
BRANCH  21  22
ATOM     22  C   UNL     1       4.344  -4.946  -4.115  0.00  0.00    +0.086 C 
BRANCH  22  23
ATOM     23  S   UNL     1       5.746  -6.078  -4.288  0.00  0.00    -0.084 S 
BRANCH  23  27
ATOM     24  C   UNL     1       7.607  -5.299  -7.627  0.00  0.00    +0.151 A 
ATOM     25  N   UNL     1       6.640  -4.426  -7.633  0.00  0.00    -0.132 NA
ATOM     26  N   UNL     1       5.921  -4.556  -6.575  0.00  0.00    -0.121 NA
ATOM     27  C   UNL     1       6.395  -5.528  -5.831  0.00  0.00    +0.208 A 
ATOM     28  N   UNL     1       7.489  -6.029  -6.476  0.00  0.00    -0.228 N 
BRANCH  28  29
ATOM     29  N   UNL     1       8.296  -7.049  -6.060  0.00  0.00    -0.295 N 
ATOM     30  H   UNL     1       8.092  -7.559  -5.107  0.00  0.00    +0.163 HD
ATOM     31  H   UNL     1       9.151  -7.362  -6.679  0.00  0.00    +0.163 HD
ENDBRANCH  28  29
BRANCH  24  32
ATOM     32  C   UNL     1       8.663  -5.470  -8.688  0.00  0.00    +0.082 C 
BRANCH  32  33
ATOM     33  C   UNL     1       9.867  -4.585  -8.356  0.00  0.00    +0.043 C 
BRANCH  33  37
ATOM     34  C   UNL     1      12.861  -5.068 -11.365  0.00  0.00    +0.000 A 
ATOM     35  C   UNL     1      11.890  -4.093 -11.505  0.00  0.00    +0.000 A 
ATOM     36  C   UNL     1      10.921  -3.937 -10.532  0.00  0.00    +0.003 A 
ATOM     37  C   UNL     1      10.923  -4.755  -9.418  0.00  0.00    -0.047 A 
ATOM     38  C   UNL     1      11.896  -5.726  -9.275  0.00  0.00    +0.003 A 
ATOM     39  C   UNL     1      12.862  -5.886 -10.251  0.00  0.00    +0.000 A 
ENDBRANCH  33  37
ENDBRANCH  32  33
ENDBRANCH  24  32
ENDBRANCH  23  27
ENDBRANCH  22  23
ENDBRANCH  21  22
ENDBRANCH   1  21
TORSDOF 11
