REMARK  Name = ZINC44662738
REMARK  10 active torsions:
REMARK  status: ('A' for Active; 'I' for Inactive)
REMARK    1  A    between atoms: C_1  and  C_2
REMARK    2  A    between atoms: C_4  and  C_12
REMARK    3  A    between atoms: C_12  and  C_14
REMARK    4  A    between atoms: C_14  and  S_15
REMARK    5  A    between atoms: S_15  and  C_16
REMARK    6  A    between atoms: N_26  and  C_27
REMARK    7  A    between atoms: C_27  and  C_29
REMARK    8  A    between atoms: C_27  and  C_30
REMARK    9  A    between atoms: C_30  and  O_31
REMARK   10  A    between atoms: O_31  and  C_32
REMARK                            x       y       z     vdW  Elec       q    Type
REMARK                         _______ _______ _______ _____ _____    ______ ____
ROOT
ATOM      1  C   UNL     1      -6.516  -1.358  -1.719  0.00  0.00    +0.173 A 
ATOM      2  N   UNL     1      -6.680  -2.049  -0.618  0.00  0.00    -0.223 NA
ATOM      3  C   UNL     1      -7.873  -2.585  -0.292  0.00  0.00    +0.079 A 
ATOM      4  C   UNL     1      -8.049  -3.323   0.883  0.00  0.00    +0.028 A 
ATOM      5  C   UNL     1      -9.276  -3.848   1.174  0.00  0.00    +0.002 A 
ATOM      6  C   UNL     1     -10.355  -3.660   0.320  0.00  0.00    +0.001 A 
ATOM      7  C   UNL     1     -10.215  -2.943  -0.836  0.00  0.00    +0.015 A 
ATOM      8  C   UNL     1      -8.974  -2.396  -1.159  0.00  0.00    +0.065 A 
ATOM      9  C   UNL     1      -8.765  -1.617  -2.386  0.00  0.00    +0.263 A 
ATOM     10  O   UNL     1      -9.673  -1.419  -3.172  0.00  0.00    -0.267 OA
ATOM     11  N   UNL     1      -7.525  -1.122  -2.608  0.00  0.00    -0.282 N 
ENDROOT
BRANCH  11  12
ATOM     12  C   UNL     1      -7.262  -0.333  -3.814  0.00  0.00    +0.115 C 
ATOM     13  C   UNL     1      -8.276   0.809  -3.908  0.00  0.00    +0.033 C 
BRANCH  12  14
ATOM     14  C   UNL     1      -7.386  -1.229  -5.048  0.00  0.00    +0.184 C 
BRANCH  14  15
ATOM     15  O   UNL     1      -8.743  -1.653  -5.193  0.00  0.00    -0.381 OA
ATOM     16  C   UNL     1      -8.970  -2.499  -6.322  0.00  0.00    +0.194 C 
ENDBRANCH  14  15
ENDBRANCH  12  14
ENDBRANCH  11  12
BRANCH   1  17
ATOM     17  S   UNL     1      -4.920  -0.695  -2.064  0.00  0.00    -0.080 S 
BRANCH  17  18
ATOM     18  C   UNL     1      -3.908  -1.234  -0.658  0.00  0.00    +0.156 C 
BRANCH  18  19
ATOM     19  C   UNL     1      -2.499  -0.728  -0.830  0.00  0.00    +0.172 C 
ATOM     20  O   UNL     1      -2.206  -0.067  -1.806  0.00  0.00    -0.291 OA
BRANCH  19  23
ATOM     21  C   UNL     1       0.038   0.927   0.144  0.00  0.00    +0.035 C 
ATOM     22  C   UNL     1      -0.067  -0.599   0.135  0.00  0.00    +0.111 C 
ATOM     23  C   UNL     1      -1.520  -1.021   0.142  0.00  0.00    +0.027 C 
ATOM     24  C   UNL     1      -1.687  -1.756   1.303  0.00  0.00    +0.006 A 
ATOM     25  C   UNL     1      -2.803  -2.413   1.873  0.00  0.00    +0.010 A 
ATOM     26  C   UNL     1      -2.679  -3.071   3.047  0.00  0.00    +0.001 A 
ATOM     27  C   UNL     1      -1.465  -3.137   3.750  0.00  0.00    +0.002 A 
ATOM     28  C   UNL     1      -0.341  -2.545   3.292  0.00  0.00    +0.026 A 
ATOM     29  C   UNL     1      -0.389  -1.806   2.019  0.00  0.00    +0.043 A 
ATOM     30  N   UNL     1       0.525  -1.153   1.357  0.00  0.00    -0.377 N 
ATOM     31  H   UNL     1       1.450  -1.049   1.629  0.00  0.00    +0.160 HD
ENDBRANCH  19  23
ENDBRANCH  18  19
ENDBRANCH  17  18
ENDBRANCH   1  17
TORSDOF 7
