REMARK  Name = ZINC39226371
REMARK  8 active torsions:
REMARK  status: ('A' for Active; 'I' for Inactive)
REMARK    1  A    between atoms: C_1  and  C_2
REMARK    2  A    between atoms: C_9  and  C_10
REMARK    3  A    between atoms: C_9  and  C_11
REMARK    4  A    between atoms: C_13  and  N_15
REMARK    5  A    between atoms: C_16  and  C_18
REMARK    6  A    between atoms: C_22  and  C_24
REMARK    7  A    between atoms: C_30  and  O_41
REMARK    8  A    between atoms: N_37  and  C_40
REMARK                            x       y       z     vdW  Elec       q    Type
REMARK                         _______ _______ _______ _____ _____    ______ ____
ROOT
ATOM      1  C   UNL     1       4.580  -0.698   1.143  0.00  0.00    +0.037 A 
ATOM      2  C   UNL     1       4.872  -0.883  -0.210  0.00  0.00    +0.013 A 
ATOM      3  C   UNL     1       6.182  -1.020  -0.623  0.00  0.00    +0.001 A 
ATOM      4  C   UNL     1       7.211  -0.973   0.297  0.00  0.00    +0.008 A 
ATOM      5  C   UNL     1       6.933  -0.788   1.651  0.00  0.00    -0.017 A 
ATOM      6  C   UNL     1       5.616  -0.644   2.075  0.00  0.00    +0.021 A 
ENDROOT
BRANCH   5   7
ATOM      7  C   UNL     1       8.040  -0.739   2.637  0.00  0.00    -0.017 A 
ATOM      8  C   UNL     1       7.764  -0.560   3.991  0.00  0.00    +0.012 A 
ATOM      9  C   UNL     1       8.797  -0.513   4.901  0.00  0.00    +0.046 A 
ATOM     10  C   UNL     1      10.116  -0.646   4.476  0.00  0.00    +0.127 A 
ATOM     11  C   UNL     1      10.393  -0.829   3.131  0.00  0.00    +0.023 A 
ATOM     12  C   UNL     1       9.359  -0.878   2.214  0.00  0.00    +0.018 A 
ATOM     13  C   UNL     1      11.808  -0.991   2.635  0.00  0.00    +0.152 C 
ATOM     14  C   UNL     1      12.788  -0.479   3.693  0.00  0.00    +0.084 C 
ATOM     15  C   UNL     1      12.393  -1.078   5.047  0.00  0.00    +0.110 C 
ATOM     16  O   UNL     1      11.104  -0.586   5.407  0.00  0.00    -0.485 OA
ATOM     17  C   UNL     1      12.357  -2.604   4.942  0.00  0.00    +0.029 C 
ATOM     18  C   UNL     1      12.043  -3.198   6.317  0.00  0.00    -0.075 C 
ATOM     19  N   UNL     1      13.078  -2.793   7.276  0.00  0.00    +0.378 N 
ATOM     20  C   UNL     1      13.065  -1.334   7.437  0.00  0.00    -0.075 C 
ATOM     21  C   UNL     1      13.419  -0.667   6.106  0.00  0.00    +0.029 C 
ATOM     22  C   UNL     1      12.816  -3.429   8.574  0.00  0.00    -0.096 C 
ATOM     23  H   UNL     1      13.982  -3.085   6.937  0.00  0.00    -0.082 HD
BRANCH  13  24
ATOM     24  O   UNL     1      11.977  -0.242   1.430  0.00  0.00    -0.387 OA
ATOM     25  H   UNL     1      11.390  -0.514   0.711  0.00  0.00    +0.210 HD
ENDBRANCH  13  24
ENDBRANCH   5   7
BRANCH   1  27
ATOM     26  N   UNL     1       2.177  -0.604   0.684  0.00  0.00    -0.308 N 
ATOM     27  C   UNL     1       3.177  -0.552   1.586  0.00  0.00    +0.244 C 
ATOM     28  O   UNL     1       2.925  -0.385   2.763  0.00  0.00    -0.270 OA
ATOM     29  H   UNL     1       2.378  -0.737  -0.256  0.00  0.00    +0.149 HD
BRANCH  26  39
ATOM     30  C   UNL     1      -0.117   1.591  -0.022  0.00  0.00    +0.009 C 
ATOM     31  C   UNL     1      -0.054   0.061  -0.041  0.00  0.00    +0.010 C 
ATOM     32  C   UNL     1      -1.459  -0.539  -0.067  0.00  0.00    -0.000 C 
ATOM     33  C   UNL     1      -1.355  -2.073  -0.262  0.00  0.00    +0.008 C 
ATOM     34  C   UNL     1      -1.161  -2.098   1.269  0.00  0.00    -0.003 C 
ATOM     35  C   UNL     1      -2.074  -0.863   1.295  0.00  0.00    -0.029 C 
ATOM     36  C   UNL     1      -3.571  -1.220   1.217  0.00  0.00    +0.011 C 
ATOM     37  C   UNL     1      -1.808   0.121   2.430  0.00  0.00    +0.011 C 
ATOM     38  C   UNL     1       0.288  -1.802   1.653  0.00  0.00    +0.026 C 
ATOM     39  C   UNL     1       0.776  -0.458   1.126  0.00  0.00    +0.077 C 
ENDBRANCH  26  39
ENDBRANCH   1  27
TORSDOF 4
