REMARK  Name = ZINC13501145
REMARK  10 active torsions:
REMARK  status: ('A' for Active; 'I' for Inactive)
REMARK    1  A    between atoms: C_1  and  C_2
REMARK    2  A    between atoms: C_2  and  C_3
REMARK    3  A    between atoms: C_3  and  C_5
REMARK    4  A    between atoms: C_3  and  N_66
REMARK    5  A    between atoms: N_9  and  C_10
REMARK    6  A    between atoms: C_10  and  C_11
REMARK    7  A    between atoms: C_18  and  C_19
REMARK    8  A    between atoms: C_18  and  N_66
REMARK    9  A    between atoms: C_23  and  C_31
REMARK   10  A    between atoms: C_32  and  N_66
REMARK                            x       y       z     vdW  Elec       q    Type
REMARK                         _______ _______ _______ _____ _____    ______ ____
ROOT
ATOM      1  N   UNL     1       0.809   3.905  -0.830  0.00  0.00    +0.391 N 
ATOM      2  H   UNL     1      -0.070   4.050  -0.318  0.00  0.00    -0.080 HD
ENDROOT
BRANCH   1   3
ATOM      3  C   UNL     1       0.513   3.229  -2.111  0.00  0.00    -0.067 C 
ATOM      4  C   UNL     1      -0.347   4.153  -2.997  0.00  0.00    -0.015 C 
ATOM      5  C   UNL     1      -1.346   3.192  -3.690  0.00  0.00    -0.002 C 
ATOM      6  C   UNL     1      -1.673   2.173  -2.571  0.00  0.00    -0.002 C 
ATOM      7  C   UNL     1      -0.330   1.970  -1.840  0.00  0.00    -0.015 C 
ENDBRANCH   1   3
BRANCH   1   8
ATOM      8  C   UNL     1       1.709   3.066  -0.012  0.00  0.00    +0.003 C 
BRANCH   8   9
ATOM      9  C   UNL     1       1.389   3.298   1.443  0.00  0.00    +0.138 A 
ATOM     10  N   UNL     1       0.957   4.412   1.981  0.00  0.00    -0.115 NA
ATOM     11  N   UNL     1       0.802   4.210   3.244  0.00  0.00    -0.023 NA
ATOM     12  N   UNL     1       1.124   2.995   3.525  0.00  0.00    -0.044 NA
ATOM     13  N   UNL     1       1.491   2.400   2.441  0.00  0.00    -0.226 N 
BRANCH  13  14
ATOM     14  C   UNL     1       1.935   1.010   2.319  0.00  0.00    +0.182 C 
BRANCH  14  15
ATOM     15  C   UNL     1       0.734   0.108   2.194  0.00  0.00    -0.026 A 
ATOM     16  C   UNL     1       0.074  -0.323   3.330  0.00  0.00    +0.008 A 
ATOM     17  C   UNL     1      -1.031  -1.146   3.217  0.00  0.00    +0.038 A 
ATOM     18  C   UNL     1      -1.470  -1.547   1.967  0.00  0.00    +0.123 A 
ATOM     19  C   UNL     1      -0.804  -1.119   0.830  0.00  0.00    +0.038 A 
ATOM     20  C   UNL     1       0.297  -0.292   0.945  0.00  0.00    +0.008 A 
ATOM     21  F   UNL     1      -2.546  -2.356   1.855  0.00  0.00    -0.205 F 
ENDBRANCH  14  15
ENDBRANCH  13  14
ENDBRANCH   8   9
BRANCH   8  23
ATOM     22  C   UNL     1       3.522   3.106  -1.730  0.00  0.00    +0.002 C 
ATOM     23  C   UNL     1       3.170   3.435  -0.278  0.00  0.00    -0.011 C 
ENDBRANCH   8  23
ENDBRANCH   1   8
BRANCH   1  24
ATOM     24  C   UNL     1       1.437   5.219  -1.086  0.00  0.00    -0.036 C 
BRANCH  24  25
ATOM     25  C   UNL     1       1.258   6.085   0.134  0.00  0.00    +0.001 A 
ATOM     26  C   UNL     1       2.304   6.295   0.972  0.00  0.00    +0.017 A 
ATOM     27  C   UNL     1       2.099   7.146   2.146  0.00  0.00    -0.001 A 
ATOM     28  C   UNL     1       3.142   7.405   3.042  0.00  0.00    +0.013 A 
ATOM     29  C   UNL     1       2.917   8.200   4.130  0.00  0.00    -0.050 A 
ATOM     30  C   UNL     1       1.663   8.753   4.354  0.00  0.00    +0.005 A 
ATOM     31  C   UNL     1       0.622   8.511   3.485  0.00  0.00    +0.026 A 
ATOM     32  C   UNL     1       0.827   7.705   2.370  0.00  0.00    +0.049 A 
ATOM     33  N   UNL     1      -0.196   7.447   1.483  0.00  0.00    -0.322 N 
ATOM     34  H   UNL     1      -1.073   7.833   1.639  0.00  0.00    +0.169 HD
ATOM     35  C   UNL     1       0.002   6.668   0.405  0.00  0.00    +0.251 A 
ATOM     36  O   UNL     1      -0.925   6.462  -0.358  0.00  0.00    -0.268 OA
ATOM     37  C   UNL     1       4.040   8.479   5.096  0.00  0.00    +0.044 C 
ENDBRANCH  24  25
ENDBRANCH   1  24
TORSDOF 8
