REMARK  Name = ZINC05724474
REMARK  4 active torsions:
REMARK  status: ('A' for Active; 'I' for Inactive)
REMARK    1  A    between atoms: C_1  and  C_2
REMARK    2  A    between atoms: C_3  and  N_9
REMARK    3  A    between atoms: C_12  and  N_23
REMARK    4  A    between atoms: N_13  and  C_17
REMARK                            x       y       z     vdW  Elec       q    Type
REMARK                         _______ _______ _______ _____ _____    ______ ____
ROOT
ATOM      1  N   UNL     1       7.132   4.204  -0.528  0.00  0.00    -0.139 N 
ATOM      2  N   UNL     1       5.933   4.795  -0.101  0.00  0.00    -0.238 N 
ATOM      3  C   UNL     1       4.974   3.752  -0.050  0.00  0.00    +0.126 C 
ATOM      4  C   UNL     1       3.694   3.420   0.216  0.00  0.00    +0.131 C 
ATOM      5  N   UNL     1       3.520   2.061   0.007  0.00  0.00    -0.205 N 
ATOM      6  N   UNL     1       4.732   1.501  -0.417  0.00  0.00    -0.239 N 
ATOM      7  C   UNL     1       5.674   2.530  -0.467  0.00  0.00    +0.181 C 
ATOM      8  N   UNL     1       6.913   2.838  -0.732  0.00  0.00    -0.143 NA
ATOM      9  H   UNL     1       5.789   5.729   0.116  0.00  0.00    +0.172 HD
ATOM     10  H   UNL     1       4.888   0.569  -0.636  0.00  0.00    +0.172 HD
ENDROOT
BRANCH   1  13
ATOM     11  C   UNL     1       9.518   2.655  -0.566  0.00  0.00    +0.047 C 
ATOM     12  C   UNL     1       9.533   4.152  -0.743  0.00  0.00    -0.008 A 
ATOM     13  C   UNL     1       8.341   4.868  -0.718  0.00  0.00    +0.077 A 
ATOM     14  C   UNL     1       8.359   6.248  -0.887  0.00  0.00    +0.027 A 
ATOM     15  C   UNL     1       9.560   6.904  -1.070  0.00  0.00    +0.003 A 
ATOM     16  C   UNL     1      10.744   6.189  -1.095  0.00  0.00    +0.020 A 
ATOM     17  C   UNL     1      10.730   4.814  -0.932  0.00  0.00    +0.046 A 
ATOM     18 CL   UNL     1      12.219   3.923  -0.964  0.00  0.00    -0.083 Cl
ENDBRANCH   1  13
BRANCH   5  19
ATOM     19  C   UNL     1       2.324   1.361   0.186  0.00  0.00    +0.055 A 
ATOM     20  C   UNL     1       1.871   0.495  -0.801  0.00  0.00    +0.025 A 
ATOM     21  C   UNL     1       0.688  -0.195  -0.622  0.00  0.00    +0.002 A 
ATOM     22  C   UNL     1      -0.045  -0.024   0.539  0.00  0.00    +0.000 A 
ATOM     23  C   UNL     1       0.404   0.838   1.523  0.00  0.00    +0.002 A 
ATOM     24  C   UNL     1       1.586   1.531   1.351  0.00  0.00    +0.025 A 
ENDBRANCH   5  19
BRANCH   4  25
ATOM     25  N   UNL     1       2.706   4.301   0.637  0.00  0.00    -0.343 N 
ATOM     26  H   UNL     1       1.796   3.988   0.758  0.00  0.00    +0.144 HD
ATOM     27  H   UNL     1       2.926   5.230   0.810  0.00  0.00    +0.144 HD
ENDBRANCH   4  25
TORSDOF 3
