REMARK  Name = ZINC17120208
REMARK  5 active torsions:
REMARK  status: ('A' for Active; 'I' for Inactive)
REMARK    1  A    between atoms: C_1  and  C_2
REMARK    2  A    between atoms: C_5  and  N_8
REMARK    3  A    between atoms: N_11  and  N_12
REMARK    4  A    between atoms: C_13  and  C_14
REMARK    5  A    between atoms: C_13  and  C_15
REMARK                            x       y       z     vdW  Elec       q    Type
REMARK                         _______ _______ _______ _____ _____    ______ ____
ROOT
ATOM      1  N   UNL     1       0.970   3.204  -1.011  0.00  0.00    -0.176 NA
ATOM      2  C   UNL     1       1.942   3.668  -1.736  0.00  0.00    +0.066 C 
ATOM      3  C   UNL     1       3.155   2.815  -2.005  0.00  0.00    +0.068 C 
ENDROOT
BRANCH   2   4
ATOM      4  C   UNL     1       1.860   5.029  -2.295  0.00  0.00    -0.002 A 
ATOM      5  C   UNL     1       2.908   5.533  -3.071  0.00  0.00    +0.010 A 
ATOM      6  C   UNL     1       2.828   6.801  -3.597  0.00  0.00    +0.009 A 
ATOM      7  C   UNL     1       1.704   7.595  -3.350  0.00  0.00    -0.014 A 
ATOM      8  C   UNL     1       0.663   7.092  -2.571  0.00  0.00    -0.035 A 
ATOM      9  C   UNL     1       0.736   5.823  -2.047  0.00  0.00    +0.014 A 
ATOM     10  C   UNL     1      -0.396   8.164  -2.481  0.00  0.00    +0.071 C 
ATOM     11  C   UNL     1       0.126   9.334  -3.278  0.00  0.00    -0.035 A 
ATOM     12  C   UNL     1       1.372   8.974  -3.784  0.00  0.00    -0.014 A 
ATOM     13  C   UNL     1       2.082   9.887  -4.568  0.00  0.00    +0.009 A 
ATOM     14  C   UNL     1       1.546  11.130  -4.832  0.00  0.00    +0.001 A 
ATOM     15  C   UNL     1       0.307  11.478  -4.325  0.00  0.00    +0.000 A 
ATOM     16  C   UNL     1      -0.402  10.578  -3.548  0.00  0.00    +0.004 A 
ENDBRANCH   2   4
BRANCH   1  20
ATOM     17  N   UNL     1      -1.039   2.161   0.518  0.00  0.00    -0.214 NA
ATOM     18  C   UNL     1       0.020   1.420   0.288  0.00  0.00    +0.216 C 
ATOM     19  N   UNL     1       0.097   0.151   0.809  0.00  0.00    -0.368 N 
ATOM     20  N   UNL     1       1.049   1.910  -0.479  0.00  0.00    -0.246 N 
ATOM     21  H   UNL     1       0.984  -0.470   0.617  0.00  0.00    +0.159 HD
ATOM     22  H   UNL     1      -0.729  -0.243   1.420  0.00  0.00    +0.159 HD
ATOM     23  H   UNL     1       1.934   1.288  -0.675  0.00  0.00    +0.192 HD
BRANCH  17  28
ATOM     24  C   UNL     1      -5.490  -0.035   3.208  0.00  0.00    +0.044 C 
ATOM     25  C   UNL     1      -4.302   0.552   2.490  0.00  0.00    -0.050 A 
ATOM     26  C   UNL     1      -3.709   1.706   2.969  0.00  0.00    +0.005 A 
ATOM     27  C   UNL     1      -2.621   2.248   2.317  0.00  0.00    +0.028 A 
ATOM     28  C   UNL     1      -2.119   1.629   1.170  0.00  0.00    +0.068 A 
ATOM     29  C   UNL     1      -2.726   0.468   0.689  0.00  0.00    +0.028 A 
ATOM     30  C   UNL     1      -3.810  -0.067   1.354  0.00  0.00    +0.005 A 
ENDBRANCH  17  28
ENDBRANCH   1  20
TORSDOF 3
