REMARK  Name = ZINC20420547
REMARK  7 active torsions:
REMARK  status: ('A' for Active; 'I' for Inactive)
REMARK    1  A    between atoms: C_1  and  C_2
REMARK    2  A    between atoms: C_3  and  N_19
REMARK    3  A    between atoms: C_4  and  C_18
REMARK    4  A    between atoms: N_5  and  C_7
REMARK    5  A    between atoms: C_7  and  C_9
REMARK    6  A    between atoms: C_7  and  C_10
REMARK    7  A    between atoms: N_12  and  C_13
REMARK                            x       y       z     vdW  Elec       q    Type
REMARK                         _______ _______ _______ _____ _____    ______ ____
ROOT
ATOM      1  C   UNL     1       0.776   2.337   4.682  0.00  0.00    +0.190 C 
ATOM      2  C   UNL     1       1.253   3.773   4.455  0.00  0.00    +0.042 C 
ENDROOT
BRANCH   1   7
ATOM      3  C   UNL     1      -2.452   3.135   8.443  0.00  0.00    +0.069 C 
ATOM      4  C   UNL     1      -1.305   2.604   7.621  0.00  0.00    +0.081 A 
ATOM      5  C   UNL     1      -0.368   1.650   8.041  0.00  0.00    +0.068 A 
ATOM      6  C   UNL     1       0.497   1.437   7.017  0.00  0.00    +0.058 A 
ATOM      7  N   UNL     1       0.119   2.241   5.987  0.00  0.00    -0.255 N 
ATOM      8  N   UNL     1      -1.014   2.957   6.395  0.00  0.00    -0.174 NA
ATOM      9  C   UNL     1       1.665   0.486   7.021  0.00  0.00    +0.067 C 
BRANCH   5  10
ATOM     10  N   UNL     1      -0.333   1.020   9.300  0.00  0.00    -0.355 N 
ATOM     11  H   UNL     1       0.452   0.282   9.524  0.00  0.00    +0.142 HD
ATOM     12  H   UNL     1      -1.090   1.266  10.059  0.00  0.00    +0.142 HD
ENDBRANCH   5  10
ENDBRANCH   1   7
BRANCH   1  13
ATOM     13  C   UNL     1      -0.200   1.954   3.599  0.00  0.00    +0.238 C 
ATOM     14  O   UNL     1      -1.333   1.633   3.889  0.00  0.00    -0.273 OA
ATOM     15  N   UNL     1       0.186   1.969   2.308  0.00  0.00    -0.311 N 
ATOM     16  H   UNL     1       1.214   2.260   2.044  0.00  0.00    +0.149 HD
BRANCH  15  17
ATOM     17  C   UNL     1      -0.763   1.597   1.255  0.00  0.00    +0.073 C 
ATOM     18  C   UNL     1      -0.013   1.086   0.008  0.00  0.00    +0.022 C 
ATOM     19  C   UNL     1      -0.784   1.609  -1.216  0.00  0.00    +0.002 C 
ATOM     20  C   UNL     1      -1.978   2.421  -0.670  0.00  0.00    +0.002 C 
ATOM     21  C   UNL     1      -1.531   2.845   0.750  0.00  0.00    +0.022 C 
ENDBRANCH  15  17
ENDBRANCH   1  13
TORSDOF 4
