REMARK  Name = ZINC34755359
REMARK  7 active torsions:
REMARK  status: ('A' for Active; 'I' for Inactive)
REMARK    1  A    between atoms: C_1  and  N_2
REMARK    2  A    between atoms: N_2  and  C_3
REMARK    3  A    between atoms: C_3  and  C_4
REMARK    4  A    between atoms: C_9  and  C_11
REMARK    5  A    between atoms: C_15  and  C_26
REMARK    6  A    between atoms: N_17  and  C_19
REMARK    7  A    between atoms: C_19  and  C_20
REMARK                            x       y       z     vdW  Elec       q    Type
REMARK                         _______ _______ _______ _____ _____    ______ ____
ROOT
ATOM      1  C   UNL     1      -0.124   0.083  -2.467  0.00  0.00    +0.059 C 
ATOM      2  C   UNL     1      -1.246   1.125  -2.434  0.00  0.00    +0.009 C 
ATOM      3  C   UNL     1      -1.311   1.834  -3.790  0.00  0.00    -0.010 C 
ATOM      4  C   UNL     1      -1.519   0.794  -4.893  0.00  0.00    -0.037 C 
ATOM      5  N   UNL     1      -0.401  -0.158  -4.890  0.00  0.00    +0.387 N 
ATOM      6  C   UNL     1      -0.375  -0.892  -3.619  0.00  0.00    -0.065 C 
ATOM      7  H   UNL     1       0.467   0.344  -5.004  0.00  0.00    -0.080 HD
ENDROOT
BRANCH   4   8
ATOM      8  C   UNL     1      -1.583   1.486  -6.230  0.00  0.00    -0.061 A 
ATOM      9  C   UNL     1      -0.417   1.871  -6.865  0.00  0.00    +0.005 A 
ATOM     10  C   UNL     1      -0.475   2.505  -8.092  0.00  0.00    +0.038 A 
ATOM     11  C   UNL     1      -1.701   2.757  -8.683  0.00  0.00    +0.123 A 
ATOM     12  C   UNL     1      -2.868   2.372  -8.046  0.00  0.00    +0.038 A 
ATOM     13  C   UNL     1      -2.808   1.732  -6.822  0.00  0.00    +0.005 A 
ATOM     14  F   UNL     1      -1.759   3.378  -9.882  0.00  0.00    -0.205 F 
ENDBRANCH   4   8
BRANCH   1  17
ATOM     15  C   UNL     1       0.780   1.325  -0.083  0.00  0.00    +0.132 C 
ATOM     16  N   UNL     1       0.376  -0.083  -0.050  0.00  0.00    -0.297 N 
ATOM     17  C   UNL     1      -0.102  -0.673  -1.163  0.00  0.00    +0.217 C 
ATOM     18  O   UNL     1      -0.513  -1.813  -1.116  0.00  0.00    -0.275 OA
BRANCH  16  19
ATOM     19  C   UNL     1       0.492  -0.849   1.193  0.00  0.00    +0.181 C 
BRANCH  19  20
ATOM     20  C   UNL     1      -0.787  -0.725   1.981  0.00  0.00    +0.122 A 
ATOM     21  C   UNL     1      -1.849  -1.544   1.889  0.00  0.00    +0.046 A 
ATOM     22  C   UNL     1      -2.818  -1.062   2.799  0.00  0.00    +0.041 A 
ATOM     23  C   UNL     1      -2.289   0.023   3.392  0.00  0.00    +0.195 A 
ATOM     24  O   UNL     1      -1.057   0.220   2.897  0.00  0.00    -0.466 OA
ENDBRANCH  19  20
ENDBRANCH  16  19
ENDBRANCH   1  17
BRANCH   5  25
ATOM     25  C   UNL     1      -0.565  -1.107  -5.999  0.00  0.00    -0.042 C 
BRANCH  25  26
ATOM     26  C   UNL     1       0.642  -2.007  -6.072  0.00  0.00    -0.064 A 
ATOM     27  C   UNL     1       1.730  -1.642  -6.843  0.00  0.00    +0.002 A 
ATOM     28  C   UNL     1       2.837  -2.467  -6.910  0.00  0.00    +0.000 A 
ATOM     29  C   UNL     1       2.856  -3.657  -6.207  0.00  0.00    +0.000 A 
ATOM     30  C   UNL     1       1.768  -4.021  -5.435  0.00  0.00    +0.000 A 
ATOM     31  C   UNL     1       0.663  -3.194  -5.364  0.00  0.00    +0.002 A 
ENDBRANCH  25  26
ENDBRANCH   5  25
TORSDOF 6
