REMARK  Name = ZINC22241748
REMARK  9 active torsions:
REMARK  status: ('A' for Active; 'I' for Inactive)
REMARK    1  A    between atoms: C_1  and  C_2
REMARK    2  A    between atoms: C_4  and  C_30
REMARK    3  A    between atoms: C_5  and  C_9
REMARK    4  A    between atoms: C_6  and  C_8
REMARK    5  A    between atoms: C_15  and  C_17
REMARK    6  A    between atoms: C_17  and  N_18
REMARK    7  A    between atoms: N_18  and  C_19
REMARK    8  A    between atoms: N_18  and  C_20
REMARK    9  A    between atoms: C_20  and  C_21
REMARK                            x       y       z     vdW  Elec       q    Type
REMARK                         _______ _______ _______ _____ _____    ______ ____
ROOT
ATOM      1  C   UNL     1      12.007  -4.586  -1.071  0.00  0.00    +0.081 A 
ATOM      2  C   UNL     1      11.431  -4.994  -2.242  0.00  0.00    +0.076 A 
ATOM      3  S   UNL     1       9.747  -4.448  -1.990  0.00  0.00    -0.060 S 
ATOM      4  C   UNL     1       9.985  -3.731  -0.370  0.00  0.00    +0.165 A 
ATOM      5  N   UNL     1      11.267  -3.964  -0.165  0.00  0.00    -0.225 NA
ATOM      6  N   UNL     1       9.062  -3.100   0.456  0.00  0.00    -0.266 N 
ATOM      7  C   UNL     1       7.783  -2.960   0.055  0.00  0.00    +0.202 C 
ATOM      8  O   UNL     1       7.437  -3.385  -1.027  0.00  0.00    -0.277 OA
ATOM      9  H   UNL     1       9.377  -2.714   1.437  0.00  0.00    +0.157 HD
ENDROOT
BRANCH   1  14
ATOM     10  C   UNL     1      17.597  -5.560  -0.088  0.00  0.00    +0.044 C 
ATOM     11  C   UNL     1      16.134  -5.305  -0.345  0.00  0.00    -0.050 A 
ATOM     12  C   UNL     1      15.623  -4.027  -0.208  0.00  0.00    +0.007 A 
ATOM     13  C   UNL     1      14.284  -3.788  -0.442  0.00  0.00    -0.041 A 
ATOM     14  C   UNL     1      13.447  -4.837  -0.818  0.00  0.00    +0.007 A 
ATOM     15  C   UNL     1      13.966  -6.123  -0.950  0.00  0.00    -0.041 A 
ATOM     16  C   UNL     1      15.308  -6.350  -0.719  0.00  0.00    +0.007 A 
ATOM     17  C   UNL     1      13.066  -7.264  -1.351  0.00  0.00    +0.044 C 
ATOM     18  C   UNL     1      13.728  -2.395  -0.292  0.00  0.00    +0.044 C 
ENDBRANCH   1  14
BRANCH   7  19
ATOM     19  C   UNL     1       6.783  -2.276   0.951  0.00  0.00    +0.019 C 
BRANCH  19  20
ATOM     20  N   UNL     1       5.471  -2.251   0.291  0.00  0.00    +0.386 N 
ATOM     21  C   UNL     1       5.502  -1.405  -0.909  0.00  0.00    -0.095 C 
ATOM     22  H   UNL     1       5.232  -3.277  -0.025  0.00  0.00    -0.081 HD
BRANCH  20  23
ATOM     23  C   UNL     1       4.423  -1.809   1.220  0.00  0.00    -0.043 C 
BRANCH  23  24
ATOM     24  C   UNL     1       3.070  -2.028   0.593  0.00  0.00    -0.060 A 
ATOM     25  C   UNL     1       2.409  -3.228   0.780  0.00  0.00    +0.005 A 
ATOM     26  C   UNL     1       1.168  -3.434   0.206  0.00  0.00    +0.050 A 
ATOM     27  C   UNL     1       0.584  -2.437  -0.558  0.00  0.00    +0.166 A 
ATOM     28  C   UNL     1       1.250  -1.229  -0.747  0.00  0.00    +0.166 A 
ATOM     29  C   UNL     1       2.493  -1.029  -0.169  0.00  0.00    +0.051 A 
ATOM     30  O   UNL     1       0.476  -0.421  -1.529  0.00  0.00    -0.453 OA
ATOM     31  C   UNL     1      -0.846  -0.990  -1.478  0.00  0.00    +0.466 C 
ATOM     32  O   UNL     1      -0.607  -2.387  -1.222  0.00  0.00    -0.453 OA
ENDBRANCH  23  24
ENDBRANCH  20  23
ENDBRANCH  19  20
ENDBRANCH   7  19
TORSDOF 5
