REMARK  Name = ZINC01002094
REMARK  12 active torsions:
REMARK  status: ('A' for Active; 'I' for Inactive)
REMARK    1  A    between atoms: C_1  and  C_2
REMARK    2  A    between atoms: C_5  and  S_8
REMARK    3  A    between atoms: S_8  and  N_11
REMARK    4  A    between atoms: N_11  and  C_12
REMARK    5  A    between atoms: C_12  and  C_13
REMARK    6  A    between atoms: C_13  and  C_33
REMARK    7  A    between atoms: C_15  and  N_22
REMARK    8  A    between atoms: C_18  and  C_20
REMARK    9  A    between atoms: C_18  and  C_21
REMARK   10  A    between atoms: N_22  and  S_23
REMARK   11  A    between atoms: S_23  and  C_26
REMARK   12  A    between atoms: C_29  and  C_32
REMARK                            x       y       z     vdW  Elec       q    Type
REMARK                         _______ _______ _______ _____ _____    ______ ____
ROOT
ATOM      1  C   UNL     1      -3.281  -5.507  -0.963  0.00  0.00    -0.016 C 
ATOM      2  C   UNL     1      -3.994  -5.236   0.357  0.00  0.00    +0.028 C 
ATOM      3  C   UNL     1      -5.318  -5.994   0.424  0.00  0.00    +0.078 C 
ATOM      4  C   UNL     1      -6.223  -5.506  -0.705  0.00  0.00    +0.026 C 
ATOM      5  C   UNL     1      -5.591  -5.785  -2.064  0.00  0.00    -0.033 C 
ATOM      6  C   UNL     1      -4.171  -5.261  -2.167  0.00  0.00    +0.014 C 
ATOM      7  C   UNL     1      -6.443  -5.065  -3.132  0.00  0.00    +0.011 C 
ATOM      8  C   UNL     1      -5.650  -7.285  -2.370  0.00  0.00    +0.011 C 
ATOM      9  C   UNL     1      -2.720  -6.932  -0.973  0.00  0.00    +0.012 C 
ENDROOT
BRANCH   3  10
ATOM     10  N   UNL     1      -5.965  -5.717   1.713  0.00  0.00    -0.187 NA
ATOM     11  H   UNL     1      -5.865  -4.847   2.130  0.00  0.00    +0.148 HD
BRANCH  10  12
ATOM     12  S   UNL     1      -6.868  -6.891   2.455  0.00  0.00    +0.059 S 
ATOM     13  O   UNL     1      -7.332  -6.334   3.678  0.00  0.00    -0.153 OA
ATOM     14  O   UNL     1      -7.751  -7.408   1.470  0.00  0.00    -0.153 OA
BRANCH  12  15
ATOM     15  C   UNL     1      -5.769  -8.200   2.883  0.00  0.00    +0.105 A 
ATOM     16  C   UNL     1      -5.543  -9.232   1.992  0.00  0.00    +0.029 A 
ATOM     17  C   UNL     1      -4.678 -10.257   2.326  0.00  0.00    +0.005 A 
ATOM     18  C   UNL     1      -4.045 -10.254   3.555  0.00  0.00    -0.050 A 
ATOM     19  C   UNL     1      -4.274  -9.224   4.448  0.00  0.00    +0.005 A 
ATOM     20  C   UNL     1      -5.136  -8.197   4.112  0.00  0.00    +0.029 A 
ATOM     21  C   UNL     1      -3.105 -11.374   3.922  0.00  0.00    +0.044 C 
ENDBRANCH  12  15
ENDBRANCH  10  12
ENDBRANCH   3  10
BRANCH   1  22
ATOM     22  C   UNL     1      -2.080  -4.540  -1.053  0.00  0.00    +0.112 C 
BRANCH  22  23
ATOM     23  N   UNL     1      -1.197  -4.750   0.097  0.00  0.00    -0.189 NA
ATOM     24  H   UNL     1      -1.512  -5.250   0.865  0.00  0.00    +0.148 HD
BRANCH  23  25
ATOM     25  S   UNL     1       0.340  -4.133   0.084  0.00  0.00    +0.058 S 
ATOM     26  O   UNL     1       0.918  -4.508  -1.159  0.00  0.00    -0.153 OA
ATOM     27  O   UNL     1       0.926  -4.476   1.332  0.00  0.00    -0.153 OA
BRANCH  25  32
ATOM     28  C   UNL     1      -0.153   1.881   0.009  0.00  0.00    +0.044 C 
ATOM     29  C   UNL     1      -0.030   0.379   0.028  0.00  0.00    -0.050 A 
ATOM     30  C   UNL     1       0.017  -0.326  -1.161  0.00  0.00    +0.005 A 
ATOM     31  C   UNL     1       0.135  -1.703  -1.144  0.00  0.00    +0.029 A 
ATOM     32  C   UNL     1       0.196  -2.377   0.062  0.00  0.00    +0.105 A 
ATOM     33  C   UNL     1       0.143  -1.673   1.250  0.00  0.00    +0.029 A 
ATOM     34  C   UNL     1       0.030  -0.295   1.233  0.00  0.00    +0.005 A 
ENDBRANCH  25  32
ENDBRANCH  23  25
ENDBRANCH  22  23
ENDBRANCH   1  22
TORSDOF 7
