REMARK  Name = ZINC09051196
REMARK  11 active torsions:
REMARK  status: ('A' for Active; 'I' for Inactive)
REMARK    1  A    between atoms: C_1  and  O_2
REMARK    2  A    between atoms: O_2  and  C_3
REMARK    3  A    between atoms: C_3  and  C_4
REMARK    4  A    between atoms: C_4  and  N_5
REMARK    5  A    between atoms: C_6  and  C_8
REMARK    6  A    between atoms: C_12  and  N_13
REMARK    7  A    between atoms: C_14  and  C_16
REMARK    8  A    between atoms: C_16  and  S_17
REMARK    9  A    between atoms: S_17  and  C_18
REMARK   10  A    between atoms: C_22  and  C_24
REMARK   11  A    between atoms: C_24  and  C_25
REMARK                            x       y       z     vdW  Elec       q    Type
REMARK                         _______ _______ _______ _____ _____    ______ ____
ROOT
ATOM      1  N   UNL     1       5.856   3.818  -0.033  0.00  0.00    -0.279 N 
ATOM      2  C   UNL     1       5.048   2.739  -0.030  0.00  0.00    +0.228 C 
ATOM      3  O   UNL     1       5.525   1.624  -0.040  0.00  0.00    -0.275 OA
ATOM      4  H   UNL     1       5.474   4.710  -0.025  0.00  0.00    +0.155 HD
ENDROOT
BRANCH   1   9
ATOM      5  C   UNL     1       8.218   4.630  -0.056  0.00  0.00    +0.069 A 
ATOM      6  C   UNL     1       9.602   4.188  -0.066  0.00  0.00    -0.023 A 
ATOM      7  C   UNL     1       9.778   2.849  -0.075  0.00  0.00    -0.004 A 
ATOM      8  S   UNL     1       8.140   2.177  -0.062  0.00  0.00    -0.077 S 
ATOM      9  C   UNL     1       7.233   3.653  -0.046  0.00  0.00    +0.084 A 
ATOM     10  C   UNL     1      11.080   2.109  -0.092  0.00  0.00    +0.043 C 
ATOM     11  C   UNL     1      12.192   3.096  -0.476  0.00  0.00    +0.005 C 
ATOM     12  C   UNL     1      12.040   4.364   0.368  0.00  0.00    +0.005 C 
ATOM     13  C   UNL     1      10.795   5.136  -0.072  0.00  0.00    +0.037 C 
BRANCH   5  15
ATOM     14  N   UNL     1       7.705   6.711  -1.218  0.00  0.00    -0.309 N 
ATOM     15  C   UNL     1       7.875   6.056  -0.052  0.00  0.00    +0.247 C 
ATOM     16  O   UNL     1       7.744   6.648   1.003  0.00  0.00    -0.270 OA
ATOM     17  H   UNL     1       7.810   6.239  -2.059  0.00  0.00    +0.149 HD
BRANCH  14  18
ATOM     18  C   UNL     1       7.363   8.136  -1.214  0.00  0.00    +0.132 C 
BRANCH  18  19
ATOM     19  C   UNL     1       7.228   8.631  -2.655  0.00  0.00    +0.178 C 
BRANCH  19  21
ATOM     20  C   UNL     1       5.908   8.372  -4.639  0.00  0.00    +0.194 C 
ATOM     21  O   UNL     1       6.123   7.978  -3.282  0.00  0.00    -0.381 OA
ENDBRANCH  19  21
ENDBRANCH  18  19
ENDBRANCH  14  18
ENDBRANCH   5  15
ENDBRANCH   1   9
BRANCH   2  22
ATOM     22  C   UNL     1       3.552   2.918  -0.016  0.00  0.00    +0.173 C 
BRANCH  22  23
ATOM     23  S   UNL     1       2.750   1.296  -0.016  0.00  0.00    -0.077 S 
BRANCH  23  24
ATOM     24  C   UNL     1       1.059   1.790   0.002  0.00  0.00    +0.185 A 
ATOM     25  N   UNL     1      -0.011   0.966   0.007  0.00  0.00    -0.254 N 
ATOM     26  H   UNL     1       0.002  -0.004   0.002  0.00  0.00    +0.191 HD
ATOM     27  N   UNL     1      -1.146   1.792   0.017  0.00  0.00    -0.156 NA
ATOM     28  C   UNL     1      -0.720   3.027   0.024  0.00  0.00    +0.157 A 
ATOM     29  N   UNL     1       0.613   3.029   0.012  0.00  0.00    -0.205 NA
BRANCH  28  30
ATOM     30  C   UNL     1      -1.596   4.253   0.037  0.00  0.00    +0.120 C 
BRANCH  30  31
ATOM     31  C   UNL     1      -1.901   4.668  -1.379  0.00  0.00    -0.003 A 
ATOM     32  C   UNL     1      -2.927   4.287  -2.178  0.00  0.00    +0.011 A 
ATOM     33  C   UNL     1      -3.010   4.806  -3.456  0.00  0.00    +0.008 A 
ATOM     34  C   UNL     1      -2.055   5.672  -3.877  0.00  0.00    +0.045 A 
ATOM     35  S   UNL     1      -0.999   5.784  -2.442  0.00  0.00    -0.101 S 
ENDBRANCH  30  31
ENDBRANCH  28  30
ENDBRANCH  23  24
ENDBRANCH  22  23
ENDBRANCH   2  22
TORSDOF 10
