REMARK  Name = ZINC01515798
REMARK  5 active torsions:
REMARK  status: ('A' for Active; 'I' for Inactive)
REMARK    1  A    between atoms: C_1  and  C_2
REMARK    2  A    between atoms: C_2  and  C_23
REMARK    3  A    between atoms: N_9  and  C_22
REMARK    4  A    between atoms: C_15  and  C_20
REMARK    5  A    between atoms: C_20  and  O_21
REMARK                            x       y       z     vdW  Elec       q    Type
REMARK                         _______ _______ _______ _____ _____    ______ ____
ROOT
ATOM      1  C   UNL     1      -2.830   4.746   1.122  0.00  0.00    +0.022 C 
ATOM      2  C   UNL     1      -2.637   3.660   0.062  0.00  0.00    +0.053 C 
ATOM      3  C   UNL     1      -1.209   3.186   0.036  0.00  0.00    -0.015 A 
ATOM      4  C   UNL     1      -0.035   3.913   0.028  0.00  0.00    +0.006 A 
ATOM      5  C   UNL     1       1.154   3.193   0.009  0.00  0.00    +0.000 A 
ATOM      6  C   UNL     1       1.161   1.813   0.001  0.00  0.00    +0.002 A 
ATOM      7  C   UNL     1      -0.013   1.076   0.008  0.00  0.00    +0.023 A 
ATOM      8  C   UNL     1      -1.215   1.787   0.017  0.00  0.00    +0.036 A 
ATOM      9  N   UNL     1      -2.512   1.291   0.019  0.00  0.00    -0.291 N 
ATOM     10  C   UNL     1      -3.414   2.381   0.441  0.00  0.00    +0.207 C 
ATOM     11  C   UNL     1      -4.703   2.317  -0.325  0.00  0.00    +0.042 C 
ATOM     12  C   UNL     1      -5.819   2.813   0.210  0.00  0.00    +0.013 C 
ATOM     13  C   UNL     1      -5.737   3.404   1.563  0.00  0.00    +0.017 A 
ATOM     14  C   UNL     1      -6.752   4.216   2.059  0.00  0.00    +0.017 A 
ATOM     15  C   UNL     1      -6.640   4.749   3.328  0.00  0.00    -0.021 A 
ATOM     16  C   UNL     1      -5.526   4.478   4.104  0.00  0.00    +0.009 A 
ATOM     17  C   UNL     1      -4.511   3.672   3.619  0.00  0.00    +0.047 A 
ATOM     18  C   UNL     1      -4.609   3.132   2.350  0.00  0.00    +0.131 A 
ATOM     19  O   UNL     1      -3.630   2.336   1.846  0.00  0.00    -0.463 OA
ATOM     20  C   UNL     1      -2.635   0.130   0.911  0.00  0.00    +0.133 C 
ATOM     21  C   UNL     1      -3.065   4.165  -1.318  0.00  0.00    +0.022 C 
ENDROOT
BRANCH  15  22
ATOM     22  C   UNL     1      -7.736   5.629   3.872  0.00  0.00    +0.191 C 
BRANCH  22  23
ATOM     23  O   UNL     1      -8.700   4.823   4.553  0.00  0.00    -0.390 OA
ATOM     24  H   UNL     1      -9.436   5.325   4.929  0.00  0.00    +0.210 HD
ENDBRANCH  22  23
ENDBRANCH  15  22
TORSDOF 2
