REMARK  Name = ZINC66985605
REMARK  3 active torsions:
REMARK  status: ('A' for Active; 'I' for Inactive)
REMARK    1  A    between atoms: C_3  and  N_8
REMARK    2  A    between atoms: N_16  and  C_17
REMARK    3  A    between atoms: C_17  and  C_18
REMARK                            x       y       z     vdW  Elec       q    Type
REMARK                         _______ _______ _______ _____ _____    ______ ____
ROOT
ATOM      1  N   UNL     1       3.588   2.006  -0.031  0.00  0.00    -0.312 N 
ATOM      2  C   UNL     1       4.851   1.255  -0.044  0.00  0.00    +0.125 C 
ATOM      3  C   UNL     1       5.687   1.723  -1.242  0.00  0.00    +0.128 C 
ATOM      4  N   UNL     1       5.736   3.192  -1.235  0.00  0.00    -0.283 N 
ATOM      5  C   UNL     1       4.473   3.943  -1.221  0.00  0.00    +0.128 C 
ATOM      6  C   UNL     1       3.637   3.474  -0.029  0.00  0.00    +0.125 C 
ATOM      7  C   UNL     1       6.918   3.839  -1.240  0.00  0.00    +0.302 C 
ATOM      8  O   UNL     1       7.954   3.211  -1.347  0.00  0.00    -0.253 OA
ATOM      9  N   UNL     1       6.953   5.181  -1.126  0.00  0.00    -0.299 N 
ATOM     10  H   UNL     1       6.133   5.676  -0.966  0.00  0.00    +0.150 HD
ENDROOT
BRANCH   1  13
ATOM     11  C   UNL     1      -0.023   1.391  -0.012  0.00  0.00    +0.025 A 
ATOM     12  C   UNL     1       1.184   2.067  -0.016  0.00  0.00    +0.045 A 
ATOM     13  C   UNL     1       2.368   1.338  -0.026  0.00  0.00    +0.121 A 
ATOM     14  N   UNL     1       2.345   0.014  -0.030  0.00  0.00    -0.239 NA
ATOM     15  C   UNL     1       1.209  -0.658  -0.026  0.00  0.00    +0.132 A 
ATOM     16  C   UNL     1      -0.004   0.002  -0.016  0.00  0.00    +0.059 A 
ATOM     17 CL   UNL     1      -1.491  -0.895  -0.010  0.00  0.00    -0.082 Cl
ENDBRANCH   1  13
BRANCH   9  18
ATOM     18  C   UNL     1       8.227   5.894  -1.245  0.00  0.00    +0.109 C 
BRANCH  18  19
ATOM     19  C   UNL     1       7.988   7.396  -1.079  0.00  0.00    +0.010 C 
ATOM     20  C   UNL     1       9.332   8.136  -1.088  0.00  0.00    +0.009 C 
ATOM     21  C   UNL     1       9.078   9.605  -0.743  0.00  0.00    +0.027 C 
ATOM     22  C   UNL     1       7.967  10.151  -1.591  0.00  0.00    -0.031 C 
ATOM     23  C   UNL     1       7.122   9.415  -2.240  0.00  0.00    -0.031 C 
ATOM     24  C   UNL     1       7.138   7.914  -2.241  0.00  0.00    +0.032 C 
ENDBRANCH  18  19
ENDBRANCH   9  18
TORSDOF 3
