REMARK  Name = ZINC06703835
REMARK  7 active torsions:
REMARK  status: ('A' for Active; 'I' for Inactive)
REMARK    1  A    between atoms: C_1  and  C_2
REMARK    2  A    between atoms: C_2  and  C_3
REMARK    3  A    between atoms: C_2  and  C_4
REMARK    4  A    between atoms: C_2  and  C_5
REMARK    5  A    between atoms: C_8  and  C_11
REMARK    6  A    between atoms: C_14  and  C_16
REMARK    7  A    between atoms: C_19  and  N_22
REMARK                            x       y       z     vdW  Elec       q    Type
REMARK                         _______ _______ _______ _____ _____    ______ ____
ROOT
ATOM      1  C   UNL     1      -4.598   0.491   0.026  0.00  0.00    +0.249 A 
ATOM      2  N   UNL     1      -3.880  -0.609   0.016  0.00  0.00    -0.107 NA
ATOM      3  N   UNL     1      -2.630  -0.302   0.007  0.00  0.00    -0.107 NA
ATOM      4  C   UNL     1      -2.501   1.006   0.019  0.00  0.00    +0.249 A 
ATOM      5  O   UNL     1      -3.742   1.534   0.028  0.00  0.00    -0.416 OA
ENDROOT
BRANCH   1   9
ATOM      6  C   UNL     1      -8.839   0.720   0.048  0.00  0.00    -0.042 A 
ATOM      7  C   UNL     1      -8.216  -0.515   0.036  0.00  0.00    +0.005 A 
ATOM      8  C   UNL     1      -6.839  -0.597   0.029  0.00  0.00    +0.013 A 
ATOM      9  C   UNL     1      -6.074   0.571   0.033  0.00  0.00    +0.039 A 
ATOM     10  C   UNL     1      -6.708   1.814   0.050  0.00  0.00    +0.013 A 
ATOM     11  C   UNL     1      -8.086   1.881   0.051  0.00  0.00    +0.005 A 
BRANCH   6  13
ATOM     12  C   UNL     1     -10.885   0.102   1.304  0.00  0.00    +0.015 C 
ATOM     13  C   UNL     1     -10.344   0.802   0.056  0.00  0.00    -0.013 C 
ATOM     14  C   UNL     1     -10.775   2.270   0.068  0.00  0.00    +0.015 C 
ATOM     15  C   UNL     1     -10.899   0.117  -1.194  0.00  0.00    +0.015 C 
ENDBRANCH   6  13
ENDBRANCH   1   9
BRANCH   4  16
ATOM     16  C   UNL     1      -1.232   1.759   0.017  0.00  0.00    +0.039 A 
ATOM     17  C   UNL     1      -0.013   1.076   0.008  0.00  0.00    +0.015 A 
ATOM     18  C   UNL     1       1.170   1.781   0.001  0.00  0.00    +0.023 A 
ATOM     19  C   UNL     1       1.152   3.172   0.008  0.00  0.00    +0.025 A 
ATOM     20  C   UNL     1      -0.059   3.855   0.022  0.00  0.00    +0.023 A 
ATOM     21  C   UNL     1      -1.246   3.156   0.030  0.00  0.00    +0.015 A 
BRANCH  19  22
ATOM     22  N   UNL     1       2.352   3.884  -0.001  0.00  0.00    -0.358 N 
ATOM     23  H   UNL     1       3.197   3.408  -0.011  0.00  0.00    +0.142 HD
ATOM     24  H   UNL     1       2.340   4.853   0.004  0.00  0.00    +0.142 HD
ENDBRANCH  19  22
ENDBRANCH   4  16
TORSDOF 4
