REMARK  Name = ZINC09193769
REMARK  5 active torsions:
REMARK  status: ('A' for Active; 'I' for Inactive)
REMARK    1  A    between atoms: C_1  and  C_2
REMARK    2  A    between atoms: C_2  and  O_3
REMARK    3  A    between atoms: O_3  and  C_4
REMARK    4  A    between atoms: C_4  and  C_6
REMARK    5  A    between atoms: C_10  and  N_11
REMARK                            x       y       z     vdW  Elec       q    Type
REMARK                         _______ _______ _______ _____ _____    ______ ____
ROOT
ATOM      1  C   UNL     1      -0.451   4.986  -1.439  0.00  0.00    +0.091 A 
ATOM      2  C   UNL     1      -0.356   3.595  -1.297  0.00  0.00    -0.012 A 
ATOM      3  C   UNL     1      -1.095   3.069  -0.275  0.00  0.00    +0.080 A 
ATOM      4  S   UNL     1      -1.875   4.451   0.495  0.00  0.00    -0.068 S 
ATOM      5  C   UNL     1      -1.249   5.699  -0.537  0.00  0.00    +0.078 A 
ATOM      6  C   UNL     1      -1.190   1.642   0.017  0.00  0.00    +0.251 C 
ATOM      7  O   UNL     1      -2.252   1.096   0.256  0.00  0.00    -0.270 OA
ATOM      8  N   UNL     1      -0.011   0.966   0.007  0.00  0.00    -0.311 N 
ATOM      9  C   UNL     1       1.228   1.722  -0.000  0.00  0.00    +0.105 C 
ATOM     10  C   UNL     1       1.686   2.157  -1.394  0.00  0.00    +0.023 C 
ATOM     11  C   UNL     1       0.498   2.712  -2.183  0.00  0.00    +0.039 C 
ATOM     12  H   UNL     1       0.002  -0.004   0.002  0.00  0.00    +0.149 HD
ENDROOT
BRANCH   5  13
ATOM     13  N   UNL     1      -1.481   7.054  -0.482  0.00  0.00    -0.352 N 
ATOM     14  H   UNL     1      -2.062   7.419   0.203  0.00  0.00    +0.143 HD
ATOM     15  H   UNL     1      -1.062   7.644  -1.129  0.00  0.00    +0.143 HD
ENDBRANCH   5  13
BRANCH   1  16
ATOM     16  C   UNL     1       0.271   5.680  -2.510  0.00  0.00    +0.342 C 
ATOM     17  O   UNL     1      -0.259   5.846  -3.592  0.00  0.00    -0.245 OA
BRANCH  16  18
ATOM     18  O   UNL     1       1.523   6.134  -2.295  0.00  0.00    -0.461 OA
BRANCH  18  20
ATOM     19  C   UNL     1       3.578   7.251  -2.971  0.00  0.00    +0.048 C 
ATOM     20  C   UNL     1       2.177   6.811  -3.400  0.00  0.00    +0.229 C 
ENDBRANCH  18  20
ENDBRANCH  16  18
ENDBRANCH   1  16
TORSDOF 4
