REMARK  Name = ZINC09925100
REMARK  9 active torsions:
REMARK  status: ('A' for Active; 'I' for Inactive)
REMARK    1  A    between atoms: C_1  and  C_2
REMARK    2  A    between atoms: C_7  and  N_8
REMARK    3  A    between atoms: C_11  and  C_16
REMARK    4  A    between atoms: C_16  and  S_17
REMARK    5  A    between atoms: S_17  and  C_18
REMARK    6  A    between atoms: C_21  and  C_31
REMARK    7  A    between atoms: N_22  and  C_23
REMARK    8  A    between atoms: C_26  and  O_29
REMARK    9  A    between atoms: O_29  and  C_30
REMARK                            x       y       z     vdW  Elec       q    Type
REMARK                         _______ _______ _______ _____ _____    ______ ____
ROOT
ATOM      1  S   UNL     1      -3.844  -3.448   0.578  0.00  0.00    -0.078 S 
ENDROOT
BRANCH   1   2
ATOM      2  C   UNL     1      -3.279  -1.817   0.225  0.00  0.00    +0.197 A 
ATOM      3  N   UNL     1      -3.996  -0.833  -0.274  0.00  0.00    -0.122 NA
ATOM      4  N   UNL     1      -3.272   0.220  -0.404  0.00  0.00    -0.128 NA
ATOM      5  C   UNL     1      -2.047  -0.024   0.003  0.00  0.00    +0.169 A 
ATOM      6  N   UNL     1      -2.013  -1.339   0.414  0.00  0.00    -0.270 N 
BRANCH   6   7
ATOM      7  C   UNL     1      -0.909  -2.039   0.924  0.00  0.00    +0.051 A 
ATOM      8  C   UNL     1       0.171  -2.328   0.100  0.00  0.00    +0.030 A 
ATOM      9  C   UNL     1       1.259  -3.012   0.604  0.00  0.00    +0.047 A 
ATOM     10  C   UNL     1       1.269  -3.421   1.929  0.00  0.00    +0.120 A 
ATOM     11  C   UNL     1       0.188  -3.138   2.751  0.00  0.00    +0.047 A 
ATOM     12  C   UNL     1      -0.898  -2.449   2.250  0.00  0.00    +0.030 A 
BRANCH  10  13
ATOM     13  O   UNL     1       2.339  -4.099   2.423  0.00  0.00    -0.495 OA
ATOM     14  C   UNL     1       3.417  -4.356   1.521  0.00  0.00    +0.277 C 
ENDBRANCH  10  13
ENDBRANCH   6   7
BRANCH   5  15
ATOM     15  C   UNL     1      -0.918   0.929   0.012  0.00  0.00    +0.022 A 
ATOM     16  C   UNL     1       0.230   0.677   0.774  0.00  0.00    +0.031 A 
ATOM     17  C   UNL     1       1.260   1.594   0.753  0.00  0.00    +0.111 A 
ATOM     18  N   UNL     1       1.173   2.695   0.029  0.00  0.00    -0.263 NA
ATOM     19  C   UNL     1       0.110   2.970  -0.702  0.00  0.00    +0.111 A 
ATOM     20  C   UNL     1      -0.966   2.109  -0.740  0.00  0.00    +0.031 A 
ENDBRANCH   5  15
ENDBRANCH   1   2
BRANCH   1  21
ATOM     21  C   UNL     1      -5.573  -3.300   0.064  0.00  0.00    +0.153 C 
BRANCH  21  25
ATOM     22  N   UNL     1      -8.113  -6.279   2.839  0.00  0.00    -0.283 N 
ATOM     23  C   UNL     1      -7.493  -6.022   1.632  0.00  0.00    +0.224 A 
ATOM     24  N   UNL     1      -6.870  -4.861   1.436  0.00  0.00    -0.198 NA
ATOM     25  C   UNL     1      -6.276  -4.614   0.282  0.00  0.00    +0.146 A 
ATOM     26  N   UNL     1      -6.302  -5.516  -0.685  0.00  0.00    -0.199 NA
ATOM     27  C   UNL     1      -6.918  -6.681  -0.494  0.00  0.00    +0.217 A 
ATOM     28  N   UNL     1      -7.516  -6.932   0.665  0.00  0.00    -0.181 NA
ATOM     29  N   UNL     1      -6.939  -7.623  -1.502  0.00  0.00    -0.327 N 
ATOM     30  H   UNL     1      -8.022  -5.652   3.574  0.00  0.00    +0.155 HD
ATOM     31  H   UNL     1      -7.391  -8.470  -1.364  0.00  0.00    +0.145 HD
ATOM     32  H   UNL     1      -6.502  -7.439  -2.348  0.00  0.00    +0.145 HD
BRANCH  22  39
ATOM     33  C   UNL     1      -8.318  -7.396   5.448  0.00  0.00    +0.045 C 
ATOM     34  C   UNL     1      -8.998  -8.021   4.257  0.00  0.00    -0.029 A 
ATOM     35  C   UNL     1      -9.749  -9.169   4.414  0.00  0.00    +0.005 A 
ATOM     36  C   UNL     1     -10.374  -9.743   3.322  0.00  0.00    +0.000 A 
ATOM     37  C   UNL     1     -10.250  -9.169   2.070  0.00  0.00    +0.002 A 
ATOM     38  C   UNL     1      -9.506  -8.018   1.907  0.00  0.00    +0.023 A 
ATOM     39  C   UNL     1      -8.872  -7.442   3.001  0.00  0.00    +0.036 A 
ENDBRANCH  22  39
ENDBRANCH  21  25
ENDBRANCH   1  21
TORSDOF 7
