REMARK  Name = ZINC22988716
REMARK  8 active torsions:
REMARK  status: ('A' for Active; 'I' for Inactive)
REMARK    1  A    between atoms: C_1  and  C_2
REMARK    2  A    between atoms: C_6  and  C_8
REMARK    3  A    between atoms: C_11  and  C_13
REMARK    4  A    between atoms: C_13  and  C_15
REMARK    5  A    between atoms: C_13  and  O_16
REMARK    6  A    between atoms: O_16  and  C_17
REMARK    7  A    between atoms: C_17  and  C_19
REMARK    8  A    between atoms: C_24  and  N_25
REMARK                            x       y       z     vdW  Elec       q    Type
REMARK                         _______ _______ _______ _____ _____    ______ ____
ROOT
ATOM      1  C   UNL     1      -1.203  -0.952   0.051  0.00  0.00    +0.261 C 
ATOM      2  C   UNL     1      -1.401  -1.575   1.435  0.00  0.00    +0.062 C 
ENDROOT
BRANCH   1   6
ATOM      3  C   UNL     1       1.306   1.662   0.102  0.00  0.00    +0.249 A 
ATOM      4  N   UNL     1       2.032   0.569   0.089  0.00  0.00    -0.107 NA
ATOM      5  N   UNL     1       1.256  -0.456   0.071  0.00  0.00    -0.108 NA
ATOM      6  C   UNL     1       0.013  -0.062   0.070  0.00  0.00    +0.258 A 
ATOM      7  O   UNL     1       0.012   1.282   0.090  0.00  0.00    -0.416 OA
BRANCH   3  13
ATOM      8  C   UNL     1       5.134   4.862   0.165  0.00  0.00    +0.044 C 
ATOM      9  C   UNL     1       3.651   4.595   0.154  0.00  0.00    -0.050 A 
ATOM     10  C   UNL     1       2.759   5.653   0.164  0.00  0.00    +0.003 A 
ATOM     11  C   UNL     1       1.396   5.416   0.154  0.00  0.00    +0.001 A 
ATOM     12  C   UNL     1       0.917   4.122   0.129  0.00  0.00    +0.013 A 
ATOM     13  C   UNL     1       1.812   3.051   0.124  0.00  0.00    +0.039 A 
ATOM     14  C   UNL     1       3.185   3.297   0.134  0.00  0.00    +0.016 A 
ENDBRANCH   3  13
ENDBRANCH   1   6
BRANCH   1  15
ATOM     15  O   UNL     1      -1.017  -2.005  -0.931  0.00  0.00    -0.448 OA
BRANCH  15  16
ATOM     16  C   UNL     1      -2.124  -2.485  -1.532  0.00  0.00    +0.342 C 
ATOM     17  O   UNL     1      -3.216  -2.035  -1.242  0.00  0.00    -0.245 OA
BRANCH  16  18
ATOM     18  C   UNL     1      -2.011  -3.552  -2.538  0.00  0.00    +0.080 A 
ATOM     19  C   UNL     1      -0.752  -3.987  -2.965  0.00  0.00    +0.019 A 
ATOM     20  C   UNL     1      -0.653  -4.986  -3.906  0.00  0.00    +0.039 A 
ATOM     21  C   UNL     1      -1.798  -5.567  -4.435  0.00  0.00    +0.125 A 
ATOM     22  C   UNL     1      -3.049  -5.149  -4.023  0.00  0.00    +0.061 A 
ATOM     23  C   UNL     1      -3.168  -4.145  -3.071  0.00  0.00    +0.041 A 
ATOM     24  F   UNL     1      -1.688  -6.548  -5.358  0.00  0.00    -0.205 F 
BRANCH  23  25
ATOM     25  N   UNL     1      -4.423  -3.727  -2.651  0.00  0.00    -0.357 N 
ATOM     26  H   UNL     1      -5.327  -4.193  -3.071  0.00  0.00    +0.142 HD
ATOM     27  H   UNL     1      -4.514  -2.929  -1.899  0.00  0.00    +0.142 HD
ENDBRANCH  23  25
ENDBRANCH  16  18
ENDBRANCH  15  16
ENDBRANCH   1  15
TORSDOF 6
