REMARK  Name = ZINC35462892
REMARK  5 active torsions:
REMARK  status: ('A' for Active; 'I' for Inactive)
REMARK    1  A    between atoms: C_1  and  N_2
REMARK    2  A    between atoms: N_2  and  C_3
REMARK    3  A    between atoms: C_3  and  C_5
REMARK    4  A    between atoms: C_3  and  C_12
REMARK    5  A    between atoms: C_17  and  C_18
REMARK                            x       y       z     vdW  Elec       q    Type
REMARK                         _______ _______ _______ _____ _____    ______ ____
ROOT
ATOM      1  C   UNL     1       0.735  -0.470   1.189  0.00  0.00    -0.010 C 
ENDROOT
BRANCH   1   2
ATOM      2  C   UNL     1       0.556  -0.291   2.674  0.00  0.00    -0.057 A 
ATOM      3  C   UNL     1      -0.697  -0.432   3.241  0.00  0.00    +0.003 A 
ATOM      4  C   UNL     1      -0.862  -0.269   4.604  0.00  0.00    +0.015 A 
ATOM      5  C   UNL     1       0.227   0.037   5.400  0.00  0.00    +0.018 A 
ATOM      6  C   UNL     1       1.481   0.179   4.832  0.00  0.00    +0.015 A 
ATOM      7  C   UNL     1       1.645   0.010   3.470  0.00  0.00    +0.003 A 
ATOM      8 BR   UNL     1       0.002   0.262   7.264  0.00  0.00    -0.050 Br
ENDBRANCH   1   2
BRANCH   1   9
ATOM      9  C   UNL     1       0.413  -1.893   0.812  0.00  0.00    -0.046 A 
ATOM     10  C   UNL     1      -0.874  -2.236   0.441  0.00  0.00    +0.003 A 
ATOM     11  C   UNL     1      -1.169  -3.541   0.096  0.00  0.00    +0.000 A 
ATOM     12  C   UNL     1      -0.177  -4.504   0.120  0.00  0.00    +0.001 A 
ATOM     13  C   UNL     1       1.110  -4.161   0.490  0.00  0.00    +0.012 A 
ATOM     14  C   UNL     1       1.406  -2.854   0.831  0.00  0.00    +0.057 A 
BRANCH  14  15
ATOM     15  C   UNL     1       2.810  -2.479   1.229  0.00  0.00    +0.418 C 
ATOM     16  F   UNL     1       3.654  -3.582   1.058  0.00  0.00    -0.166 F 
ATOM     17  F   UNL     1       3.256  -1.423   0.428  0.00  0.00    -0.166 F 
ATOM     18  F   UNL     1       2.825  -2.085   2.571  0.00  0.00    -0.166 F 
ENDBRANCH  14  15
ENDBRANCH   1   9
BRANCH   1  20
ATOM     19  C   UNL     1       0.223   1.832   0.747  0.00  0.00    -0.099 C 
ATOM     20  N   UNL     1      -0.167   0.442   0.473  0.00  0.00    +0.384 N 
ATOM     21  H   UNL     1      -1.115   0.291   0.785  0.00  0.00    -0.085 HD
ATOM     22  H   UNL     1      -0.107   0.265  -0.518  0.00  0.00    -0.085 HD
ENDBRANCH   1  20
TORSDOF 4
