REMARK  Name = ZINC21783001
REMARK  13 active torsions:
REMARK  status: ('A' for Active; 'I' for Inactive)
REMARK    1  A    between atoms: C_1  and  C_2
REMARK    2  A    between atoms: C_2  and  O_3
REMARK    3  A    between atoms: O_3  and  C_4
REMARK    4  A    between atoms: C_7  and  C_13
REMARK    5  A    between atoms: C_9  and  O_10
REMARK    6  A    between atoms: O_10  and  C_11
REMARK    7  A    between atoms: C_11  and  C_12
REMARK    8  A    between atoms: C_16  and  C_31
REMARK    9  A    between atoms: N_23  and  C_24
REMARK   10  A    between atoms: C_24  and  C_25
REMARK   11  A    between atoms: C_32  and  C_39
REMARK   12  A    between atoms: C_34  and  C_38
REMARK   13  A    between atoms: C_36  and  O_37
REMARK                            x       y       z     vdW  Elec       q    Type
REMARK                         _______ _______ _______ _____ _____    ______ ____
ROOT
ATOM      1  C   UNL     1       1.149  -6.085   1.780  0.00  0.00    +0.141 C 
ATOM      2  C   UNL     1       2.140  -6.620   0.783  0.00  0.00    +0.035 A 
ATOM      3  C   UNL     1       3.457  -6.618   0.312  0.00  0.00    +0.102 A 
ATOM      4  N   UNL     1       3.514  -7.453  -0.707  0.00  0.00    -0.173 NA
ATOM      5  N   UNL     1       2.363  -7.983  -0.925  0.00  0.00    -0.272 N 
ATOM      6  H   UNL     1       2.170  -8.627  -1.625  0.00  0.00    +0.189 HD
ATOM      7  C   UNL     1       1.453  -7.505  -0.026  0.00  0.00    +0.126 A 
ATOM      8  C   UNL     1       0.055  -7.554   0.419  0.00  0.00    +0.266 C 
ATOM      9  O   UNL     1      -0.811  -8.240  -0.089  0.00  0.00    -0.268 OA
ATOM     10  N   UNL     1      -0.132  -6.733   1.469  0.00  0.00    -0.283 N 
ENDROOT
BRANCH   3  11
ATOM     11  C   UNL     1       4.584  -5.821   0.857  0.00  0.00    +0.047 A 
ATOM     12  C   UNL     1       5.385  -5.066   0.004  0.00  0.00    -0.037 A 
ATOM     13  C   UNL     1       6.431  -4.326   0.516  0.00  0.00    +0.007 A 
ATOM     14  C   UNL     1       6.689  -4.332   1.876  0.00  0.00    -0.047 A 
ATOM     15  C   UNL     1       5.901  -5.078   2.731  0.00  0.00    +0.049 A 
ATOM     16  C   UNL     1       4.843  -5.820   2.231  0.00  0.00    +0.127 A 
ATOM     17  C   UNL     1       7.834  -3.521   2.426  0.00  0.00    +0.044 C 
ATOM     18  C   UNL     1       5.108  -5.056  -1.478  0.00  0.00    +0.044 C 
BRANCH  16  19
ATOM     19  O   UNL     1       4.064  -6.549   3.072  0.00  0.00    -0.506 OA
ATOM     20  H   UNL     1       4.417  -7.426   3.274  0.00  0.00    +0.292 HD
ENDBRANCH  16  19
ENDBRANCH   3  11
BRANCH   1  24
ATOM     21  C   UNL     1       0.789  -1.844   1.364  0.00  0.00    +0.162 A 
ATOM     22  C   UNL     1       0.335  -2.683   0.359  0.00  0.00    +0.050 A 
ATOM     23  C   UNL     1       0.453  -4.053   0.496  0.00  0.00    +0.009 A 
ATOM     24  C   UNL     1       1.023  -4.591   1.635  0.00  0.00    -0.019 A 
ATOM     25  C   UNL     1       1.478  -3.760   2.642  0.00  0.00    +0.055 A 
ATOM     26  C   UNL     1       1.369  -2.385   2.508  0.00  0.00    +0.162 A 
BRANCH  21  27
ATOM     27  O   UNL     1       0.674  -0.496   1.230  0.00  0.00    -0.489 OA
BRANCH  27  29
ATOM     28  C   UNL     1       0.028   1.517   0.060  0.00  0.00    +0.048 C 
ATOM     29  C   UNL     1       0.069  -0.012   0.030  0.00  0.00    +0.226 C 
ENDBRANCH  27  29
ENDBRANCH  21  27
BRANCH  26  30
ATOM     30  O   UNL     1       1.821  -1.566   3.495  0.00  0.00    -0.489 OA
BRANCH  30  31
ATOM     31  C   UNL     1       2.404  -2.191   4.640  0.00  0.00    +0.226 C 
ATOM     32  C   UNL     1       2.851  -1.117   5.635  0.00  0.00    +0.048 C 
ENDBRANCH  30  31
ENDBRANCH  26  30
ENDBRANCH   1  24
BRANCH  10  33
ATOM     33  C   UNL     1      -1.396  -6.521   2.180  0.00  0.00    +0.140 C 
BRANCH  33  34
ATOM     34  C   UNL     1      -2.162  -5.369   1.526  0.00  0.00    +0.136 C 
ATOM     35  C   UNL     1      -3.436  -5.059   2.340  0.00  0.00    +0.035 C 
ATOM     36  C   UNL     1      -4.476  -4.764   1.225  0.00  0.00    +0.031 C 
ATOM     37  C   UNL     1      -4.006  -5.741   0.118  0.00  0.00    +0.160 C 
ATOM     38  O   UNL     1      -2.570  -5.745   0.205  0.00  0.00    -0.375 OA
ENDBRANCH  33  34
ENDBRANCH  10  33
TORSDOF 9
