REMARK  Name = ZINC19797116
REMARK  5 active torsions:
REMARK  status: ('A' for Active; 'I' for Inactive)
REMARK    1  A    between atoms: C_6  and  C_7
REMARK    2  A    between atoms: N_14  and  N_21
REMARK    3  A    between atoms: C_15  and  S_17
REMARK    4  A    between atoms: S_17  and  C_18
REMARK    5  A    between atoms: C_18  and  C_19
REMARK                            x       y       z     vdW  Elec       q    Type
REMARK                         _______ _______ _______ _____ _____    ______ ____
ROOT
ATOM      1  C   UNL     1      -0.018   1.474   0.010  0.00  0.00    +0.022 A 
ATOM      2  C   UNL     1       1.035   2.341   0.005  0.00  0.00    +0.044 A 
ATOM      3  C   UNL     1       0.804   3.720   0.014  0.00  0.00    +0.087 A 
ATOM      4  C   UNL     1      -0.548   4.111   0.029  0.00  0.00    +0.104 A 
ATOM      5  S   UNL     1      -1.427   2.570   0.022  0.00  0.00    -0.081 S 
ATOM      6  C   UNL     1      -0.918   5.453   0.038  0.00  0.00    +0.286 A 
ATOM      7  O   UNL     1      -2.094   5.778   0.051  0.00  0.00    -0.265 OA
ATOM      8  N   UNL     1       0.060   6.390   0.034  0.00  0.00    -0.208 N 
ATOM      9  C   UNL     1       1.367   5.992   0.019  0.00  0.00    +0.190 A 
ATOM     10  N   UNL     1       1.726   4.737   0.010  0.00  0.00    -0.221 NA
ENDROOT
BRANCH   1  16
ATOM     11  C   UNL     1       1.218  -0.688  -0.019  0.00  0.00    +0.010 A 
ATOM     12  C   UNL     1       1.231  -2.067  -0.020  0.00  0.00    +0.020 A 
ATOM     13  C   UNL     1       0.040  -2.773  -0.013  0.00  0.00    +0.041 A 
ATOM     14  C   UNL     1      -1.170  -2.100   0.002  0.00  0.00    +0.020 A 
ATOM     15  C   UNL     1      -1.195  -0.721   0.010  0.00  0.00    +0.010 A 
ATOM     16  C   UNL     1       0.002  -0.004   0.002  0.00  0.00    -0.011 A 
ATOM     17 CL   UNL     1       0.063  -4.509  -0.023  0.00  0.00    -0.084 Cl
ENDBRANCH   1  16
BRANCH   8  18
ATOM     18  N   UNL     1      -0.257   7.719   0.042  0.00  0.00    -0.293 N 
ATOM     19  H   UNL     1       0.542   8.475   0.038  0.00  0.00    +0.163 HD
ATOM     20  H   UNL     1      -1.311   8.033   0.053  0.00  0.00    +0.163 HD
ENDBRANCH   8  18
BRANCH   9  21
ATOM     21  S   UNL     1       2.623   7.228   0.014  0.00  0.00    -0.071 S 
BRANCH  21  22
ATOM     22  C   UNL     1       4.097   6.177  -0.004  0.00  0.00    +0.195 C 
BRANCH  22  23
ATOM     23  C   UNL     1       5.302   7.023  -0.011  0.00  0.00    +0.074 C 
ATOM     24  N   UNL     1       6.232   7.675  -0.016  0.00  0.00    -0.196 NA
ENDBRANCH  22  23
ENDBRANCH  21  22
ENDBRANCH   9  21
TORSDOF 5
