REMARK  Name = ZINC43223651
REMARK  7 active torsions:
REMARK  status: ('A' for Active; 'I' for Inactive)
REMARK    1  A    between atoms: C_1  and  C_2
REMARK    2  A    between atoms: C_3  and  C_25
REMARK    3  A    between atoms: C_5  and  C_16
REMARK    4  A    between atoms: N_6  and  C_7
REMARK    5  A    between atoms: C_7  and  C_8
REMARK    6  A    between atoms: C_8  and  C_9
REMARK    7  A    between atoms: C_20  and  N_22
REMARK                            x       y       z     vdW  Elec       q    Type
REMARK                         _______ _______ _______ _____ _____    ______ ____
ROOT
ATOM      1  C   UNL     1      -0.611   1.276  -0.008  0.00  0.00    +0.064 C 
ATOM      2  C   UNL     1      -0.249  -0.187   0.020  0.00  0.00    +0.028 A 
ATOM      3  C   UNL     1      -0.105  -1.004  -1.081  0.00  0.00    +0.057 A 
ATOM      4  C   UNL     1       0.238  -2.293  -0.597  0.00  0.00    +0.041 A 
ATOM      5  C   UNL     1       0.288  -2.209   0.757  0.00  0.00    +0.050 A 
ATOM      6  N   UNL     1      -0.006  -0.919   1.125  0.00  0.00    -0.343 N 
ENDROOT
BRANCH   5   7
ATOM      7  C   UNL     1       0.610  -3.319   1.681  0.00  0.00    +0.001 A 
ATOM      8  C   UNL     1       0.175  -3.276   3.006  0.00  0.00    +0.010 A 
ATOM      9  C   UNL     1       0.477  -4.315   3.862  0.00  0.00    +0.003 A 
ATOM     10  C   UNL     1       1.211  -5.397   3.409  0.00  0.00    +0.033 A 
ATOM     11  C   UNL     1       1.645  -5.446   2.096  0.00  0.00    +0.127 A 
ATOM     12  C   UNL     1       1.344  -4.416   1.229  0.00  0.00    +0.042 A 
BRANCH  11  13
ATOM     13  N   UNL     1       2.428  -6.608   1.620  0.00  0.00    +0.056 N 
ATOM     14  O   UNL     1       2.688  -7.513   2.378  0.00  0.00    -0.126 OA
ATOM     15  O   UNL     1       2.808  -6.652   0.473  0.00  0.00    -0.126 OA
ENDBRANCH  11  13
ENDBRANCH   5   7
BRANCH   3  16
ATOM     16  C   UNL     1      -0.275  -0.614  -2.491  0.00  0.00    +0.243 C 
ATOM     17  O   UNL     1      -0.573   0.531  -2.774  0.00  0.00    -0.270 OA
ATOM     18  N   UNL     1      -0.101  -1.525  -3.468  0.00  0.00    -0.325 N 
ATOM     19  H   UNL     1       0.136  -2.438  -3.243  0.00  0.00    +0.145 HD
ATOM     20  H   UNL     1      -0.213  -1.268  -4.397  0.00  0.00    +0.145 HD
ENDBRANCH   3  16
BRANCH   6  21
ATOM     21  C   UNL     1      -0.051  -0.418   2.501  0.00  0.00    +0.127 C 
BRANCH  21  22
ATOM     22  C   UNL     1      -1.491  -0.466   3.014  0.00  0.00    +0.056 C 
BRANCH  22  23
ATOM     23  C   UNL     1      -1.542   0.082   4.417  0.00  0.00    -0.046 A 
ATOM     24  C   UNL     1      -1.369  -0.765   5.496  0.00  0.00    +0.005 A 
ATOM     25  C   UNL     1      -1.416  -0.263   6.783  0.00  0.00    +0.020 A 
ATOM     26  C   UNL     1      -1.637   1.087   6.992  0.00  0.00    +0.041 A 
ATOM     27  C   UNL     1      -1.810   1.933   5.911  0.00  0.00    +0.020 A 
ATOM     28  C   UNL     1      -1.758   1.431   4.625  0.00  0.00    +0.005 A 
ATOM     29 CL   UNL     1      -1.697   1.717   8.608  0.00  0.00    -0.084 Cl
ENDBRANCH  22  23
ENDBRANCH  21  22
ENDBRANCH   6  21
TORSDOF 6
