REMARK  Name = ZINC32623914
REMARK  11 active torsions:
REMARK  status: ('A' for Active; 'I' for Inactive)
REMARK    1  A    between atoms: C_1  and  C_2
REMARK    2  A    between atoms: C_5  and  C_8
REMARK    3  A    between atoms: C_10  and  C_13
REMARK    4  A    between atoms: C_13  and  C_14
REMARK    5  A    between atoms: C_14  and  N_15
REMARK    6  A    between atoms: C_16  and  C_18
REMARK    7  A    between atoms: C_18  and  C_20
REMARK    8  A    between atoms: C_18  and  O_21
REMARK    9  A    between atoms: O_21  and  C_22
REMARK   10  A    between atoms: C_26  and  C_29
REMARK   11  A    between atoms: C_27  and  C_28
REMARK                            x       y       z     vdW  Elec       q    Type
REMARK                         _______ _______ _______ _____ _____    ______ ____
ROOT
ATOM      1  N   UNL     1      -1.838   1.143  -1.782  0.00  0.00    -0.312 N 
ATOM      2  C   UNL     1      -0.614   1.565  -1.409  0.00  0.00    +0.254 C 
ATOM      3  O   UNL     1      -0.043   2.418  -2.055  0.00  0.00    -0.272 OA
ATOM      4  H   UNL     1      -2.356   0.369  -1.196  0.00  0.00    +0.149 HD
ENDROOT
BRANCH   2   5
ATOM      5  C   UNL     1       0.047   0.976  -0.189  0.00  0.00    +0.255 C 
ATOM      6  C   UNL     1      -0.826   1.240   1.040  0.00  0.00    +0.062 C 
BRANCH   5   7
ATOM      7  O   UNL     1       1.328   1.580  -0.002  0.00  0.00    -0.480 OA
BRANCH   7   8
ATOM      8  C   UNL     1       2.257   0.860   0.680  0.00  0.00    +0.125 A 
ATOM      9  C   UNL     1       1.908  -0.353   1.258  0.00  0.00    +0.046 A 
ATOM     10  C   UNL     1       2.856  -1.086   1.945  0.00  0.00    +0.004 A 
ATOM     11  C   UNL     1       4.147  -0.608   2.068  0.00  0.00    +0.004 A 
ATOM     12  C   UNL     1       4.495   0.603   1.498  0.00  0.00    -0.044 A 
ATOM     13  C   UNL     1       3.553   1.338   0.804  0.00  0.00    -0.006 A 
ATOM     14  C   UNL     1       3.933   2.657   0.183  0.00  0.00    +0.048 C 
ATOM     15  C   UNL     1       5.904   1.121   1.633  0.00  0.00    +0.044 C 
ENDBRANCH   7   8
ENDBRANCH   5   7
ENDBRANCH   2   5
BRANCH   1  16
ATOM     16  C   UNL     1      -2.480   1.716  -2.968  0.00  0.00    +0.113 C 
BRANCH  16  17
ATOM     17  C   UNL     1      -3.852   1.068  -3.168  0.00  0.00    +0.117 C 
BRANCH  17  20
ATOM     18  C   UNL     1      -5.168   2.049  -6.366  0.00  0.00    +0.202 A 
ATOM     19  N   UNL     1      -4.413   1.214  -5.617  0.00  0.00    -0.191 NA
ATOM     20  C   UNL     1      -4.512   1.657  -4.388  0.00  0.00    +0.229 A 
ATOM     21  O   UNL     1      -5.313   2.727  -4.419  0.00  0.00    -0.338 OA
ATOM     22  N   UNL     1      -5.675   2.942  -5.556  0.00  0.00    -0.056 NA
BRANCH  18  27
ATOM     23  C   UNL     1      -5.987   1.736 -12.059  0.00  0.00    +0.044 C 
ATOM     24  C   UNL     1      -5.773   1.818 -10.569  0.00  0.00    -0.050 A 
ATOM     25  C   UNL     1      -6.381   2.824  -9.839  0.00  0.00    +0.004 A 
ATOM     26  C   UNL     1      -6.188   2.903  -8.475  0.00  0.00    +0.012 A 
ATOM     27  C   UNL     1      -5.379   1.968  -7.833  0.00  0.00    +0.022 A 
ATOM     28  C   UNL     1      -4.765   0.960  -8.573  0.00  0.00    +0.012 A 
ATOM     29  C   UNL     1      -4.968   0.887  -9.936  0.00  0.00    +0.004 A 
ENDBRANCH  18  27
ENDBRANCH  17  20
ENDBRANCH  16  17
ENDBRANCH   1  16
TORSDOF 7
