REMARK  Name = ZINC36304410
REMARK  17 active torsions:
REMARK  status: ('A' for Active; 'I' for Inactive)
REMARK    1  A    between atoms: C_1  and  C_2
REMARK    2  A    between atoms: C_3  and  C_22
REMARK    3  A    between atoms: C_4  and  O_13
REMARK    4  A    between atoms: N_5  and  C_7
REMARK    5  A    between atoms: O_13  and  C_14
REMARK    6  A    between atoms: C_19  and  O_20
REMARK    7  A    between atoms: O_20  and  C_21
REMARK    8  A    between atoms: C_22  and  N_23
REMARK    9  A    between atoms: N_23  and  C_24
REMARK   10  A    between atoms: N_23  and  C_30
REMARK   11  A    between atoms: C_24  and  C_25
REMARK   12  A    between atoms: C_30  and  C_31
REMARK   13  A    between atoms: C_31  and  C_33
REMARK   14  A    between atoms: C_31  and  O_38
REMARK   15  A    between atoms: C_33  and  O_34
REMARK   16  A    between atoms: O_34  and  C_35
REMARK   17  A    between atoms: C_35  and  C_36
REMARK                            x       y       z     vdW  Elec       q    Type
REMARK                         _______ _______ _______ _____ _____    ______ ____
ROOT
ATOM      1  C   UNL     1       0.929   0.645   0.763  0.00  0.00    +0.068 C 
ATOM      2  C   UNL     1       0.360  -0.687   0.347  0.00  0.00    +0.065 A 
ATOM      3  C   UNL     1      -0.039  -1.038  -0.946  0.00  0.00    +0.021 A 
ATOM      4  C   UNL     1      -0.494  -2.319  -0.910  0.00  0.00    +0.225 A 
ATOM      5  N   UNL     1      -0.382  -2.756   0.373  0.00  0.00    -0.200 N 
ATOM      6  N   UNL     1       0.162  -1.714   1.134  0.00  0.00    -0.168 NA
ENDROOT
BRANCH   5   7
ATOM      7  C   UNL     1      -0.741  -4.026   0.847  0.00  0.00    +0.069 A 
ATOM      8  C   UNL     1      -1.919  -4.621   0.417  0.00  0.00    +0.028 A 
ATOM      9  C   UNL     1      -2.270  -5.872   0.886  0.00  0.00    +0.002 A 
ATOM     10  C   UNL     1      -1.449  -6.531   1.782  0.00  0.00    +0.000 A 
ATOM     11  C   UNL     1      -0.275  -5.941   2.212  0.00  0.00    +0.002 A 
ATOM     12  C   UNL     1       0.084  -4.692   1.743  0.00  0.00    +0.028 A 
ENDBRANCH   5   7
BRANCH   4  13
ATOM     13  O   UNL     1      -0.972  -3.031  -1.962  0.00  0.00    -0.434 OA
BRANCH  13  14
ATOM     14  C   UNL     1      -2.289  -2.900  -2.275  0.00  0.00    +0.172 A 
ATOM     15  C   UNL     1      -3.075  -1.979  -1.601  0.00  0.00    +0.050 A 
ATOM     16  C   UNL     1      -4.413  -1.847  -1.921  0.00  0.00    +0.004 A 
ATOM     17  C   UNL     1      -4.971  -2.632  -2.913  0.00  0.00    +0.004 A 
ATOM     18  C   UNL     1      -4.192  -3.553  -3.590  0.00  0.00    +0.049 A 
ATOM     19  C   UNL     1      -2.849  -3.686  -3.278  0.00  0.00    +0.162 A 
BRANCH  19  20
ATOM     20  O   UNL     1      -2.080  -4.587  -3.947  0.00  0.00    -0.491 OA
ATOM     21  C   UNL     1      -2.723  -5.360  -4.963  0.00  0.00    +0.277 C 
ENDBRANCH  19  20
ENDBRANCH  13  14
ENDBRANCH   4  13
BRANCH   3  22
ATOM     22  C   UNL     1       0.024  -0.153  -2.164  0.00  0.00    -0.035 C 
BRANCH  22  23
ATOM     23  N   UNL     1       1.353  -0.259  -2.780  0.00  0.00    +0.389 N 
ATOM     24  H   UNL     1       2.059  -0.019  -2.099  0.00  0.00    -0.081 HD
BRANCH  23  25
ATOM     25  C   UNL     1       1.440   0.661  -3.921  0.00  0.00    -0.003 C 
BRANCH  25  26
ATOM     26  C   UNL     1       1.216   2.074  -3.445  0.00  0.00    +0.089 A 
ATOM     27  C   UNL     1       2.176   2.948  -3.097  0.00  0.00    +0.042 A 
ATOM     28  C   UNL     1       1.523   4.144  -2.717  0.00  0.00    +0.041 A 
ATOM     29  C   UNL     1       0.203   3.928  -2.856  0.00  0.00    +0.195 A 
ATOM     30  O   UNL     1       0.023   2.674  -3.303  0.00  0.00    -0.470 OA
ENDBRANCH  25  26
ENDBRANCH  23  25
BRANCH  23  31
ATOM     31  C   UNL     1       1.569  -1.636  -3.244  0.00  0.00    -0.044 C 
BRANCH  31  32
ATOM     32  C   UNL     1       3.022  -1.801  -3.695  0.00  0.00    +0.124 C 
BRANCH  32  33
ATOM     33  O   UNL     1       3.237  -1.050  -4.891  0.00  0.00    -0.391 OA
ATOM     34  H   UNL     1       2.676  -1.319  -5.631  0.00  0.00    +0.210 HD
ENDBRANCH  32  33
BRANCH  32  35
ATOM     35  C   UNL     1       3.308  -3.280  -3.963  0.00  0.00    +0.189 C 
BRANCH  35  36
ATOM     36  O   UNL     1       4.693  -3.449  -4.271  0.00  0.00    -0.373 OA
BRANCH  36  37
ATOM     37  C   UNL     1       5.068  -4.801  -4.540  0.00  0.00    +0.186 C 
BRANCH  37  38
ATOM     38  C   UNL     1       6.541  -4.862  -4.850  0.00  0.00    -0.007 C 
ATOM     39  C   UNL     1       7.287  -5.792  -4.308  0.00  0.00    +0.006 C 
ENDBRANCH  37  38
ENDBRANCH  36  37
ENDBRANCH  35  36
ENDBRANCH  32  35
ENDBRANCH  31  32
ENDBRANCH  23  31
ENDBRANCH  22  23
ENDBRANCH   3  22
TORSDOF 15
