REMARK  Name = ZINC09439079
REMARK  4 active torsions:
REMARK  status: ('A' for Active; 'I' for Inactive)
REMARK    1  A    between atoms: C_10  and  S_13
REMARK    2  A    between atoms: S_13  and  N_16
REMARK    3  A    between atoms: C_19  and  C_22
REMARK    4  A    between atoms: N_24  and  C_25
REMARK                            x       y       z     vdW  Elec       q    Type
REMARK                         _______ _______ _______ _____ _____    ______ ____
ROOT
ATOM      1  N   UNL     1      -0.872   1.871   1.353  0.00  0.00    -0.177 NA
ATOM      2  C   UNL     1      -0.660   3.190   1.965  0.00  0.00    +0.110 C 
ATOM      3  C   UNL     1      -2.019   3.897   2.084  0.00  0.00    +0.030 C 
ATOM      4  C   UNL     1      -2.990   2.998   2.852  0.00  0.00    +0.077 C 
ATOM      5  C   UNL     1      -3.193   1.690   2.083  0.00  0.00    +0.030 C 
ATOM      6  C   UNL     1      -1.852   0.960   1.960  0.00  0.00    +0.110 C 
ENDROOT
BRANCH   4   7
ATOM      7  C   UNL     1      -4.314   3.702   3.004  0.00  0.00    +0.216 C 
ATOM      8  O   UNL     1      -5.320   3.207   2.543  0.00  0.00    -0.276 OA
ATOM      9  N   UNL     1      -4.378   4.882   3.652  0.00  0.00    -0.312 N 
ATOM     10  H   UNL     1      -3.573   5.277   4.021  0.00  0.00    +0.149 HD
BRANCH   9  11
ATOM     11  C   UNL     1      -5.665   5.566   3.800  0.00  0.00    +0.073 C 
ATOM     12  C   UNL     1      -5.943   6.405   2.551  0.00  0.00    +0.022 C 
ATOM     13  C   UNL     1      -7.423   6.794   2.517  0.00  0.00    +0.002 C 
ATOM     14  C   UNL     1      -8.279   5.579   2.882  0.00  0.00    +0.000 C 
ATOM     15  C   UNL     1      -8.969   5.827   4.225  0.00  0.00    +0.000 C 
ATOM     16  C   UNL     1      -7.954   5.654   5.358  0.00  0.00    +0.000 C 
ATOM     17  C   UNL     1      -7.043   6.881   5.418  0.00  0.00    +0.002 C 
ATOM     18  C   UNL     1      -5.619   6.479   5.027  0.00  0.00    +0.022 C 
ENDBRANCH   9  11
ENDBRANCH   4   7
BRANCH   1  19
ATOM     19  S   UNL     1      -0.017   1.417   0.010  0.00  0.00    +0.061 S 
ATOM     20  O   UNL     1       0.002  -0.004   0.002  0.00  0.00    -0.153 OA
ATOM     21  O   UNL     1       1.172   2.195   0.003  0.00  0.00    -0.153 OA
BRANCH  19  31
ATOM     22  C   UNL     1      -3.606   0.563  -3.659  0.00  0.00    +0.015 A 
ATOM     23  C   UNL     1      -4.297   1.001  -4.740  0.00  0.00    +0.071 A 
ATOM     24  C   UNL     1      -4.058   2.290  -5.262  0.00  0.00    +0.249 A 
ATOM     25  O   UNL     1      -4.691   2.664  -6.234  0.00  0.00    -0.268 OA
ATOM     26  N   UNL     1      -3.150   3.116  -4.714  0.00  0.00    -0.322 N 
ATOM     27  H   UNL     1      -3.011   3.996  -5.098  0.00  0.00    +0.169 HD
ATOM     28  C   UNL     1      -2.414   2.731  -3.613  0.00  0.00    +0.049 A 
ATOM     29  C   UNL     1      -2.615   1.455  -3.054  0.00  0.00    +0.000 A 
ATOM     30  C   UNL     1      -1.867   1.057  -1.941  0.00  0.00    +0.038 A 
ATOM     31  C   UNL     1      -0.954   1.915  -1.397  0.00  0.00    +0.106 A 
ATOM     32  C   UNL     1      -0.753   3.174  -1.946  0.00  0.00    +0.030 A 
ATOM     33  C   UNL     1      -1.475   3.586  -3.046  0.00  0.00    +0.028 A 
ENDBRANCH  19  31
ENDBRANCH   1  19
TORSDOF 4
