REMARK  Name = ZINC17904652
REMARK  12 active torsions:
REMARK  status: ('A' for Active; 'I' for Inactive)
REMARK    1  A    between atoms: C_1  and  C_2
REMARK    2  A    between atoms: C_2  and  C_3
REMARK    3  A    between atoms: C_8  and  N_9
REMARK    4  A    between atoms: C_10  and  C_12
REMARK    5  A    between atoms: C_12  and  N_13
REMARK    6  A    between atoms: N_13  and  C_14
REMARK    7  A    between atoms: C_15  and  C_17
REMARK    8  A    between atoms: C_17  and  C_19
REMARK    9  A    between atoms: C_17  and  N_23
REMARK   10  A    between atoms: C_19  and  C_20
REMARK   11  A    between atoms: C_20  and  C_21
REMARK   12  A    between atoms: C_20  and  C_22
REMARK                            x       y       z     vdW  Elec       q    Type
REMARK                         _______ _______ _______ _____ _____    ______ ____
ROOT
ATOM      1  N   UNL     1      -2.105  -0.042  -5.887  0.00  0.00    -0.294 N 
ATOM      2  C   UNL     1      -2.810   0.628  -6.983  0.00  0.00    +0.132 C 
ATOM      3  C   UNL     1      -2.170  -1.382  -5.763  0.00  0.00    +0.237 C 
ATOM      4  O   UNL     1      -1.536  -1.942  -4.893  0.00  0.00    -0.274 OA
ENDROOT
BRANCH   1   5
ATOM      5  C   UNL     1      -1.329   0.746  -4.926  0.00  0.00    +0.203 C 
BRANCH   5   7
ATOM      6  N   UNL     1      -1.712   1.883  -2.763  0.00  0.00    -0.284 N 
ATOM      7  C   UNL     1      -2.214   1.148  -3.775  0.00  0.00    +0.235 C 
ATOM      8  O   UNL     1      -3.379   0.810  -3.758  0.00  0.00    -0.274 OA
ATOM      9  H   UNL     1      -0.799   2.210  -2.807  0.00  0.00    +0.155 HD
BRANCH   6  15
ATOM     10  C   UNL     1      -1.928   2.293  -0.393  0.00  0.00    -0.026 A 
ATOM     11  C   UNL     1      -2.714   2.588   0.704  0.00  0.00    +0.005 A 
ATOM     12  C   UNL     1      -4.078   2.761   0.552  0.00  0.00    +0.000 A 
ATOM     13  C   UNL     1      -4.658   2.640  -0.697  0.00  0.00    +0.002 A 
ATOM     14  C   UNL     1      -3.877   2.346  -1.797  0.00  0.00    +0.023 A 
ATOM     15  C   UNL     1      -2.507   2.176  -1.649  0.00  0.00    +0.037 A 
BRANCH  10  17
ATOM     16  C   UNL     1       0.275   3.425  -0.518  0.00  0.00    +0.009 C 
ATOM     17  C   UNL     1      -0.442   2.105  -0.226  0.00  0.00    +0.033 C 
ENDBRANCH  10  17
ENDBRANCH   6  15
ENDBRANCH   5   7
ENDBRANCH   1   5
BRANCH   3  18
ATOM     18  C   UNL     1      -3.029  -2.185  -6.705  0.00  0.00    +0.170 C 
BRANCH  18  19
ATOM     19  N   UNL     1      -2.774  -3.613  -6.501  0.00  0.00    -0.230 N 
ATOM     20  C   UNL     1      -3.122  -4.268  -5.376  0.00  0.00    +0.227 C 
ATOM     21  O   UNL     1      -3.844  -3.852  -4.496  0.00  0.00    -0.275 OA
ATOM     22  C   UNL     1      -2.431  -5.641  -5.417  0.00  0.00    +0.091 C 
ATOM     23  C   UNL     1      -1.061  -5.410  -4.773  0.00  0.00    +0.040 C 
ATOM     24  C   UNL     1       0.022  -6.233  -5.379  0.00  0.00    -0.030 C 
ATOM     25  C   UNL     1      -0.048  -6.816  -6.529  0.00  0.00    -0.030 C 
ATOM     26  C   UNL     1      -1.266  -6.778  -7.396  0.00  0.00    +0.040 C 
ATOM     27  C   UNL     1      -2.318  -5.809  -6.941  0.00  0.00    +0.091 C 
ATOM     28  C   UNL     1      -2.175  -4.396  -7.426  0.00  0.00    +0.227 C 
ATOM     29  O   UNL     1      -1.627  -4.029  -8.444  0.00  0.00    -0.275 OA
ENDBRANCH  18  19
BRANCH  18  30
ATOM     30  C   UNL     1      -4.504  -1.885  -6.432  0.00  0.00    +0.035 C 
BRANCH  30  31
ATOM     31  C   UNL     1      -5.364  -2.516  -7.528  0.00  0.00    -0.015 C 
ATOM     32  C   UNL     1      -5.279  -4.041  -7.430  0.00  0.00    +0.007 C 
ATOM     33  C   UNL     1      -6.819  -2.075  -7.353  0.00  0.00    +0.007 C 
ENDBRANCH  30  31
ENDBRANCH  18  30
ENDBRANCH   3  18
TORSDOF 8
