REMARK  Name = ZINC50726454
REMARK  8 active torsions:
REMARK  status: ('A' for Active; 'I' for Inactive)
REMARK    1  A    between atoms: C_1  and  C_2
REMARK    2  A    between atoms: C_2  and  N_3
REMARK    3  A    between atoms: N_3  and  C_4
REMARK    4  A    between atoms: C_7  and  C_20
REMARK    5  A    between atoms: C_9  and  C_10
REMARK    6  A    between atoms: C_16  and  C_19
REMARK    7  A    between atoms: C_20  and  C_21
REMARK    8  A    between atoms: C_20  and  C_22
REMARK                            x       y       z     vdW  Elec       q    Type
REMARK                         _______ _______ _______ _____ _____    ______ ____
ROOT
ATOM      1  C   UNL     1      -1.619  -1.884  -0.083  0.00  0.00    +0.076 A 
ATOM      2  C   UNL     1      -0.565  -2.795  -0.192  0.00  0.00    +0.138 A 
ATOM      3  N   UNL     1      -0.823  -4.086  -0.104  0.00  0.00    -0.238 NA
ATOM      4  C   UNL     1      -2.054  -4.526   0.083  0.00  0.00    +0.132 A 
ATOM      5  N   UNL     1      -3.078  -3.710   0.192  0.00  0.00    -0.225 NA
ATOM      6  C   UNL     1      -2.911  -2.390   0.122  0.00  0.00    +0.150 A 
ENDROOT
BRANCH   6   7
ATOM      7  C   UNL     1      -4.068  -1.476   0.251  0.00  0.00    +0.267 C 
ATOM      8  O   UNL     1      -4.528  -0.936  -0.736  0.00  0.00    -0.268 OA
ATOM      9  N   UNL     1      -4.610  -1.242   1.462  0.00  0.00    -0.296 N 
ATOM     10  C   UNL     1      -3.994  -1.794   2.677  0.00  0.00    +0.108 C 
ATOM     11  C   UNL     1      -3.752  -0.652   3.669  0.00  0.00    +0.019 C 
ATOM     12  C   UNL     1      -5.065   0.094   3.913  0.00  0.00    +0.006 C 
ATOM     13  C   UNL     1      -5.565   0.695   2.597  0.00  0.00    +0.003 C 
ATOM     14  C   UNL     1      -5.825  -0.427   1.594  0.00  0.00    +0.111 C 
ATOM     15  C   UNL     1      -6.861   1.469   2.849  0.00  0.00    +0.009 C 
ENDBRANCH   6   7
BRANCH   4  16
ATOM     16  C   UNL     1      -2.291  -6.011   0.175  0.00  0.00    +0.051 C 
ATOM     17  C   UNL     1      -1.837  -6.681  -1.123  0.00  0.00    +0.015 C 
ATOM     18  C   UNL     1      -1.495  -6.583   1.350  0.00  0.00    +0.015 C 
ENDBRANCH   4  16
BRANCH   1  19
ATOM     19  N   UNL     1      -1.393  -0.516  -0.169  0.00  0.00    -0.341 N 
ATOM     20  H   UNL     1      -2.141   0.101  -0.161  0.00  0.00    +0.146 HD
BRANCH  19  22
ATOM     21  C   UNL     1      -0.054   1.523  -0.351  0.00  0.00    +0.024 C 
ATOM     22  C   UNL     1      -0.024  -0.005  -0.270  0.00  0.00    +0.098 C 
ENDBRANCH  19  22
ENDBRANCH   1  19
TORSDOF 4
