REMARK  Name = ZINC44786084
REMARK  6 active torsions:
REMARK  status: ('A' for Active; 'I' for Inactive)
REMARK    1  A    between atoms: C_1  and  C_2
REMARK    2  A    between atoms: C_2  and  C_3
REMARK    3  A    between atoms: C_9  and  N_11
REMARK    4  A    between atoms: C_12  and  C_14
REMARK    5  A    between atoms: C_14  and  C_20
REMARK    6  A    between atoms: N_21  and  O_22
REMARK                            x       y       z     vdW  Elec       q    Type
REMARK                         _______ _______ _______ _____ _____    ______ ____
ROOT
ATOM      1  C   UNL     1       1.634  -4.477   1.433  0.00  0.00    +0.109 C 
ATOM      2  C   UNL     1       1.119  -5.906   1.633  0.00  0.00    +0.052 C 
ATOM      3  C   UNL     1       1.427  -6.731   0.380  0.00  0.00    +0.161 C 
ATOM      4  O   UNL     1       2.834  -6.708   0.130  0.00  0.00    -0.380 OA
ATOM      5  C   UNL     1       3.363  -5.403  -0.111  0.00  0.00    +0.161 C 
ATOM      6  C   UNL     1       3.133  -4.525   1.122  0.00  0.00    +0.052 C 
ENDROOT
BRANCH   1   7
ATOM      7  C   UNL     1       1.405  -3.677   2.689  0.00  0.00    +0.147 C 
ATOM      8  N   UNL     1       2.395  -3.077   3.262  0.00  0.00    -0.076 NA
ATOM      9  N   UNL     1       0.140  -3.585   3.226  0.00  0.00    -0.343 N 
ATOM     10  H   UNL     1      -0.616  -3.973   2.757  0.00  0.00    +0.144 HD
ATOM     11  H   UNL     1       0.004  -3.132   4.073  0.00  0.00    +0.144 HD
BRANCH   8  12
ATOM     12  O   UNL     1       2.179  -2.325   4.443  0.00  0.00    -0.408 OA
ATOM     13  H   UNL     1       2.979  -1.913   4.798  0.00  0.00    +0.328 HD
ENDBRANCH   8  12
ENDBRANCH   1   7
BRANCH   1  15
ATOM     14  N   UNL     1       1.284  -2.622  -0.166  0.00  0.00    -0.311 N 
ATOM     15  C   UNL     1       0.901  -3.834   0.284  0.00  0.00    +0.227 C 
ATOM     16  O   UNL     1      -0.034  -4.406  -0.235  0.00  0.00    -0.275 OA
ATOM     17  H   UNL     1       1.982  -2.132   0.296  0.00  0.00    +0.149 HD
BRANCH  14  23
ATOM     18  C   UNL     1       0.762  -0.521  -1.303  0.00  0.00    +0.009 C 
ATOM     19  C   UNL     1       2.239  -0.123  -1.274  0.00  0.00    +0.005 C 
ATOM     20  C   UNL     1       2.933  -0.647  -2.533  0.00  0.00    +0.000 C 
ATOM     21  C   UNL     1       2.816  -2.172  -2.582  0.00  0.00    +0.002 C 
ATOM     22  C   UNL     1       1.339  -2.570  -2.610  0.00  0.00    +0.022 C 
ATOM     23  C   UNL     1       0.645  -2.046  -1.351  0.00  0.00    +0.076 C 
BRANCH  18  25
ATOM     24  C   UNL     1       0.075   1.533  -0.058  0.00  0.00    +0.004 C 
ATOM     25  C   UNL     1       0.068   0.004  -0.044  0.00  0.00    +0.002 C 
ENDBRANCH  18  25
ENDBRANCH  14  23
ENDBRANCH   1  15
TORSDOF 5
