REMARK  Name = ZINC33707542
REMARK  6 active torsions:
REMARK  status: ('A' for Active; 'I' for Inactive)
REMARK    1  A    between atoms: C_1  and  C_2
REMARK    2  A    between atoms: C_3  and  C_32
REMARK    3  A    between atoms: C_4  and  C_13
REMARK    4  A    between atoms: C_16  and  N_19
REMARK    5  A    between atoms: C_20  and  C_22
REMARK    6  A    between atoms: N_34  and  C_35
REMARK                            x       y       z     vdW  Elec       q    Type
REMARK                         _______ _______ _______ _____ _____    ______ ____
ROOT
ATOM      1  C   UNL     1      -1.642   2.557   1.462  0.00  0.00    -0.022 A 
ATOM      2  C   UNL     1      -0.610   2.896   2.317  0.00  0.00    +0.007 A 
ATOM      3  C   UNL     1      -0.886   3.308   3.606  0.00  0.00    +0.023 A 
ATOM      4  C   UNL     1      -2.202   3.372   4.046  0.00  0.00    +0.034 A 
ATOM      5  C   UNL     1      -3.236   3.025   3.186  0.00  0.00    +0.023 A 
ATOM      6  C   UNL     1      -2.953   2.619   1.897  0.00  0.00    +0.007 A 
ENDROOT
BRANCH   1  10
ATOM      7  C   UNL     1       0.537   4.970  -1.766  0.00  0.00    +0.064 C 
ATOM      8  C   UNL     1       0.241   3.739  -0.949  0.00  0.00    +0.025 C 
ATOM      9  C   UNL     1      -1.046   3.317  -0.808  0.00  0.00    +0.058 C 
ATOM     10  C   UNL     1      -1.337   2.113   0.054  0.00  0.00    +0.142 C 
ATOM     11  N   UNL     1      -0.140   1.242   0.054  0.00  0.00    -0.300 N 
ATOM     12  C   UNL     1      -0.340  -0.191   0.000  0.00  0.00    +0.109 C 
ATOM     13  C   UNL     1       0.705  -1.027   0.704  0.00  0.00    +0.030 C 
ATOM     14  C   UNL     1       2.120  -0.645   0.273  0.00  0.00    +0.078 C 
ATOM     15  S   UNL     1       2.453   1.038   0.864  0.00  0.00    -0.092 S 
ATOM     16  C   UNL     1       1.076   1.859   0.126  0.00  0.00    +0.135 C 
ATOM     17  N   UNL     1       1.241   3.075  -0.374  0.00  0.00    -0.341 N 
ATOM     18  H   UNL     1       2.225   3.563  -0.319  0.00  0.00    +0.167 HD
BRANCH   9  19
ATOM     19  C   UNL     1      -2.094   3.997  -1.457  0.00  0.00    +0.244 C 
ATOM     20  O   UNL     1      -1.851   4.969  -2.151  0.00  0.00    -0.270 OA
ATOM     21  N   UNL     1      -3.365   3.573  -1.312  0.00  0.00    -0.315 N 
ATOM     22  C   UNL     1      -4.455   4.281  -1.988  0.00  0.00    +0.128 C 
ATOM     23  H   UNL     1      -3.584   2.696  -0.685  0.00  0.00    +0.149 HD
ENDBRANCH   9  19
ENDBRANCH   1  10
BRANCH   4  24
ATOM     24  N   UNL     1      -2.485   3.783   5.353  0.00  0.00    -0.281 N 
ATOM     25  C   UNL     1      -1.704   4.702   5.954  0.00  0.00    +0.249 C 
ATOM     26  O   UNL     1      -0.812   5.245   5.329  0.00  0.00    -0.270 OA
ATOM     27  H   UNL     1      -3.344   3.356   5.889  0.00  0.00    +0.155 HD
BRANCH  25  28
ATOM     28  C   UNL     1      -1.930   5.050   7.368  0.00  0.00    +0.045 A 
ATOM     29  C   UNL     1      -2.859   4.349   8.123  0.00  0.00    +0.014 A 
ATOM     30  C   UNL     1      -3.074   4.670   9.457  0.00  0.00    +0.001 A 
ATOM     31  C   UNL     1      -2.388   5.682  10.059  0.00  0.00    +0.008 A 
ATOM     32  C   UNL     1      -1.440   6.422   9.332  0.00  0.00    -0.017 A 
ATOM     33  C   UNL     1      -1.204   6.108   7.971  0.00  0.00    -0.006 A 
ATOM     34  C   UNL     1      -0.259   6.847   7.247  0.00  0.00    +0.009 A 
ATOM     35  C   UNL     1       0.420   7.858   7.858  0.00  0.00    +0.001 A 
ATOM     36  C   UNL     1       0.189   8.169   9.196  0.00  0.00    +0.001 A 
ATOM     37  C   UNL     1      -0.722   7.472   9.930  0.00  0.00    +0.008 A 
ENDBRANCH  25  28
ENDBRANCH   4  24
TORSDOF 4
