REMARK  Name = ZINC64058145
REMARK  7 active torsions:
REMARK  status: ('A' for Active; 'I' for Inactive)
REMARK    1  A    between atoms: C_1  and  O_2
REMARK    2  A    between atoms: O_2  and  C_3
REMARK    3  A    between atoms: C_8  and  C_13
REMARK    4  A    between atoms: C_13  and  N_14
REMARK    5  A    between atoms: C_15  and  C_17
REMARK    6  A    between atoms: C_17  and  C_18
REMARK    7  A    between atoms: N_25  and  C_26
REMARK                            x       y       z     vdW  Elec       q    Type
REMARK                         _______ _______ _______ _____ _____    ______ ____
ROOT
ATOM      1  C   UNL     1      -8.750  -5.733  -2.301  0.00  0.00    +0.089 C 
ENDROOT
BRANCH   1   2
ATOM      2  C   UNL     1      -9.214  -6.128  -3.704  0.00  0.00    +0.028 C 
ATOM      3  C   UNL     1     -10.715  -6.112  -3.756  0.00  0.00    +0.200 C 
ATOM      4  O   UNL     1     -11.335  -6.565  -2.817  0.00  0.00    -0.278 OA
ATOM      5  N   UNL     1     -11.396  -5.617  -4.796  0.00  0.00    -0.318 N 
ATOM      6  C   UNL     1     -10.739  -5.026  -5.958  0.00  0.00    +0.085 C 
ATOM      7  C   UNL     1      -9.269  -5.450  -5.997  0.00  0.00    -0.058 C 
ATOM      8  N   UNL     1      -8.667  -5.180  -4.683  0.00  0.00    +0.391 N 
ATOM      9  H   UNL     1     -12.366  -5.653  -4.777  0.00  0.00    +0.149 HD
ATOM     10  H   UNL     1      -8.883  -4.237  -4.397  0.00  0.00    -0.080 HD
BRANCH   8  11
ATOM     11  C   UNL     1      -7.210  -5.349  -4.769  0.00  0.00    -0.059 C 
ATOM     12  C   UNL     1      -6.512  -4.726  -3.541  0.00  0.00    +0.020 C 
ATOM     13  C   UNL     1      -5.213  -4.156  -4.070  0.00  0.00    -0.046 A 
ATOM     14  C   UNL     1      -4.064  -3.771  -3.401  0.00  0.00    +0.004 A 
ATOM     15  C   UNL     1      -2.985  -3.270  -4.104  0.00  0.00    +0.000 A 
ATOM     16  C   UNL     1      -3.053  -3.151  -5.480  0.00  0.00    +0.000 A 
ATOM     17  C   UNL     1      -4.199  -3.534  -6.149  0.00  0.00    +0.004 A 
ATOM     18  C   UNL     1      -5.281  -4.037  -5.446  0.00  0.00    -0.046 A 
ATOM     19  C   UNL     1      -6.630  -4.520  -5.935  0.00  0.00    +0.020 C 
ENDBRANCH   8  11
ENDBRANCH   1   2
BRANCH   1  21
ATOM     20  N   UNL     1      -8.724  -3.693  -0.901  0.00  0.00    -0.313 N 
ATOM     21  C   UNL     1      -9.153  -4.308  -2.022  0.00  0.00    +0.212 C 
ATOM     22  O   UNL     1      -9.862  -3.713  -2.806  0.00  0.00    -0.276 OA
ATOM     23  H   UNL     1      -8.099  -4.142  -0.311  0.00  0.00    +0.149 HD
BRANCH  20  24
ATOM     24  C   UNL     1      -9.203  -2.348  -0.575  0.00  0.00    +0.132 C 
BRANCH  24  30
ATOM     25  C   UNL     1     -11.320  -0.596   4.375  0.00  0.00    +0.121 A 
ATOM     26  C   UNL     1     -11.170  -1.957   4.694  0.00  0.00    +0.047 A 
ATOM     27  C   UNL     1     -10.455  -2.809   3.929  0.00  0.00    +0.029 A 
ATOM     28  C   UNL     1      -9.800  -2.319   2.712  0.00  0.00    +0.043 A 
ATOM     29  N   UNL     1      -9.063  -2.920   1.812  0.00  0.00    -0.376 N 
ATOM     30  C   UNL     1      -8.668  -1.935   0.798  0.00  0.00    +0.120 C 
ATOM     31  C   UNL     1      -9.288  -0.625   1.228  0.00  0.00    +0.009 C 
ATOM     32  C   UNL     1      -9.958  -0.885   2.374  0.00  0.00    -0.001 A 
ATOM     33  C   UNL     1     -10.760  -0.046   3.271  0.00  0.00    +0.055 A 
ATOM     34  H   UNL     1      -8.819  -3.858   1.814  0.00  0.00    +0.160 HD
BRANCH  25  36
ATOM     35  C   UNL     1     -12.630  -0.426   6.352  0.00  0.00    +0.277 C 
ATOM     36  O   UNL     1     -12.057   0.195   5.199  0.00  0.00    -0.495 OA
ENDBRANCH  25  36
ENDBRANCH  24  30
ENDBRANCH  20  24
ENDBRANCH   1  21
TORSDOF 6
