REMARK  Name = ZINC27751337
REMARK  10 active torsions:
REMARK  status: ('A' for Active; 'I' for Inactive)
REMARK    1  A    between atoms: C_1  and  C_2
REMARK    2  A    between atoms: C_4  and  C_31
REMARK    3  A    between atoms: C_6  and  N_8
REMARK    4  A    between atoms: C_9  and  C_11
REMARK    5  A    between atoms: C_12  and  C_30
REMARK    6  A    between atoms: C_17  and  C_19
REMARK    7  A    between atoms: C_21  and  O_28
REMARK    8  A    between atoms: C_22  and  O_26
REMARK    9  A    between atoms: O_26  and  C_27
REMARK   10  A    between atoms: O_28  and  C_29
REMARK                            x       y       z     vdW  Elec       q    Type
REMARK                         _______ _______ _______ _____ _____    ______ ____
ROOT
ATOM      1  C   UNL     1       3.271   3.722   0.859  0.00  0.00    +0.056 C 
ATOM      2  C   UNL     1       2.629   4.706   1.522  0.00  0.00    +0.019 C 
ATOM      3  N   UNL     1       2.393   5.916   0.933  0.00  0.00    -0.273 N 
ATOM      4  C   UNL     1       2.768   6.220  -0.316  0.00  0.00    +0.304 C 
ATOM      5  O   UNL     1       2.513   7.324  -0.755  0.00  0.00    -0.252 OA
ATOM      6  N   UNL     1       3.418   5.340  -1.103  0.00  0.00    -0.288 N 
ATOM      7  C   UNL     1       3.721   4.005  -0.560  0.00  0.00    +0.143 C 
ATOM      8  C   UNL     1       2.166   4.467   2.936  0.00  0.00    +0.061 C 
ATOM      9  H   UNL     1       1.867   6.706   1.490  0.00  0.00    +0.156 HD
ATOM     10  H   UNL     1       3.722   5.599  -2.128  0.00  0.00    +0.151 HD
ENDROOT
BRANCH   7  11
ATOM     11  C   UNL     1       3.083   2.981  -1.463  0.00  0.00    -0.005 A 
ATOM     12  C   UNL     1       1.810   3.196  -1.958  0.00  0.00    +0.056 A 
ATOM     13  C   UNL     1       1.221   2.256  -2.788  0.00  0.00    +0.162 A 
ATOM     14  C   UNL     1       1.915   1.097  -3.126  0.00  0.00    +0.163 A 
ATOM     15  C   UNL     1       3.188   0.885  -2.623  0.00  0.00    +0.065 A 
ATOM     16  C   UNL     1       3.771   1.828  -1.794  0.00  0.00    +0.027 A 
ATOM     17 BR   UNL     1       5.512   1.540  -1.115  0.00  0.00    -0.050 Br
BRANCH  14  18
ATOM     18  O   UNL     1       1.343   0.174  -3.943  0.00  0.00    -0.491 OA
ATOM     19  C   UNL     1       2.112  -0.993  -4.243  0.00  0.00    +0.277 C 
ENDBRANCH  14  18
BRANCH  13  20
ATOM     20  O   UNL     1      -0.031   2.466  -3.276  0.00  0.00    -0.491 OA
ATOM     21  C   UNL     1      -0.681   3.679  -2.892  0.00  0.00    +0.277 C 
ENDBRANCH  13  20
ENDBRANCH   7  11
BRANCH   1  23
ATOM     22  N   UNL     1       4.591   2.303   2.265  0.00  0.00    -0.282 N 
ATOM     23  C   UNL     1       3.516   2.467   1.468  0.00  0.00    +0.248 C 
ATOM     24  O   UNL     1       2.756   1.536   1.272  0.00  0.00    -0.270 OA
ATOM     25  H   UNL     1       5.245   3.159   2.489  0.00  0.00    +0.155 HD
BRANCH  22  31
ATOM     26  C   UNL     1       3.001  -1.927   4.200  0.00  0.00    +0.044 C 
ATOM     27  C   UNL     1       4.123  -1.026   3.753  0.00  0.00    -0.048 A 
ATOM     28  C   UNL     1       5.436  -1.443   3.878  0.00  0.00    +0.006 A 
ATOM     29  C   UNL     1       6.468  -0.619   3.469  0.00  0.00    -0.048 A 
ATOM     30  C   UNL     1       6.192   0.623   2.933  0.00  0.00    +0.026 A 
ATOM     31  C   UNL     1       4.875   1.045   2.806  0.00  0.00    +0.034 A 
ATOM     32  C   UNL     1       3.840   0.218   3.224  0.00  0.00    +0.026 A 
ATOM     33  C   UNL     1       7.897  -1.078   3.607  0.00  0.00    +0.044 C 
ENDBRANCH  22  31
ENDBRANCH   1  23
TORSDOF 5
