REMARK  Name = ZINC40517030
REMARK  3 active torsions:
REMARK  status: ('A' for Active; 'I' for Inactive)
REMARK    1  A    between atoms: C_3  and  S_14
REMARK    2  A    between atoms: C_6  and  N_7
REMARK    3  A    between atoms: S_14  and  C_17
REMARK                            x       y       z     vdW  Elec       q    Type
REMARK                         _______ _______ _______ _____ _____    ______ ____
ROOT
ATOM      1  C   UNL     1      -0.017   1.384   0.010  0.00  0.00    +0.029 A 
ATOM      2  C   UNL     1       1.171   2.090   0.002  0.00  0.00    +0.029 A 
ATOM      3  C   UNL     1       2.377   1.415  -0.013  0.00  0.00    +0.098 A 
ATOM      4  C   UNL     1       2.400   0.032  -0.021  0.00  0.00    +0.029 A 
ATOM      5  C   UNL     1       1.216  -0.679  -0.014  0.00  0.00    +0.029 A 
ATOM      6  C   UNL     1       0.002  -0.004   0.002  0.00  0.00    +0.066 A 
ENDROOT
BRANCH   6   7
ATOM      7  N   UNL     1      -1.201  -0.722   0.010  0.00  0.00    -0.237 N 
ATOM      8  C   UNL     1      -1.323  -2.076   0.009  0.00  0.00    +0.131 A 
ATOM      9  C   UNL     1      -2.644  -2.369   0.019  0.00  0.00    +0.077 A 
ATOM     10  C   UNL     1      -3.356  -1.158   0.025  0.00  0.00    +0.153 A 
ATOM     11  N   UNL     1      -2.489  -0.172   0.026  0.00  0.00    -0.151 NA
ATOM     12  N   UNL     1      -4.749  -1.025   0.035  0.00  0.00    -0.341 N 
ATOM     13 BR   UNL     1      -3.398  -4.103   0.022  0.00  0.00    -0.045 Br
ATOM     14  H   UNL     1      -5.311  -1.815   0.038  0.00  0.00    +0.144 HD
ATOM     15  H   UNL     1      -5.152  -0.142   0.039  0.00  0.00    +0.144 HD
ENDBRANCH   6   7
BRANCH   3  16
ATOM     16  S   UNL     1       3.890   2.318  -0.023  0.00  0.00    +0.091 S 
ATOM     17  O   UNL     1       4.829   1.447  -0.639  0.00  0.00    -0.161 OA
ATOM     18  O   UNL     1       3.563   3.567  -0.616  0.00  0.00    -0.161 OA
BRANCH  16  19
ATOM     19  C   UNL     1       4.307   2.548   1.728  0.00  0.00    +0.526 C 
ATOM     20  F   UNL     1       4.454   1.298   2.340  0.00  0.00    -0.150 F 
ATOM     21  F   UNL     1       5.505   3.262   1.832  0.00  0.00    -0.150 F 
ATOM     22  F   UNL     1       3.283   3.260   2.362  0.00  0.00    -0.150 F 
ENDBRANCH  16  19
ENDBRANCH   3  16
TORSDOF 3
