REMARK  Name = ZINC11938147
REMARK  8 active torsions:
REMARK  status: ('A' for Active; 'I' for Inactive)
REMARK    1  A    between atoms: N_9  and  C_10
REMARK    2  A    between atoms: C_10  and  C_11
REMARK    3  A    between atoms: C_11  and  C_12
REMARK    4  A    between atoms: C_12  and  N_13
REMARK    5  A    between atoms: C_14  and  C_16
REMARK    6  A    between atoms: C_16  and  C_17
REMARK    7  A    between atoms: N_24  and  C_25
REMARK    8  A    between atoms: C_25  and  C_26
REMARK                            x       y       z     vdW  Elec       q    Type
REMARK                         _______ _______ _______ _____ _____    ______ ____
ROOT
ATOM      1  C   UNL     1      -0.175   2.311   0.552  0.00  0.00    +0.028 C 
ATOM      2  C   UNL     1      -0.480   3.645  -0.068  0.00  0.00    +0.200 C 
ATOM      3  O   UNL     1       0.390   4.202  -0.704  0.00  0.00    -0.278 OA
ATOM      4  N   UNL     1      -1.669   4.244   0.052  0.00  0.00    -0.318 N 
ATOM      5  C   UNL     1      -2.792   3.642   0.765  0.00  0.00    +0.085 C 
ATOM      6  C   UNL     1      -2.292   2.528   1.687  0.00  0.00    -0.058 C 
ATOM      7  N   UNL     1      -1.425   1.627   0.911  0.00  0.00    +0.391 N 
ATOM      8  H   UNL     1      -1.782   5.233  -0.416  0.00  0.00    +0.149 HD
ATOM      9  H   UNL     1      -1.948   1.349  -0.016  0.00  0.00    -0.080 HD
ENDROOT
BRANCH   1  10
ATOM     10  C   UNL     1       0.605   1.453  -0.446  0.00  0.00    +0.089 C 
BRANCH  10  12
ATOM     11  N   UNL     1       0.262   0.529  -2.715  0.00  0.00    -0.315 N 
ATOM     12  C   UNL     1      -0.252   1.188  -1.657  0.00  0.00    +0.212 C 
ATOM     13  O   UNL     1      -1.403   1.569  -1.681  0.00  0.00    -0.276 OA
ATOM     14  H   UNL     1       1.307   0.184  -2.694  0.00  0.00    +0.149 HD
BRANCH  11  15
ATOM     15  C   UNL     1      -0.570   0.272  -3.893  0.00  0.00    +0.105 C 
BRANCH  15  16
ATOM     16  C   UNL     1       0.248  -0.485  -4.940  0.00  0.00    +0.037 C 
BRANCH  16  17
ATOM     17  C   UNL     1      -0.621  -0.754  -6.170  0.00  0.00    +0.106 C 
BRANCH  17  26
ATOM     18  C   UNL     1      -1.992  -2.946 -10.433  0.00  0.00    +0.000 A 
ATOM     19  C   UNL     1      -2.274  -1.659 -10.012  0.00  0.00    +0.002 A 
ATOM     20  C   UNL     1      -1.608  -1.119  -8.932  0.00  0.00    +0.023 A 
ATOM     21  C   UNL     1      -0.645  -1.868  -8.256  0.00  0.00    +0.033 A 
ATOM     22  C   UNL     1      -0.374  -3.162  -8.683  0.00  0.00    -0.025 A 
ATOM     23  C   UNL     1      -1.040  -3.696  -9.766  0.00  0.00    +0.005 A 
ATOM     24  C   UNL     1       0.687  -3.743  -7.769  0.00  0.00    +0.056 C 
ATOM     25  C   UNL     1       0.662  -2.780  -6.560  0.00  0.00    +0.110 C 
ATOM     26  N   UNL     1       0.148  -1.527  -7.154  0.00  0.00    -0.329 N 
ENDBRANCH  17  26
ENDBRANCH  16  17
ENDBRANCH  15  16
ENDBRANCH  11  15
ENDBRANCH  10  12
ENDBRANCH   1  10
BRANCH   7  27
ATOM     27  C   UNL     1      -1.153   0.389   1.654  0.00  0.00    -0.039 C 
BRANCH  27  28
ATOM     28  C   UNL     1      -2.382  -0.483   1.643  0.00  0.00    -0.026 A 
ATOM     29  C   UNL     1      -2.522  -1.468   0.683  0.00  0.00    +0.005 A 
ATOM     30  C   UNL     1      -3.648  -2.270   0.672  0.00  0.00    +0.003 A 
ATOM     31  C   UNL     1      -4.637  -2.088   1.621  0.00  0.00    +0.041 A 
ATOM     32  C   UNL     1      -4.500  -1.103   2.583  0.00  0.00    +0.159 A 
ATOM     33  C   UNL     1      -3.367  -0.303   2.598  0.00  0.00    +0.160 A 
ATOM     34  F   UNL     1      -3.228   0.656   3.540  0.00  0.00    -0.202 F 
ATOM     35  F   UNL     1      -5.466  -0.924   3.511  0.00  0.00    -0.202 F 
ENDBRANCH  27  28
ENDBRANCH   7  27
TORSDOF 8
