REMARK  Name = ZINC16113069
REMARK  10 active torsions:
REMARK  status: ('A' for Active; 'I' for Inactive)
REMARK    1  A    between atoms: C_1  and  O_2
REMARK    2  A    between atoms: O_2  and  C_3
REMARK    3  A    between atoms: C_3  and  C_5
REMARK    4  A    between atoms: N_10  and  S_12
REMARK    5  A    between atoms: S_12  and  C_15
REMARK    6  A    between atoms: C_18  and  N_21
REMARK    7  A    between atoms: C_22  and  C_24
REMARK    8  A    between atoms: C_24  and  C_25
REMARK    9  A    between atoms: C_25  and  C_26
REMARK   10  A    between atoms: C_26  and  C_27
REMARK                            x       y       z     vdW  Elec       q    Type
REMARK                         _______ _______ _______ _____ _____    ______ ____
ROOT
ATOM      1  C   UNL     1       0.342   0.451   8.378  0.00  0.00    +0.106 A 
ATOM      2  C   UNL     1       1.123  -0.684   8.261  0.00  0.00    +0.030 A 
ATOM      3  C   UNL     1       2.219  -0.858   9.085  0.00  0.00    +0.025 A 
ATOM      4  C   UNL     1       2.530   0.103  10.037  0.00  0.00    +0.033 A 
ATOM      5  C   UNL     1       1.740   1.240  10.155  0.00  0.00    +0.025 A 
ATOM      6  C   UNL     1       0.649   1.410   9.326  0.00  0.00    +0.030 A 
ENDROOT
BRANCH   4   7
ATOM      7  N   UNL     1       3.636  -0.072  10.875  0.00  0.00    -0.285 N 
ATOM      8  C   UNL     1       3.604   0.393  12.140  0.00  0.00    +0.217 C 
ATOM      9  O   UNL     1       2.584   0.878  12.582  0.00  0.00    -0.275 OA
ATOM     10  H   UNL     1       4.426  -0.529  10.546  0.00  0.00    +0.155 HD
BRANCH   8  11
ATOM     11  C   UNL     1       4.835   0.310  13.004  0.00  0.00    +0.096 C 
BRANCH  11  12
ATOM     12  C   UNL     1       4.532   0.903  14.382  0.00  0.00    +0.014 C 
BRANCH  12  13
ATOM     13  C   UNL     1       5.782   0.819  15.260  0.00  0.00    +0.038 C 
BRANCH  13  14
ATOM     14  C   UNL     1       5.484   1.403  16.617  0.00  0.00    -0.022 A 
ATOM     15  C   UNL     1       5.728   2.661  17.016  0.00  0.00    +0.087 A 
ATOM     16  N   UNL     1       5.321   2.827  18.312  0.00  0.00    -0.360 N 
ATOM     17  H   UNL     1       5.393   3.651  18.817  0.00  0.00    +0.165 HD
ATOM     18  C   UNL     1       4.798   1.647  18.792  0.00  0.00    +0.047 A 
ATOM     19  C   UNL     1       4.877   0.704  17.752  0.00  0.00    +0.003 A 
ATOM     20  C   UNL     1       4.414  -0.598  17.954  0.00  0.00    +0.010 A 
ATOM     21  C   UNL     1       3.885  -0.949  19.165  0.00  0.00    +0.001 A 
ATOM     22  C   UNL     1       3.805  -0.022  20.195  0.00  0.00    +0.002 A 
ATOM     23  C   UNL     1       4.256   1.268  20.016  0.00  0.00    +0.026 A 
ENDBRANCH  13  14
ENDBRANCH  12  13
ENDBRANCH  11  12
ENDBRANCH   8  11
ENDBRANCH   4   7
BRANCH   1  24
ATOM     24  S   UNL     1      -1.051   0.673   7.322  0.00  0.00    +0.061 S 
ATOM     25  O   UNL     1      -1.939   1.551   8.000  0.00  0.00    -0.153 OA
ATOM     26  O   UNL     1      -1.443  -0.623   6.890  0.00  0.00    -0.153 OA
BRANCH  24  31
ATOM     27  C   UNL     1      -0.798   1.216   3.567  0.00  0.00    +0.113 C 
ATOM     28  C   UNL     1      -0.678   2.737   3.447  0.00  0.00    +0.017 C 
ATOM     29  C   UNL     1      -1.296   3.398   4.682  0.00  0.00    +0.018 C 
ATOM     30  C   UNL     1      -0.534   2.949   5.933  0.00  0.00    +0.109 C 
ATOM     31  N   UNL     1      -0.522   1.480   5.977  0.00  0.00    -0.176 NA
ATOM     32  C   UNL     1      -0.031   0.742   4.805  0.00  0.00    +0.124 C 
BRANCH  27  33
ATOM     33  C   UNL     1      -0.218   0.567   2.337  0.00  0.00    +0.311 C 
ATOM     34  O   UNL     1       0.713  -0.197   2.439  0.00  0.00    -0.251 OA
BRANCH  33  36
ATOM     35  C   UNL     1      -0.126   0.177  -0.012  0.00  0.00    +0.280 C 
ATOM     36  O   UNL     1      -0.735   0.838   1.128  0.00  0.00    -0.468 OA
ENDBRANCH  33  36
ENDBRANCH  27  33
ENDBRANCH  24  31
ENDBRANCH   1  24
TORSDOF 9
