REMARK  Name = ZINC17009586
REMARK  12 active torsions:
REMARK  status: ('A' for Active; 'I' for Inactive)
REMARK    1  A    between atoms: C_1  and  C_2
REMARK    2  A    between atoms: C_5  and  S_23
REMARK    3  A    between atoms: C_7  and  C_8
REMARK    4  A    between atoms: C_8  and  O_10
REMARK    5  A    between atoms: O_10  and  C_11
REMARK    6  A    between atoms: C_11  and  C_13
REMARK    7  A    between atoms: C_11  and  C_14
REMARK    8  A    between atoms: N_19  and  C_20
REMARK    9  A    between atoms: C_20  and  C_21
REMARK   10  A    between atoms: C_20  and  C_22
REMARK   11  A    between atoms: S_23  and  N_26
REMARK   12  A    between atoms: C_31  and  C_33
REMARK                            x       y       z     vdW  Elec       q    Type
REMARK                         _______ _______ _______ _____ _____    ______ ____
ROOT
ATOM      1  C   UNL     1       2.470  -1.621  -8.160  0.00  0.00    +0.044 C 
ATOM      2  C   UNL     1       2.694  -1.401  -6.686  0.00  0.00    -0.036 A 
ATOM      3  C   UNL     1       3.417  -0.310  -6.252  0.00  0.00    +0.006 A 
ATOM      4  C   UNL     1       3.623  -0.107  -4.899  0.00  0.00    +0.029 A 
ATOM      5  C   UNL     1       3.105  -0.995  -3.973  0.00  0.00    +0.106 A 
ATOM      6  C   UNL     1       2.384  -2.093  -4.393  0.00  0.00    +0.043 A 
ATOM      7  C   UNL     1       2.168  -2.301  -5.757  0.00  0.00    +0.064 A 
ENDROOT
BRANCH   5   8
ATOM      8  S   UNL     1       3.373  -0.726  -2.252  0.00  0.00    +0.061 S 
ATOM      9  O   UNL     1       4.545   0.070  -2.143  0.00  0.00    -0.153 OA
ATOM     10  O   UNL     1       3.251  -1.992  -1.619  0.00  0.00    -0.153 OA
BRANCH   8  11
ATOM     11  N   UNL     1       2.117   0.202  -1.700  0.00  0.00    -0.174 NA
ATOM     12  C   UNL     1       2.259   1.659  -1.581  0.00  0.00    +0.110 C 
ATOM     13  C   UNL     1       1.887   2.077  -0.155  0.00  0.00    +0.017 C 
ATOM     14  C   UNL     1       0.487   1.553   0.176  0.00  0.00    +0.003 C 
ATOM     15  C   UNL     1       0.483   0.024   0.103  0.00  0.00    +0.020 C 
ATOM     16  C   UNL     1       0.840  -0.417  -1.320  0.00  0.00    +0.077 C 
ATOM     17  C   UNL     1       0.971  -1.940  -1.367  0.00  0.00    +0.026 C 
ENDBRANCH   8  11
ENDBRANCH   5   8
BRANCH   7  18
ATOM     18  C   UNL     1       1.393  -3.472  -6.215  0.00  0.00    +0.340 C 
ATOM     19  O   UNL     1       1.161  -3.623  -7.398  0.00  0.00    -0.245 OA
BRANCH  18  20
ATOM     20  O   UNL     1       0.941  -4.373  -5.321  0.00  0.00    -0.449 OA
BRANCH  20  21
ATOM     21  C   UNL     1       0.186  -5.498  -5.842  0.00  0.00    +0.259 C 
ATOM     22  C   UNL     1       1.143  -6.647  -6.168  0.00  0.00    +0.062 C 
BRANCH  21  23
ATOM     23  C   UNL     1      -0.813  -5.954  -4.810  0.00  0.00    +0.261 C 
ATOM     24  O   UNL     1      -0.882  -5.386  -3.741  0.00  0.00    -0.271 OA
ATOM     25  N   UNL     1      -1.630  -6.992  -5.075  0.00  0.00    -0.237 N 
ATOM     26  C   UNL     1      -2.524  -7.399  -4.152  0.00  0.00    +0.306 C 
ATOM     27  O   UNL     1      -2.593  -6.830  -3.081  0.00  0.00    -0.252 OA
ATOM     28  N   UNL     1      -3.341  -8.438  -4.418  0.00  0.00    -0.297 N 
ATOM     29  H   UNL     1      -1.575  -7.446  -5.931  0.00  0.00    +0.159 HD
ATOM     30  H   UNL     1      -3.286  -8.892  -5.273  0.00  0.00    +0.151 HD
BRANCH  28  31
ATOM     31  C   UNL     1      -4.313  -8.881  -3.415  0.00  0.00    +0.068 C 
ATOM     32  C   UNL     1      -5.585  -8.039  -3.531  0.00  0.00    +0.027 C 
ATOM     33  C   UNL     1      -4.652 -10.354  -3.649  0.00  0.00    +0.027 C 
ENDBRANCH  28  31
ENDBRANCH  21  23
ENDBRANCH  20  21
ENDBRANCH  18  20
ENDBRANCH   7  18
TORSDOF 7
