REMARK  Name = ZINC58392755
REMARK  12 active torsions:
REMARK  status: ('A' for Active; 'I' for Inactive)
REMARK    1  A    between atoms: C_1  and  C_2
REMARK    2  A    between atoms: C_5  and  C_38
REMARK    3  A    between atoms: N_8  and  C_10
REMARK    4  A    between atoms: C_10  and  C_11
REMARK    5  A    between atoms: C_10  and  C_12
REMARK    6  A    between atoms: C_10  and  C_13
REMARK    7  A    between atoms: C_13  and  N_14
REMARK    8  A    between atoms: C_15  and  C_17
REMARK    9  A    between atoms: C_17  and  C_19
REMARK   10  A    between atoms: C_17  and  N_30
REMARK   11  A    between atoms: C_19  and  C_20
REMARK   12  A    between atoms: C_31  and  C_33
REMARK                            x       y       z     vdW  Elec       q    Type
REMARK                         _______ _______ _______ _____ _____    ______ ____
ROOT
ATOM      1  C   UNL     1       3.762   1.904   2.165  0.00  0.00    +0.163 C 
ENDROOT
BRANCH   1   3
ATOM      2  N   UNL     1       2.801  -0.371   2.305  0.00  0.00    -0.315 N 
ATOM      3  C   UNL     1       3.883   0.403   2.090  0.00  0.00    +0.234 C 
ATOM      4  O   UNL     1       4.953  -0.107   1.837  0.00  0.00    -0.274 OA
ATOM      5  H   UNL     1       1.945   0.037   2.508  0.00  0.00    +0.149 HD
BRANCH   2   6
ATOM      6  C   UNL     1       2.918  -1.830   2.232  0.00  0.00    +0.092 C 
BRANCH   6   7
ATOM      7  C   UNL     1       1.589  -2.469   2.639  0.00  0.00    -0.055 C 
ATOM      8  C   UNL     1       1.737  -3.992   2.646  0.00  0.00    -0.008 C 
ATOM      9  C   UNL     1       0.503  -2.067   1.640  0.00  0.00    -0.008 C 
BRANCH   7  15
ATOM     10  C   UNL     1       3.028  -2.192   7.310  0.00  0.00    +0.005 C 
ATOM     11  C   UNL     1       1.925  -1.816   6.319  0.00  0.00    -0.031 C 
ATOM     12  C   UNL     1       0.595  -2.417   6.782  0.00  0.00    +0.003 C 
ATOM     13  C   UNL     1      -0.486  -2.101   5.745  0.00  0.00    -0.031 C 
ATOM     14  C   UNL     1      -0.049  -2.640   4.381  0.00  0.00    -0.075 C 
ATOM     15  N   UNL     1       1.214  -2.007   3.982  0.00  0.00    +0.384 N 
ATOM     16  C   UNL     1       2.273  -2.364   4.934  0.00  0.00    -0.075 C 
ATOM     17  C   UNL     1      -0.682  -0.586   5.657  0.00  0.00    +0.005 C 
ATOM     18  H   UNL     1       1.098  -1.005   3.971  0.00  0.00    -0.081 HD
ENDBRANCH   7  15
ENDBRANCH   6   7
ENDBRANCH   2   6
ENDBRANCH   1   3
BRANCH   1  19
ATOM     19  N   UNL     1       4.884   2.520   1.452  0.00  0.00    -0.299 N 
ATOM     20  C   UNL     1       6.149   2.275   1.847  0.00  0.00    +0.251 C 
ATOM     21  O   UNL     1       6.360   1.542   2.795  0.00  0.00    -0.270 OA
ATOM     22  H   UNL     1       4.716   3.104   0.696  0.00  0.00    +0.150 HD
BRANCH  20  23
ATOM     23  C   UNL     1       7.272   2.891   1.133  0.00  0.00    +0.074 A 
ATOM     24  C   UNL     1       8.632   2.767   1.371  0.00  0.00    +0.021 A 
ATOM     25  C   UNL     1       9.453   3.474   0.525  0.00  0.00    +0.008 A 
ATOM     26  C   UNL     1       8.897   4.226  -0.457  0.00  0.00    +0.046 A 
ATOM     27  S   UNL     1       7.244   3.990  -0.270  0.00  0.00    -0.092 S 
ENDBRANCH  20  23
ENDBRANCH   1  19
BRANCH   1  28
ATOM     28  C   UNL     1       3.785   2.345   3.630  0.00  0.00    +0.069 C 
BRANCH  28  29
ATOM     29  C   UNL     1       3.541   3.830   3.711  0.00  0.00    -0.020 A 
ATOM     30  C   UNL     1       4.477   4.790   3.772  0.00  0.00    +0.087 A 
ATOM     31  N   UNL     1       3.880   6.020   3.836  0.00  0.00    -0.360 N 
ATOM     32  H   UNL     1       4.352   6.866   3.887  0.00  0.00    +0.165 HD
ATOM     33  C   UNL     1       2.511   5.877   3.817  0.00  0.00    +0.047 A 
ATOM     34  C   UNL     1       2.239   4.500   3.732  0.00  0.00    +0.003 A 
ATOM     35  C   UNL     1       0.917   4.052   3.689  0.00  0.00    +0.010 A 
ATOM     36  C   UNL     1      -0.107   4.957   3.727  0.00  0.00    +0.001 A 
ATOM     37  C   UNL     1       0.157   6.317   3.807  0.00  0.00    +0.002 A 
ATOM     38  C   UNL     1       1.453   6.780   3.860  0.00  0.00    +0.026 A 
ENDBRANCH  28  29
ENDBRANCH   1  28
TORSDOF 8
