REMARK  Name = ZINC06149310
REMARK  13 active torsions:
REMARK  status: ('A' for Active; 'I' for Inactive)
REMARK    1  A    between atoms: C_1  and  C_2
REMARK    2  A    between atoms: C_2  and  C_3
REMARK    3  A    between atoms: C_3  and  C_4
REMARK    4  A    between atoms: C_3  and  C_5
REMARK    5  A    between atoms: C_3  and  N_6
REMARK    6  A    between atoms: C_7  and  C_11
REMARK    7  A    between atoms: C_11  and  C_13
REMARK    8  A    between atoms: C_11  and  N_69
REMARK    9  A    between atoms: C_19  and  C_25
REMARK   10  A    between atoms: C_26  and  C_27
REMARK   11  A    between atoms: C_26  and  N_69
REMARK   12  A    between atoms: C_33  and  C_34
REMARK   13  A    between atoms: C_33  and  N_69
REMARK                            x       y       z     vdW  Elec       q    Type
REMARK                         _______ _______ _______ _____ _____    ______ ____
ROOT
ATOM      1  C   UNL     1       5.323  -0.945  -1.480  0.00  0.00    +0.040 C 
ENDROOT
BRANCH   1   2
ATOM      2  C   UNL     1       5.882  -1.229  -2.850  0.00  0.00    +0.011 A 
ATOM      3  C   UNL     1       6.702  -0.328  -3.445  0.00  0.00    +0.017 A 
ATOM      4  C   UNL     1       7.233  -0.636  -4.774  0.00  0.00    -0.001 A 
ATOM      5  C   UNL     1       8.089   0.252  -5.436  0.00  0.00    +0.010 A 
ATOM      6  C   UNL     1       8.562  -0.063  -6.678  0.00  0.00    +0.001 A 
ATOM      7  C   UNL     1       8.203  -1.257  -7.289  0.00  0.00    +0.005 A 
ATOM      8  C   UNL     1       7.362  -2.146  -6.656  0.00  0.00    -0.026 A 
ATOM      9  C   UNL     1       6.866  -1.847  -5.391  0.00  0.00    +0.052 A 
ATOM     10  N   UNL     1       6.023  -2.718  -4.735  0.00  0.00    -0.322 N 
ATOM     11  H   UNL     1       5.764  -3.578  -5.175  0.00  0.00    +0.169 HD
ATOM     12  C   UNL     1       5.546  -2.429  -3.512  0.00  0.00    +0.251 A 
ATOM     13  O   UNL     1       4.803  -3.223  -2.961  0.00  0.00    -0.268 OA
ATOM     14  C   UNL     1       6.979  -3.438  -7.332  0.00  0.00    +0.046 C 
ENDBRANCH   1   2
BRANCH   1  16
ATOM     15  N   UNL     1       6.756  -1.801   0.449  0.00  0.00    -0.225 N 
ATOM     16  C   UNL     1       5.826  -1.981  -0.507  0.00  0.00    +0.143 A 
ATOM     17  N   UNL     1       5.447  -3.233  -0.433  0.00  0.00    -0.115 NA
ATOM     18  N   UNL     1       6.105  -3.792   0.523  0.00  0.00    -0.023 NA
ATOM     19  N   UNL     1       6.895  -2.929   1.060  0.00  0.00    -0.043 NA
BRANCH  15  20
ATOM     20  C   UNL     1       7.473  -0.558   0.743  0.00  0.00    +0.061 C 
ATOM     21  C   UNL     1       8.188  -0.071  -0.519  0.00  0.00    +0.036 C 
ATOM     22  C   UNL     1       6.478   0.507   1.208  0.00  0.00    +0.036 C 
BRANCH  20  24
ATOM     23  C   UNL     1       9.251   0.487   2.153  0.00  0.00    +0.006 C 
ATOM     24  C   UNL     1       8.502  -0.811   1.846  0.00  0.00    +0.026 C 
ENDBRANCH  20  24
ENDBRANCH  15  20
ENDBRANCH   1  16
BRANCH   1  25
ATOM     25  N   UNL     1       3.848  -1.018  -1.537  0.00  0.00    +0.397 N 
ATOM     26  H   UNL     1       3.572  -1.973  -1.793  0.00  0.00    -0.079 HD
BRANCH  25  27
ATOM     27  C   UNL     1       3.335  -0.080  -2.557  0.00  0.00    -0.041 C 
BRANCH  27  28
ATOM     28  C   UNL     1       1.862  -0.331  -2.751  0.00  0.00    -0.064 A 
ATOM     29  C   UNL     1       0.937   0.364  -1.994  0.00  0.00    +0.002 A 
ATOM     30  C   UNL     1      -0.414   0.134  -2.172  0.00  0.00    +0.000 A 
ATOM     31  C   UNL     1      -0.841  -0.792  -3.106  0.00  0.00    +0.000 A 
ATOM     32  C   UNL     1       0.084  -1.486  -3.863  0.00  0.00    +0.000 A 
ATOM     33  C   UNL     1       1.435  -1.256  -3.685  0.00  0.00    +0.002 A 
ENDBRANCH  27  28
ENDBRANCH  25  27
BRANCH  25  34
ATOM     34  C   UNL     1       3.274  -0.691  -0.215  0.00  0.00    -0.001 C 
BRANCH  34  35
ATOM     35  C   UNL     1       3.294  -1.932   0.639  0.00  0.00    +0.089 A 
ATOM     36  C   UNL     1       4.227  -2.241   1.557  0.00  0.00    +0.042 A 
ATOM     37  C   UNL     1       3.856  -3.485   2.116  0.00  0.00    +0.041 A 
ATOM     38  C   UNL     1       2.718  -3.863   1.506  0.00  0.00    +0.195 A 
ATOM     39  O   UNL     1       2.379  -2.915   0.617  0.00  0.00    -0.470 OA
ENDBRANCH  34  35
ENDBRANCH  25  34
ENDBRANCH   1  25
TORSDOF 9
