REMARK  Name = ZINC37084146
REMARK  6 active torsions:
REMARK  status: ('A' for Active; 'I' for Inactive)
REMARK    1  A    between atoms: C_1  and  N_2
REMARK    2  A    between atoms: N_2  and  C_3
REMARK    3  A    between atoms: N_2  and  C_8
REMARK    4  A    between atoms: C_8  and  C_10
REMARK    5  A    between atoms: C_8  and  C_12
REMARK    6  A    between atoms: C_10  and  N_11
REMARK                            x       y       z     vdW  Elec       q    Type
REMARK                         _______ _______ _______ _____ _____    ______ ____
ROOT
ATOM      1  C   UNL     1       0.691  -0.318  -1.341  0.00  0.00    -0.055 C 
ENDROOT
BRANCH   1   2
ATOM      2  C   UNL     1       2.123   0.146  -1.417  0.00  0.00    -0.058 A 
ATOM      3  C   UNL     1       2.605   0.706  -2.585  0.00  0.00    +0.051 A 
ATOM      4  C   UNL     1       3.922   1.134  -2.658  0.00  0.00    +0.163 A 
ATOM      5  C   UNL     1       4.755   1.001  -1.554  0.00  0.00    +0.176 A 
ATOM      6  C   UNL     1       4.265   0.437  -0.384  0.00  0.00    +0.063 A 
ATOM      7  C   UNL     1       2.949   0.016  -0.317  0.00  0.00    +0.021 A 
ATOM      8 BR   UNL     1       5.395   0.249   1.120  0.00  0.00    -0.046 Br
ATOM      9  O   UNL     1       6.048   1.422  -1.602  0.00  0.00    -0.484 OA
ATOM     10  C   UNL     1       6.607   1.638  -2.902  0.00  0.00    +0.270 C 
ATOM     11  C   UNL     1       5.595   2.439  -3.733  0.00  0.00    +0.270 C 
ATOM     12  O   UNL     1       4.384   1.680  -3.817  0.00  0.00    -0.485 OA
ENDBRANCH   1   2
BRANCH   1  14
ATOM     13  C   UNL     1       0.487   0.781   0.782  0.00  0.00    -0.095 C 
ATOM     14  N   UNL     1      -0.096   0.646  -0.560  0.00  0.00    +0.383 N 
ATOM     15  H   UNL     1      -1.047   0.320  -0.482  0.00  0.00    -0.081 HD
BRANCH  14  16
ATOM     16  C   UNL     1      -0.079   1.951  -1.234  0.00  0.00    -0.068 C 
ATOM     17  C   UNL     1      -0.857   2.988  -0.397  0.00  0.00    -0.015 C 
ATOM     18  C   UNL     1      -1.576   3.865  -1.452  0.00  0.00    -0.002 C 
ATOM     19  C   UNL     1      -1.988   2.833  -2.531  0.00  0.00    -0.002 C 
ATOM     20  C   UNL     1      -0.798   1.853  -2.591  0.00  0.00    -0.015 C 
ENDBRANCH  14  16
ENDBRANCH   1  14
BRANCH   1  21
ATOM     21  C   UNL     1       0.634  -1.689  -0.664  0.00  0.00    -0.098 C 
BRANCH  21  22
ATOM     22  N   UNL     1      -0.765  -2.119  -0.545  0.00  0.00    +0.377 N 
ATOM     23  H   UNL     1      -1.282  -1.437  -0.010  0.00  0.00    -0.090 HD
ATOM     24  H   UNL     1      -1.171  -2.203  -1.465  0.00  0.00    -0.090 HD
ATOM     25  H   UNL     1      -0.804  -3.012  -0.077  0.00  0.00    -0.090 HD
ENDBRANCH  21  22
ENDBRANCH   1  21
TORSDOF 5
