REMARK  Name = ZINC01190479
REMARK  6 active torsions:
REMARK  status: ('A' for Active; 'I' for Inactive)
REMARK    1  A    between atoms: C_1  and  C_2
REMARK    2  A    between atoms: C_3  and  C_20
REMARK    3  A    between atoms: C_4  and  C_10
REMARK    4  A    between atoms: C_20  and  O_22
REMARK    5  A    between atoms: O_22  and  C_23
REMARK    6  A    between atoms: C_23  and  C_24
REMARK                            x       y       z     vdW  Elec       q    Type
REMARK                         _______ _______ _______ _____ _____    ______ ____
ROOT
ATOM      1  C   UNL     1      -2.946  -1.591   3.388  0.00  0.00    +0.061 C 
ATOM      2  C   UNL     1      -2.662  -1.018   2.024  0.00  0.00    +0.021 C 
ATOM      3  C   UNL     1      -1.499  -1.318   1.407  0.00  0.00    +0.078 C 
ATOM      4  C   UNL     1      -1.254  -0.722   0.035  0.00  0.00    +0.144 C 
ATOM      5  N   UNL     1      -2.311   0.143  -0.514  0.00  0.00    -0.288 N 
ATOM      6  C   UNL     1      -3.419   0.351   0.224  0.00  0.00    +0.304 C 
ATOM      7  O   UNL     1      -4.297   1.064  -0.221  0.00  0.00    -0.252 OA
ATOM      8  N   UNL     1      -3.584  -0.203   1.432  0.00  0.00    -0.273 N 
ATOM      9  H   UNL     1      -2.212   0.554  -1.387  0.00  0.00    +0.151 HD
ATOM     10  H   UNL     1      -4.404  -0.015   1.914  0.00  0.00    +0.156 HD
ENDROOT
BRANCH   4  11
ATOM     11  C   UNL     1       0.019   0.082   0.099  0.00  0.00    -0.015 A 
ATOM     12  C   UNL     1      -0.032   1.430   0.285  0.00  0.00    +0.006 A 
ATOM     13  C   UNL     1       1.134   2.190   0.348  0.00  0.00    +0.001 A 
ATOM     14  C   UNL     1       2.358   1.607   0.225  0.00  0.00    +0.008 A 
ATOM     15  C   UNL     1       2.450   0.219   0.031  0.00  0.00    -0.018 A 
ATOM     16  C   UNL     1       1.264  -0.555  -0.032  0.00  0.00    -0.013 A 
ATOM     17  C   UNL     1       1.357  -1.944  -0.226  0.00  0.00    +0.009 A 
ATOM     18  C   UNL     1       2.581  -2.526  -0.350  0.00  0.00    +0.001 A 
ATOM     19  C   UNL     1       3.747  -1.766  -0.287  0.00  0.00    +0.001 A 
ATOM     20  C   UNL     1       3.696  -0.419  -0.100  0.00  0.00    +0.008 A 
ENDBRANCH   4  11
BRANCH   3  21
ATOM     21  C   UNL     1      -0.543  -2.162   2.019  0.00  0.00    +0.339 C 
ATOM     22  O   UNL     1       0.408  -1.679   2.605  0.00  0.00    -0.245 OA
BRANCH  21  23
ATOM     23  O   UNL     1      -0.686  -3.502   1.955  0.00  0.00    -0.457 OA
BRANCH  23  24
ATOM     24  C   UNL     1       0.253  -4.291   2.687  0.00  0.00    +0.268 C 
BRANCH  24  25
ATOM     25  C   UNL     1      -0.132  -5.745   2.596  0.00  0.00    -0.007 A 
ATOM     26  C   UNL     1       0.442  -6.551   1.630  0.00  0.00    +0.011 A 
ATOM     27  C   UNL     1       0.092  -7.886   1.542  0.00  0.00    +0.050 A 
ATOM     28  C   UNL     1      -0.836  -8.418   2.422  0.00  0.00    +0.166 A 
ATOM     29  C   UNL     1      -1.414  -7.606   3.395  0.00  0.00    +0.167 A 
ATOM     30  C   UNL     1      -1.054  -6.271   3.481  0.00  0.00    +0.056 A 
ATOM     31  O   UNL     1      -2.285  -8.358   4.129  0.00  0.00    -0.453 OA
ATOM     32  C   UNL     1      -2.540  -9.534   3.338  0.00  0.00    +0.466 C 
ATOM     33  O   UNL     1      -1.345  -9.679   2.547  0.00  0.00    -0.453 OA
ENDBRANCH  24  25
ENDBRANCH  23  24
ENDBRANCH  21  23
ENDBRANCH   3  21
TORSDOF 5
