REMARK  Name = ZINC36848240
REMARK  6 active torsions:
REMARK  status: ('A' for Active; 'I' for Inactive)
REMARK    1  A    between atoms: C_1  and  C_2
REMARK    2  A    between atoms: C_2  and  C_3
REMARK    3  A    between atoms: C_3  and  C_15
REMARK    4  A    between atoms: N_6  and  C_10
REMARK    5  A    between atoms: C_10  and  C_11
REMARK    6  A    between atoms: N_13  and  C_14
REMARK                            x       y       z     vdW  Elec       q    Type
REMARK                         _______ _______ _______ _____ _____    ______ ____
ROOT
ATOM      1  C   UNL     1      -1.433  -0.534   0.013  0.00  0.00    +0.138 C 
ATOM      2  C   UNL     1      -2.205   0.042   1.184  0.00  0.00    +0.251 C 
ATOM      3  O   UNL     1      -1.958  -0.098   2.363  0.00  0.00    -0.272 OA
ATOM      4  N   UNL     1      -3.222   0.740   0.642  0.00  0.00    -0.215 N 
ATOM      5  C   UNL     1      -3.200   0.687  -0.695  0.00  0.00    +0.310 C 
ATOM      6  O   UNL     1      -4.016   1.240  -1.406  0.00  0.00    -0.252 OA
ATOM      7  N   UNL     1      -2.175  -0.046  -1.163  0.00  0.00    -0.281 N 
ATOM      8  H   UNL     1      -1.964  -0.220  -2.094  0.00  0.00    +0.152 HD
ENDROOT
BRANCH   1   9
ATOM      9  C   UNL     1      -1.441  -2.040   0.057  0.00  0.00    -0.015 A 
ATOM     10  C   UNL     1      -0.412  -2.718   0.684  0.00  0.00    +0.006 A 
ATOM     11  C   UNL     1      -0.419  -4.100   0.725  0.00  0.00    +0.000 A 
ATOM     12  C   UNL     1      -1.454  -4.803   0.139  0.00  0.00    +0.000 A 
ATOM     13  C   UNL     1      -2.483  -4.125  -0.487  0.00  0.00    +0.000 A 
ATOM     14  C   UNL     1      -2.479  -2.744  -0.524  0.00  0.00    +0.006 A 
ENDBRANCH   1   9
BRANCH   1  16
ATOM     15  C   UNL     1      -0.019   1.526   0.010  0.00  0.00    +0.007 C 
ATOM     16  C   UNL     1       0.002  -0.004   0.002  0.00  0.00    +0.037 C 
ENDBRANCH   1  16
BRANCH   4  17
ATOM     17  C   UNL     1      -4.228   1.468   1.421  0.00  0.00    +0.213 C 
BRANCH  17  18
ATOM     18  C   UNL     1      -3.756   2.880   1.656  0.00  0.00    +0.231 C 
ATOM     19  O   UNL     1      -2.686   3.243   1.216  0.00  0.00    -0.274 OA
ATOM     20  N   UNL     1      -4.524   3.739   2.354  0.00  0.00    -0.317 N 
ATOM     21  C   UNL     1      -4.066   5.112   2.583  0.00  0.00    +0.128 C 
ATOM     22  H   UNL     1      -5.380   3.449   2.706  0.00  0.00    +0.148 HD
ENDBRANCH  17  18
ENDBRANCH   4  17
TORSDOF 4
