REMARK  Name = ZINC36207535
REMARK  15 active torsions:
REMARK  status: ('A' for Active; 'I' for Inactive)
REMARK    1  A    between atoms: C_1  and  C_2
REMARK    2  A    between atoms: C_8  and  C_17
REMARK    3  A    between atoms: C_12  and  C_13
REMARK    4  A    between atoms: C_13  and  O_15
REMARK    5  A    between atoms: O_15  and  C_16
REMARK    6  A    between atoms: C_17  and  N_18
REMARK    7  A    between atoms: N_18  and  C_19
REMARK    8  A    between atoms: N_18  and  C_32
REMARK    9  A    between atoms: C_19  and  C_20
REMARK   10  A    between atoms: C_20  and  C_22
REMARK   11  A    between atoms: C_20  and  O_31
REMARK   12  A    between atoms: C_22  and  O_23
REMARK   13  A    between atoms: O_23  and  C_24
REMARK   14  A    between atoms: C_32  and  C_33
REMARK   15  A    between atoms: C_32  and  C_34
REMARK                            x       y       z     vdW  Elec       q    Type
REMARK                         _______ _______ _______ _____ _____    ______ ____
ROOT
ATOM      1  N   UNL     1      -0.341  -4.748  -4.065  0.00  0.00    +0.388 N 
ATOM      2  H   UNL     1      -1.155  -5.103  -3.586  0.00  0.00    -0.081 HD
ENDROOT
BRANCH   1   3
ATOM      3  C   UNL     1       0.799  -4.718  -3.138  0.00  0.00    -0.074 C 
ATOM      4  C   UNL     1       2.027  -4.160  -3.859  0.00  0.00    -0.014 C 
ATOM      5  C   UNL     1       0.460  -3.826  -1.942  0.00  0.00    -0.014 C 
ENDBRANCH   1   3
BRANCH   1   6
ATOM      6  C   UNL     1      -0.613  -3.389  -4.551  0.00  0.00    -0.003 C 
BRANCH   6  14
ATOM      7  C   UNL     1      -4.463   0.507  -0.774  0.00  0.00    +0.046 C 
ATOM      8  C   UNL     1      -4.035  -0.937  -0.780  0.00  0.00    -0.015 A 
ATOM      9  C   UNL     1      -3.180  -1.410  -1.779  0.00  0.00    +0.076 A 
ATOM     10  C   UNL     1      -2.578  -0.680  -2.917  0.00  0.00    +0.260 A 
ATOM     11  O   UNL     1      -2.802   0.505  -3.089  0.00  0.00    -0.267 OA
ATOM     12  N   UNL     1      -1.775  -1.360  -3.759  0.00  0.00    -0.312 N 
ATOM     13  H   UNL     1      -1.372  -0.897  -4.510  0.00  0.00    +0.170 HD
ATOM     14  C   UNL     1      -1.518  -2.679  -3.577  0.00  0.00    +0.094 A 
ATOM     15  N   UNL     1      -2.033  -3.352  -2.584  0.00  0.00    -0.229 NA
ATOM     16  C   UNL     1      -2.837  -2.779  -1.698  0.00  0.00    +0.116 A 
ATOM     17  S   UNL     1      -3.709  -3.334  -0.255  0.00  0.00    -0.062 S 
ATOM     18  C   UNL     1      -4.476  -1.786   0.193  0.00  0.00    +0.102 A 
BRANCH  18  19
ATOM     19  C   UNL     1      -5.362  -1.499   1.323  0.00  0.00    +0.346 C 
ATOM     20  O   UNL     1      -5.803  -0.376   1.480  0.00  0.00    -0.244 OA
BRANCH  19  21
ATOM     21  O   UNL     1      -5.689  -2.479   2.190  0.00  0.00    -0.464 OA
ATOM     22  C   UNL     1      -6.558  -2.128   3.269  0.00  0.00    +0.280 C 
ENDBRANCH  19  21
ENDBRANCH  18  19
ENDBRANCH   6  14
ENDBRANCH   1   6
BRANCH   1  23
ATOM     23  C   UNL     1      -0.024  -5.621  -5.203  0.00  0.00    -0.043 C 
BRANCH  23  24
ATOM     24  C   UNL     1       0.103  -7.066  -4.718  0.00  0.00    +0.135 C 
BRANCH  24  25
ATOM     25  O   UNL     1       1.282  -7.200  -3.922  0.00  0.00    -0.390 OA
ATOM     26  H   UNL     1       2.093  -6.925  -4.371  0.00  0.00    +0.210 HD
ENDBRANCH  24  25
BRANCH  24  27
ATOM     27  C   UNL     1       0.193  -8.003  -5.924  0.00  0.00    +0.258 C 
BRANCH  27  28
ATOM     28  O   UNL     1       0.194  -9.359  -5.475  0.00  0.00    -0.489 OA
BRANCH  28  29
ATOM     29  C   UNL     1       0.270 -10.325  -6.428  0.00  0.00    +0.121 A 
ATOM     30  C   UNL     1       0.348  -9.974  -7.768  0.00  0.00    +0.047 A 
ATOM     31  C   UNL     1       0.425 -10.957  -8.735  0.00  0.00    +0.023 A 
ATOM     32  C   UNL     1       0.424 -12.291  -8.369  0.00  0.00    +0.041 A 
ATOM     33  C   UNL     1       0.346 -12.644  -7.033  0.00  0.00    +0.023 A 
ATOM     34  C   UNL     1       0.276 -11.663  -6.062  0.00  0.00    +0.047 A 
ATOM     35 CL   UNL     1       0.520 -13.525  -9.586  0.00  0.00    -0.084 Cl
ENDBRANCH  28  29
ENDBRANCH  27  28
ENDBRANCH  24  27
ENDBRANCH  23  24
ENDBRANCH   1  23
TORSDOF 11
