REMARK  Name = ZINC34791085
REMARK  12 active torsions:
REMARK  status: ('A' for Active; 'I' for Inactive)
REMARK    1  A    between atoms: C_1  and  C_2
REMARK    2  A    between atoms: C_2  and  N_3
REMARK    3  A    between atoms: C_6  and  C_11
REMARK    4  A    between atoms: C_14  and  C_17
REMARK    5  A    between atoms: N_23  and  C_25
REMARK    6  A    between atoms: C_25  and  C_27
REMARK    7  A    between atoms: C_25  and  C_30
REMARK    8  A    between atoms: C_27  and  C_28
REMARK    9  A    between atoms: C_27  and  C_29
REMARK   10  A    between atoms: N_32  and  C_33
REMARK   11  A    between atoms: C_33  and  C_34
REMARK   12  A    between atoms: C_34  and  C_35
REMARK                            x       y       z     vdW  Elec       q    Type
REMARK                         _______ _______ _______ _____ _____    ______ ____
ROOT
ATOM      1  N   UNL     1       0.393   0.029   0.971  0.00  0.00    -0.257 N 
ATOM      2  C   UNL     1      -0.622  -0.314   1.817  0.00  0.00    +0.042 C 
ATOM      3  C   UNL     1      -1.819  -0.721   1.346  0.00  0.00    +0.058 C 
ATOM      4  C   UNL     1      -1.999  -0.783  -0.158  0.00  0.00    +0.142 C 
ATOM      5  N   UNL     1      -0.844  -0.393  -0.984  0.00  0.00    -0.288 N 
ATOM      6  C   UNL     1       0.287  -0.003  -0.364  0.00  0.00    +0.307 C 
ATOM      7  O   UNL     1       1.244   0.325  -1.038  0.00  0.00    -0.252 OA
ATOM      8  C   UNL     1      -2.692  -1.016   2.413  0.00  0.00    +0.247 C 
ATOM      9  O   UNL     1      -3.837  -1.405   2.277  0.00  0.00    -0.270 OA
ATOM     10  N   UNL     1      -2.094  -0.812   3.600  0.00  0.00    -0.280 N 
ATOM     11  C   UNL     1      -0.726  -0.348   3.326  0.00  0.00    +0.160 C 
ATOM     12  H   UNL     1      -0.898  -0.412  -1.952  0.00  0.00    +0.151 HD
ENDROOT
BRANCH   4  13
ATOM     13  C   UNL     1      -2.374  -2.197  -0.522  0.00  0.00    -0.023 A 
ATOM     14  C   UNL     1      -1.396  -3.171  -0.608  0.00  0.00    +0.006 A 
ATOM     15  C   UNL     1      -1.740  -4.467  -0.943  0.00  0.00    +0.013 A 
ATOM     16  C   UNL     1      -3.061  -4.790  -1.190  0.00  0.00    +0.055 A 
ATOM     17  C   UNL     1      -4.039  -3.816  -1.102  0.00  0.00    +0.013 A 
ATOM     18  C   UNL     1      -3.695  -2.521  -0.764  0.00  0.00    +0.006 A 
BRANCH  16  19
ATOM     19  C   UNL     1      -3.436  -6.203  -1.555  0.00  0.00    +0.417 C 
ATOM     20  F   UNL     1      -3.721  -6.926  -0.392  0.00  0.00    -0.166 F 
ATOM     21  F   UNL     1      -4.564  -6.187  -2.382  0.00  0.00    -0.166 F 
ATOM     22  F   UNL     1      -2.371  -6.808  -2.231  0.00  0.00    -0.166 F 
ENDBRANCH  16  19
ENDBRANCH   4  13
BRANCH   1  24
ATOM     23  C   UNL     1       1.642   1.977   1.762  0.00  0.00    +0.025 C 
ATOM     24  C   UNL     1       1.665   0.461   1.554  0.00  0.00    +0.111 C 
ENDBRANCH   1  24
BRANCH  10  25
ATOM     25  C   UNL     1      -2.694  -1.014   4.922  0.00  0.00    +0.165 C 
BRANCH  25  26
ATOM     26  C   UNL     1      -3.111  -2.454   5.069  0.00  0.00    +0.234 C 
ATOM     27  O   UNL     1      -3.131  -3.182   4.099  0.00  0.00    -0.274 OA
ATOM     28  N   UNL     1      -3.462  -2.934   6.279  0.00  0.00    -0.313 N 
ATOM     29  H   UNL     1      -3.384  -2.371   7.065  0.00  0.00    +0.149 HD
BRANCH  28  30
ATOM     30  C   UNL     1      -3.961  -4.306   6.406  0.00  0.00    +0.109 C 
BRANCH  30  31
ATOM     31  C   UNL     1      -4.284  -4.596   7.873  0.00  0.00    +0.054 C 
BRANCH  31  32
ATOM     32  C   UNL     1      -4.798  -6.007   8.004  0.00  0.00    -0.046 A 
ATOM     33  C   UNL     1      -6.151  -6.264   7.890  0.00  0.00    +0.004 A 
ATOM     34  C   UNL     1      -6.622  -7.558   8.010  0.00  0.00    +0.000 A 
ATOM     35  C   UNL     1      -5.739  -8.595   8.245  0.00  0.00    +0.000 A 
ATOM     36  C   UNL     1      -4.385  -8.339   8.359  0.00  0.00    +0.000 A 
ATOM     37  C   UNL     1      -3.914  -7.045   8.234  0.00  0.00    +0.004 A 
ENDBRANCH  31  32
ENDBRANCH  30  31
ENDBRANCH  28  30
ENDBRANCH  25  26
BRANCH  25  38
ATOM     38  C   UNL     1      -3.920  -0.110   5.068  0.00  0.00    +0.012 C 
ATOM     39  C   UNL     1      -4.457  -0.207   6.498  0.00  0.00    +0.009 C 
ATOM     40  C   UNL     1      -3.526   1.337   4.769  0.00  0.00    +0.009 C 
ENDBRANCH  25  38
ENDBRANCH  10  25
TORSDOF 9
