REMARK  Name = ZINC20156238
REMARK  6 active torsions:
REMARK  status: ('A' for Active; 'I' for Inactive)
REMARK    1  A    between atoms: C_1  and  C_2
REMARK    2  A    between atoms: C_5  and  N_8
REMARK    3  A    between atoms: C_15  and  C_25
REMARK    4  A    between atoms: C_22  and  O_23
REMARK    5  A    between atoms: O_23  and  C_24
REMARK    6  A    between atoms: C_26  and  C_28
REMARK                            x       y       z     vdW  Elec       q    Type
REMARK                         _______ _______ _______ _____ _____    ______ ____
ROOT
ATOM      1  N   UNL     1      -1.213  -0.727   0.083  0.00  0.00    -0.243 N 
ATOM      2  C   UNL     1      -2.379  -0.071   0.189  0.00  0.00    +0.150 C 
ATOM      3  S   UNL     1      -2.352   1.624   0.427  0.00  0.00    -0.018 S 
ATOM      4  N   UNL     1      -3.566  -0.695   0.116  0.00  0.00    -0.239 N 
ATOM      5  C   UNL     1      -3.615  -2.140  -0.165  0.00  0.00    +0.123 C 
ATOM      6  C   UNL     1      -2.428  -2.794   0.560  0.00  0.00    +0.096 C 
ATOM      7  C   UNL     1      -1.152  -2.181  -0.041  0.00  0.00    +0.183 C 
ATOM      8  O   UNL     1      -1.049  -2.577  -1.400  0.00  0.00    -0.464 OA
ATOM      9  C   UNL     1      -2.157  -2.514  -2.183  0.00  0.00    +0.170 A 
ATOM     10  C   UNL     1      -3.418  -2.317  -1.653  0.00  0.00    +0.019 A 
ATOM     11  C   UNL     1      -4.524  -2.279  -2.485  0.00  0.00    +0.009 A 
ATOM     12  C   UNL     1      -4.375  -2.430  -3.850  0.00  0.00    +0.004 A 
ATOM     13  C   UNL     1      -3.116  -2.622  -4.390  0.00  0.00    +0.049 A 
ATOM     14  C   UNL     1      -2.007  -2.664  -3.563  0.00  0.00    +0.162 A 
ATOM     15  C   UNL     1       0.064  -2.705   0.727  0.00  0.00    +0.079 C 
ATOM     16  C   UNL     1      -4.707  -0.002   0.299  0.00  0.00    +0.288 C 
ATOM     17  O   UNL     1      -4.669   1.205   0.446  0.00  0.00    -0.266 OA
ENDROOT
BRANCH   1  22
ATOM     18  C   UNL     1       3.622   2.239   0.092  0.00  0.00    +0.044 C 
ATOM     19  C   UNL     1       2.337   1.451   0.089  0.00  0.00    -0.050 A 
ATOM     20  C   UNL     1       1.909   0.834  -1.071  0.00  0.00    +0.005 A 
ATOM     21  C   UNL     1       0.732   0.111  -1.077  0.00  0.00    +0.024 A 
ATOM     22  C   UNL     1      -0.021   0.004   0.085  0.00  0.00    +0.039 A 
ATOM     23  C   UNL     1       0.413   0.625   1.249  0.00  0.00    +0.024 A 
ATOM     24  C   UNL     1       1.590   1.347   1.248  0.00  0.00    +0.005 A 
ENDBRANCH   1  22
BRANCH  16  25
ATOM     25  C   UNL     1      -5.994  -0.702   0.320  0.00  0.00    +0.191 A 
ATOM     26  C   UNL     1      -7.206  -0.145   0.614  0.00  0.00    +0.056 A 
ATOM     27  C   UNL     1      -8.157  -1.171   0.514  0.00  0.00    +0.058 A 
ATOM     28  C   UNL     1      -7.492  -2.298   0.169  0.00  0.00    +0.171 A 
ATOM     29  O   UNL     1      -6.190  -2.010   0.047  0.00  0.00    -0.444 OA
ATOM     30 BR   UNL     1      -8.274  -3.998  -0.106  0.00  0.00    -0.008 Br
ENDBRANCH  16  25
BRANCH  14  31
ATOM     31  O   UNL     1      -0.770  -2.852  -4.095  0.00  0.00    -0.491 OA
ATOM     32  C   UNL     1      -0.690  -2.998  -5.514  0.00  0.00    +0.277 C 
ENDBRANCH  14  31
TORSDOF 3
