REMARK  Name = ZINC49548287
REMARK  7 active torsions:
REMARK  status: ('A' for Active; 'I' for Inactive)
REMARK    1  A    between atoms: C_1  and  C_2
REMARK    2  A    between atoms: C_2  and  C_3
REMARK    3  A    between atoms: C_2  and  C_4
REMARK    4  A    between atoms: C_2  and  N_5
REMARK    5  A    between atoms: C_10  and  C_16
REMARK    6  A    between atoms: C_13  and  O_15
REMARK    7  A    between atoms: C_19  and  C_21
REMARK                            x       y       z     vdW  Elec       q    Type
REMARK                         _______ _______ _______ _____ _____    ______ ____
ROOT
ATOM      1  N   UNL     1       0.688  -0.476  -1.203  0.00  0.00    -0.241 N 
ATOM      2  C   UNL     1       0.891  -1.765  -1.550  0.00  0.00    +0.159 A 
ATOM      3  C   UNL     1       1.567  -1.760  -2.763  0.00  0.00    +0.027 A 
ATOM      4  C   UNL     1       1.771  -0.444  -3.131  0.00  0.00    +0.141 A 
ATOM      5  N   UNL     1       1.246   0.330  -2.208  0.00  0.00    -0.177 NA
ATOM      6  C   UNL     1       1.949  -3.042  -3.459  0.00  0.00    +0.099 C 
ATOM      7  C   UNL     1       2.156  -4.112  -2.380  0.00  0.00    +0.111 C 
ATOM      8  C   UNL     1       1.091  -4.042  -1.324  0.00  0.00    +0.190 C 
ATOM      9  N   UNL     1       0.535  -2.932  -0.939  0.00  0.00    -0.198 NA
ENDROOT
BRANCH   6  10
ATOM     10  C   UNL     1       0.845  -3.465  -4.394  0.00  0.00    +0.114 A 
ATOM     11  C   UNL     1       0.964  -3.631  -5.726  0.00  0.00    +0.046 A 
ATOM     12  C   UNL     1      -0.300  -4.028  -6.207  0.00  0.00    +0.050 A 
ATOM     13  C   UNL     1      -1.129  -4.082  -5.131  0.00  0.00    +0.135 A 
ATOM     14  O   UNL     1      -0.419  -3.744  -4.037  0.00  0.00    -0.459 OA
BRANCH  13  15
ATOM     15  C   UNL     1      -2.559  -4.455  -5.156  0.00  0.00    +0.017 A 
ATOM     16  C   UNL     1      -3.173  -4.797  -6.362  0.00  0.00    +0.011 A 
ATOM     17  C   UNL     1      -4.508  -5.144  -6.379  0.00  0.00    +0.001 A 
ATOM     18  C   UNL     1      -5.238  -5.152  -5.204  0.00  0.00    +0.000 A 
ATOM     19  C   UNL     1      -4.636  -4.814  -4.005  0.00  0.00    +0.001 A 
ATOM     20  C   UNL     1      -3.300  -4.471  -3.974  0.00  0.00    +0.011 A 
ENDBRANCH  13  15
ENDBRANCH   6  10
BRANCH   1  22
ATOM     21  C   UNL     1      -0.019   1.526   0.010  0.00  0.00    +0.036 C 
ATOM     22  C   UNL     1       0.002  -0.004   0.002  0.00  0.00    +0.057 C 
ATOM     23  C   UNL     1       0.742  -0.511   1.242  0.00  0.00    +0.036 C 
ATOM     24  C   UNL     1      -1.433  -0.534   0.013  0.00  0.00    +0.036 C 
ENDBRANCH   1  22
BRANCH   8  25
ATOM     25  O   UNL     1       0.690  -5.192  -0.745  0.00  0.00    -0.495 OA
ATOM     26  H   UNL     1       0.003  -5.075  -0.074  0.00  0.00    +0.293 HD
ENDBRANCH   8  25
TORSDOF 4
