REMARK  Name = ZINC09087167
REMARK  4 active torsions:
REMARK  status: ('A' for Active; 'I' for Inactive)
REMARK    1  A    between atoms: C_4  and  C_7
REMARK    2  A    between atoms: C_7  and  S_8
REMARK    3  A    between atoms: S_8  and  C_9
REMARK    4  A    between atoms: C_14  and  C_24
REMARK                            x       y       z     vdW  Elec       q    Type
REMARK                         _______ _______ _______ _____ _____    ______ ____
ROOT
ATOM      1  C   UNL     1       3.464   2.052  -0.376  0.00  0.00    +0.211 A 
ATOM      2  N   UNL     1       3.082   2.644   0.757  0.00  0.00    -0.184 NA
ATOM      3  C   UNL     1       1.810   2.361   1.008  0.00  0.00    +0.250 A 
ATOM      4  N   UNL     1       1.376   1.562  -0.003  0.00  0.00    -0.218 N 
ATOM      5  N   UNL     1       2.452   1.379  -0.875  0.00  0.00    -0.141 NA
ATOM      6  C   UNL     1      -0.013   1.086   0.008  0.00  0.00    +0.175 C 
ATOM      7  C   UNL     1      -0.864   1.541   1.178  0.00  0.00    +0.130 C 
ATOM      8  C   UNL     1      -2.143   1.156   1.273  0.00  0.00    +0.144 C 
ATOM      9  C   UNL     1      -3.009   1.596   2.424  0.00  0.00    +0.075 C 
ATOM     10  C   UNL     1      -2.134   1.814   3.661  0.00  0.00    +0.013 C 
ATOM     11  C   UNL     1      -1.055   2.849   3.331  0.00  0.00    +0.052 C 
ATOM     12  C   UNL     1      -0.255   2.369   2.144  0.00  0.00    +0.035 C 
ATOM     13  N   UNL     1       0.997   2.727   2.023  0.00  0.00    -0.219 NA
ATOM     14  O   UNL     1      -2.667   0.359   0.318  0.00  0.00    -0.297 OA
ENDROOT
BRANCH   6  15
ATOM     15  C   UNL     1      -0.679   1.551  -1.261  0.00  0.00    +0.067 A 
ATOM     16  C   UNL     1      -0.393   2.807  -1.762  0.00  0.00    +0.025 A 
ATOM     17  C   UNL     1      -1.007   3.223  -2.934  0.00  0.00    +0.003 A 
ATOM     18  C   UNL     1      -1.898   2.360  -3.554  0.00  0.00    +0.020 A 
ATOM     19  C   UNL     1      -2.138   1.121  -2.991  0.00  0.00    +0.111 A 
ATOM     20  N   UNL     1      -1.532   0.756  -1.878  0.00  0.00    -0.258 NA
ENDBRANCH   6  15
BRANCH   1  21
ATOM     21  S   UNL     1       5.072   2.155  -1.089  0.00  0.00    -0.080 S 
BRANCH  21  22
ATOM     22  C   UNL     1       5.995   3.213   0.059  0.00  0.00    +0.112 C 
BRANCH  22  26
ATOM     23  C   UNL     1       9.995   3.702  -1.355  0.00  0.00    +0.000 A 
ATOM     24  C   UNL     1       9.011   4.590  -1.746  0.00  0.00    +0.000 A 
ATOM     25  C   UNL     1       7.716   4.432  -1.289  0.00  0.00    +0.004 A 
ATOM     26  C   UNL     1       7.406   3.386  -0.440  0.00  0.00    -0.037 A 
ATOM     27  C   UNL     1       8.392   2.501  -0.044  0.00  0.00    +0.004 A 
ATOM     28  C   UNL     1       9.686   2.656  -0.506  0.00  0.00    +0.000 A 
ENDBRANCH  22  26
ENDBRANCH  21  22
ENDBRANCH   1  21
TORSDOF 4
