REMARK  Name = ZINC41022012
REMARK  8 active torsions:
REMARK  status: ('A' for Active; 'I' for Inactive)
REMARK    1  A    between atoms: C_4  and  C_7
REMARK    2  A    between atoms: C_7  and  C_9
REMARK    3  A    between atoms: C_7  and  N_27
REMARK    4  A    between atoms: C_9  and  N_10
REMARK    5  A    between atoms: C_11  and  C_13
REMARK    6  A    between atoms: C_13  and  C_14
REMARK    7  A    between atoms: C_14  and  C_15
REMARK    8  A    between atoms: C_18  and  C_20
REMARK                            x       y       z     vdW  Elec       q    Type
REMARK                         _______ _______ _______ _____ _____    ______ ____
ROOT
ATOM      1  N   UNL     1       5.282  -1.983  -1.450  0.00  0.00    -0.317 N 
ATOM      2  C   UNL     1       5.798  -2.472  -2.595  0.00  0.00    +0.213 C 
ATOM      3  O   UNL     1       5.205  -2.319  -3.642  0.00  0.00    -0.276 OA
ATOM      4  H   UNL     1       5.756  -2.106  -0.613  0.00  0.00    +0.149 HD
ENDROOT
BRANCH   1   5
ATOM      5  C   UNL     1       4.005  -1.266  -1.470  0.00  0.00    +0.093 C 
BRANCH   5   6
ATOM      6  C   UNL     1       3.713  -0.704  -0.077  0.00  0.00    -0.020 C 
BRANCH   6   7
ATOM      7  N   UNL     1       2.391  -0.064  -0.073  0.00  0.00    +0.385 N 
ATOM      8  C   UNL     1       2.137   0.523   1.248  0.00  0.00    -0.078 C 
ATOM      9  C   UNL     1       0.796   1.261   1.233  0.00  0.00    -0.019 C 
ATOM     10  C   UNL     1      -0.321   0.272   0.888  0.00  0.00    -0.004 C 
ATOM     11  C   UNL     1      -0.007  -0.389  -0.457  0.00  0.00    -0.019 C 
ATOM     12  C   UNL     1       1.363  -1.066  -0.380  0.00  0.00    -0.078 C 
ATOM     13  H   UNL     1       2.369   0.663  -0.772  0.00  0.00    -0.081 HD
ENDBRANCH   6   7
BRANCH   6  17
ATOM     14  C   UNL     1       6.695   2.178   0.947  0.00  0.00    +0.000 A 
ATOM     15  C   UNL     1       6.777   0.891   1.446  0.00  0.00    +0.000 A 
ATOM     16  C   UNL     1       5.812  -0.041   1.115  0.00  0.00    +0.002 A 
ATOM     17  C   UNL     1       4.765   0.313   0.285  0.00  0.00    -0.059 A 
ATOM     18  C   UNL     1       4.683   1.599  -0.213  0.00  0.00    +0.002 A 
ATOM     19  C   UNL     1       5.648   2.532   0.117  0.00  0.00    +0.000 A 
ENDBRANCH   6  17
ENDBRANCH   5   6
ENDBRANCH   1   5
BRANCH   2  20
ATOM     20  C   UNL     1       7.112  -3.210  -2.575  0.00  0.00    +0.105 C 
BRANCH  20  21
ATOM     21  C   UNL     1       7.468  -3.657  -3.994  0.00  0.00    +0.105 C 
BRANCH  21  22
ATOM     22  C   UNL     1       8.781  -4.395  -3.974  0.00  0.00    +0.197 A 
ATOM     23  N   UNL     1       8.925  -5.680  -3.811  0.00  0.00    -0.221 NA
ATOM     24  C   UNL     1      10.232  -5.980  -3.849  0.00  0.00    +0.161 A 
ATOM     25  C   UNL     1      10.911  -4.821  -4.045  0.00  0.00    +0.155 A 
ATOM     26  O   UNL     1       9.990  -3.836  -4.126  0.00  0.00    -0.440 OA
BRANCH  25  27
ATOM     27  C   UNL     1      12.378  -4.666  -4.152  0.00  0.00    +0.019 A 
ATOM     28  C   UNL     1      12.937  -3.403  -4.348  0.00  0.00    +0.013 A 
ATOM     29  C   UNL     1      14.306  -3.265  -4.448  0.00  0.00    +0.021 A 
ATOM     30  C   UNL     1      15.125  -4.377  -4.354  0.00  0.00    +0.041 A 
ATOM     31  C   UNL     1      14.576  -5.634  -4.161  0.00  0.00    +0.021 A 
ATOM     32  C   UNL     1      13.209  -5.783  -4.053  0.00  0.00    +0.013 A 
ATOM     33 CL   UNL     1      16.847  -4.196  -4.481  0.00  0.00    -0.084 Cl
ENDBRANCH  25  27
ENDBRANCH  21  22
ENDBRANCH  20  21
ENDBRANCH   2  20
TORSDOF 8
