REMARK  Name = ZINC37481285
REMARK  7 active torsions:
REMARK  status: ('A' for Active; 'I' for Inactive)
REMARK    1  A    between atoms: C_1  and  C_2
REMARK    2  A    between atoms: C_2  and  C_3
REMARK    3  A    between atoms: C_3  and  C_4
REMARK    4  A    between atoms: C_4  and  C_5
REMARK    5  A    between atoms: C_4  and  C_6
REMARK    6  A    between atoms: C_4  and  N_15
REMARK    7  A    between atoms: C_11  and  C_14
REMARK                            x       y       z     vdW  Elec       q    Type
REMARK                         _______ _______ _______ _____ _____    ______ ____
ROOT
ATOM      1  C   UNL     1       1.550  -2.512  -2.439  0.00  0.00    +0.207 C 
ATOM      2  O   UNL     1       1.677  -1.810  -3.420  0.00  0.00    -0.277 OA
ATOM      3  N   UNL     1       2.133  -3.727  -2.400  0.00  0.00    -0.266 N 
ATOM      4  C   UNL     1       2.880  -4.174  -3.483  0.00  0.00    +0.165 A 
ATOM      5  N   UNL     1       3.510  -5.320  -3.624  0.00  0.00    -0.230 NA
ATOM      6  C   UNL     1       4.184  -5.598  -4.725  0.00  0.00    +0.047 A 
ATOM      7  C   UNL     1       4.194  -4.652  -5.696  0.00  0.00    +0.071 A 
ATOM      8  S   UNL     1       3.193  -3.384  -4.936  0.00  0.00    -0.060 S 
ATOM      9  C   UNL     1       4.909  -6.908  -4.895  0.00  0.00    +0.066 C 
ATOM     10  H   UNL     1       2.031  -4.288  -1.616  0.00  0.00    +0.157 HD
ENDROOT
BRANCH   1  11
ATOM     11  C   UNL     1       0.739  -2.027  -1.265  0.00  0.00    +0.005 C 
ATOM     12  C   UNL     1      -0.692  -2.556  -1.380  0.00  0.00    -0.001 C 
BRANCH  11  13
ATOM     13  N   UNL     1       1.343  -2.516  -0.018  0.00  0.00    +0.387 N 
ATOM     14  H   UNL     1       0.800  -2.191   0.768  0.00  0.00    -0.089 HD
ATOM     15  H   UNL     1       1.357  -3.525  -0.024  0.00  0.00    -0.089 HD
ATOM     16  H   UNL     1       2.287  -2.167   0.058  0.00  0.00    -0.089 HD
ENDBRANCH  11  13
BRANCH  11  17
ATOM     17  C   UNL     1       0.718  -0.497  -1.257  0.00  0.00    -0.004 C 
BRANCH  17  19
ATOM     18  C   UNL     1      -0.019   1.526   0.010  0.00  0.00    +0.004 C 
ATOM     19  C   UNL     1       0.002  -0.004   0.002  0.00  0.00    -0.004 C 
ENDBRANCH  17  19
ENDBRANCH  11  17
ENDBRANCH   1  11
TORSDOF 4
