REMARK  Name = ZINC08623909
REMARK  7 active torsions:
REMARK  status: ('A' for Active; 'I' for Inactive)
REMARK    1  A    between atoms: C_4  and  C_7
REMARK    2  A    between atoms: C_7  and  C_8
REMARK    3  A    between atoms: C_7  and  C_30
REMARK    4  A    between atoms: C_8  and  C_9
REMARK    5  A    between atoms: C_9  and  N_10
REMARK    6  A    between atoms: C_11  and  C_13
REMARK    7  A    between atoms: C_13  and  N_14
REMARK                            x       y       z     vdW  Elec       q    Type
REMARK                         _______ _______ _______ _____ _____    ______ ____
ROOT
ATOM      1  N   UNL     1       6.648  -0.442   2.343  0.00  0.00    -0.314 N 
ATOM      2  C   UNL     1       7.854  -0.979   2.614  0.00  0.00    +0.231 C 
ATOM      3  O   UNL     1       8.283  -1.883   1.930  0.00  0.00    -0.274 OA
ATOM      4  H   UNL     1       6.304   0.281   2.890  0.00  0.00    +0.149 HD
ENDROOT
BRANCH   1   5
ATOM      5  C   UNL     1       5.855  -0.951   1.221  0.00  0.00    +0.105 C 
BRANCH   5   6
ATOM      6  C   UNL     1       4.539  -0.175   1.133  0.00  0.00    +0.031 C 
BRANCH   6   7
ATOM      7  C   UNL     1       3.711  -0.707  -0.039  0.00  0.00    +0.050 C 
BRANCH   7  11
ATOM      8  C   UNL     1      -0.104   1.215  -0.075  0.00  0.00    +0.000 A 
ATOM      9  C   UNL     1      -0.024  -0.165  -0.111  0.00  0.00    +0.000 A 
ATOM     10  C   UNL     1       1.210  -0.787  -0.099  0.00  0.00    +0.004 A 
ATOM     11  C   UNL     1       2.365  -0.029  -0.051  0.00  0.00    -0.040 A 
ATOM     12  C   UNL     1       2.286   1.351  -0.016  0.00  0.00    +0.004 A 
ATOM     13  C   UNL     1       1.052   1.972  -0.027  0.00  0.00    +0.000 A 
ENDBRANCH   7  11
BRANCH   7  14
ATOM     14  C   UNL     1       4.430  -0.421  -1.332  0.00  0.00    -0.040 A 
ATOM     15  C   UNL     1       4.856   0.862  -1.617  0.00  0.00    +0.004 A 
ATOM     16  C   UNL     1       5.520   1.123  -2.801  0.00  0.00    +0.000 A 
ATOM     17  C   UNL     1       5.748   0.103  -3.705  0.00  0.00    +0.000 A 
ATOM     18  C   UNL     1       5.317  -1.180  -3.423  0.00  0.00    +0.000 A 
ATOM     19  C   UNL     1       4.658  -1.442  -2.236  0.00  0.00    +0.004 A 
ENDBRANCH   7  14
ENDBRANCH   6   7
ENDBRANCH   5   6
ENDBRANCH   1   5
BRANCH   2  20
ATOM     20  C   UNL     1       8.669  -0.455   3.768  0.00  0.00    +0.213 C 
BRANCH  20  21
ATOM     21  N   UNL     1       9.929  -1.198   3.853  0.00  0.00    -0.215 N 
ATOM     22  C   UNL     1      10.099  -2.322   4.579  0.00  0.00    +0.251 C 
ATOM     23  O   UNL     1       9.271  -2.888   5.260  0.00  0.00    -0.272 OA
ATOM     24  C   UNL     1      11.540  -2.729   4.363  0.00  0.00    +0.138 C 
ATOM     25  C   UNL     1      12.290  -2.720   5.689  0.00  0.00    +0.040 C 
ATOM     26  C   UNL     1      13.685  -3.316   5.463  0.00  0.00    +0.008 C 
ATOM     27  C   UNL     1      13.532  -4.808   5.171  0.00  0.00    +0.035 C 
ATOM     28  C   UNL     1      12.531  -5.033   4.068  0.00  0.00    -0.042 A 
ATOM     29  C   UNL     1      11.609  -4.077   3.701  0.00  0.00    -0.012 A 
ATOM     30  C   UNL     1      10.704  -4.350   2.684  0.00  0.00    +0.006 A 
ATOM     31  C   UNL     1      10.724  -5.568   2.036  0.00  0.00    +0.000 A 
ATOM     32  C   UNL     1      11.651  -6.526   2.402  0.00  0.00    +0.000 A 
ATOM     33  C   UNL     1      12.550  -6.257   3.414  0.00  0.00    +0.004 A 
ATOM     34  N   UNL     1      12.070  -1.693   3.467  0.00  0.00    -0.281 N 
ATOM     35  C   UNL     1      11.056  -0.842   3.224  0.00  0.00    +0.310 C 
ATOM     36  O   UNL     1      11.151   0.138   2.512  0.00  0.00    -0.252 OA
ATOM     37  H   UNL     1      12.974  -1.633   3.120  0.00  0.00    +0.152 HD
ENDBRANCH  20  21
ENDBRANCH   2  20
TORSDOF 7
