REMARK  Name = ZINC27526551
REMARK  12 active torsions:
REMARK  status: ('A' for Active; 'I' for Inactive)
REMARK    1  A    between atoms: C_1  and  C_2
REMARK    2  A    between atoms: C_2  and  N_3
REMARK    3  A    between atoms: C_9  and  S_16
REMARK    4  A    between atoms: N_13  and  C_14
REMARK    5  A    between atoms: C_14  and  C_15
REMARK    6  A    between atoms: S_16  and  C_17
REMARK    7  A    between atoms: C_17  and  C_18
REMARK    8  A    between atoms: N_20  and  C_21
REMARK    9  A    between atoms: C_22  and  C_29
REMARK   10  A    between atoms: C_29  and  O_31
REMARK   11  A    between atoms: O_31  and  C_32
REMARK   12  A    between atoms: C_32  and  C_33
REMARK                            x       y       z     vdW  Elec       q    Type
REMARK                         _______ _______ _______ _____ _____    ______ ____
ROOT
ATOM      1  S   UNL     1       1.073   0.352   7.657  0.00  0.00    -0.076 S 
ENDROOT
BRANCH   1   8
ATOM      2  N   UNL     1      -0.698   1.558   1.213  0.00  0.00    -0.314 N 
ATOM      3  C   UNL     1      -0.210   1.225   2.461  0.00  0.00    +0.221 A 
ATOM      4  N   UNL     1       0.876   0.478   2.551  0.00  0.00    -0.177 NA
ATOM      5  C   UNL     1       1.364   0.145   3.758  0.00  0.00    +0.262 A 
ATOM      6  N   UNL     1       2.394  -0.563   4.168  0.00  0.00    -0.107 NA
ATOM      7  N   UNL     1       2.429  -0.584   5.454  0.00  0.00    -0.120 NA
ATOM      8  C   UNL     1       1.428   0.104   5.949  0.00  0.00    +0.200 A 
ATOM      9  N   UNL     1       0.714   0.594   4.891  0.00  0.00    -0.226 N 
ATOM     10  C   UNL     1      -0.408   1.364   4.760  0.00  0.00    +0.207 A 
ATOM     11  N   UNL     1      -0.845   1.669   3.552  0.00  0.00    -0.182 NA
ATOM     12  N   UNL     1      -1.069   1.820   5.869  0.00  0.00    -0.315 N 
ATOM     13  H   UNL     1      -1.602   2.179   1.124  0.00  0.00    +0.149 HD
ATOM     14  H   UNL     1      -0.698   1.566   6.873  0.00  0.00    +0.149 HD
BRANCH   2  16
ATOM     15  C   UNL     1      -0.753   1.593  -1.232  0.00  0.00    +0.024 C 
ATOM     16  C   UNL     1      -0.013   1.086   0.008  0.00  0.00    +0.101 C 
ENDBRANCH   2  16
BRANCH  12  17
ATOM     17  C   UNL     1      -2.270   2.645   5.719  0.00  0.00    +0.101 C 
ATOM     18  C   UNL     1      -2.809   3.017   7.101  0.00  0.00    +0.024 C 
ENDBRANCH  12  17
ENDBRANCH   1   8
BRANCH   1  19
ATOM     19  C   UNL     1       2.390  -0.553   8.515  0.00  0.00    +0.173 C 
BRANCH  19  20
ATOM     20  C   UNL     1       2.202  -0.421  10.005  0.00  0.00    +0.228 C 
ATOM     21  O   UNL     1       1.271   0.221  10.444  0.00  0.00    -0.275 OA
ATOM     22  N   UNL     1       3.069  -1.015  10.849  0.00  0.00    -0.279 N 
ATOM     23  H   UNL     1       3.913  -1.597  10.450  0.00  0.00    +0.155 HD
BRANCH  22  24
ATOM     24  C   UNL     1       2.896  -0.894  12.219  0.00  0.00    +0.086 A 
ATOM     25  C   UNL     1       3.669  -1.431  13.235  0.00  0.00    +0.091 A 
ATOM     26  C   UNL     1       3.268  -1.146  14.613  0.00  0.00    -0.021 A 
ATOM     27  C   UNL     1       2.166  -0.387  14.741  0.00  0.00    -0.004 A 
ATOM     28  S   UNL     1       1.657  -0.041  13.075  0.00  0.00    -0.077 S 
ATOM     29  C   UNL     1       1.816  -0.140  16.184  0.00  0.00    +0.043 C 
ATOM     30  C   UNL     1       3.103  -0.491  16.962  0.00  0.00    +0.010 C 
ATOM     31  C   UNL     1       3.781  -1.497  16.010  0.00  0.00    +0.037 C 
BRANCH  25  32
ATOM     32  C   UNL     1       4.847  -2.250  12.941  0.00  0.00    +0.342 C 
ATOM     33  O   UNL     1       5.938  -1.725  12.819  0.00  0.00    -0.245 OA
BRANCH  32  34
ATOM     34  O   UNL     1       4.723  -3.586  12.806  0.00  0.00    -0.461 OA
BRANCH  34  35
ATOM     35  C   UNL     1       5.932  -4.335  12.514  0.00  0.00    +0.229 C 
ATOM     36  C   UNL     1       5.596  -5.822  12.397  0.00  0.00    +0.048 C 
ENDBRANCH  34  35
ENDBRANCH  32  34
ENDBRANCH  25  32
ENDBRANCH  22  24
ENDBRANCH  19  20
ENDBRANCH   1  19
TORSDOF 9
