REMARK  Name = ZINC67127916
REMARK  7 active torsions:
REMARK  status: ('A' for Active; 'I' for Inactive)
REMARK    1  A    between atoms: C_1  and  C_2
REMARK    2  A    between atoms: C_5  and  N_8
REMARK    3  A    between atoms: C_9  and  C_11
REMARK    4  A    between atoms: C_11  and  C_12
REMARK    5  A    between atoms: C_12  and  C_13
REMARK    6  A    between atoms: C_13  and  C_14
REMARK    7  A    between atoms: C_14  and  C_15
REMARK                            x       y       z     vdW  Elec       q    Type
REMARK                         _______ _______ _______ _____ _____    ______ ____
ROOT
ATOM      1  C   UNL     1       6.132  -3.109   1.424  0.00  0.00    +0.009 C 
ENDROOT
BRANCH   1   2
ATOM      2  C   UNL     1       5.237  -2.173   0.610  0.00  0.00    +0.096 C 
BRANCH   2   4
ATOM      3  N   UNL     1       2.853  -2.027  -0.036  0.00  0.00    -0.312 N 
ATOM      4  C   UNL     1       3.823  -2.694   0.621  0.00  0.00    +0.213 C 
ATOM      5  O   UNL     1       3.557  -3.715   1.220  0.00  0.00    -0.276 OA
ATOM      6  H   UNL     1       3.066  -1.211  -0.516  0.00  0.00    +0.149 HD
BRANCH   3  11
ATOM      7  C   UNL     1      -0.019   1.526   0.010  0.00  0.00    +0.007 C 
ATOM      8  C   UNL     1       0.002  -0.004   0.002  0.00  0.00    -0.014 C 
ATOM      9  C   UNL     1       0.718  -0.497  -1.257  0.00  0.00    +0.005 C 
ATOM     10  C   UNL     1       0.739  -2.027  -1.265  0.00  0.00    +0.022 C 
ATOM     11  C   UNL     1       1.479  -2.534  -0.026  0.00  0.00    +0.073 C 
ATOM     12  C   UNL     1       0.763  -2.041   1.233  0.00  0.00    +0.022 C 
ATOM     13  C   UNL     1       0.742  -0.511   1.242  0.00  0.00    +0.005 C 
ENDBRANCH   3  11
ENDBRANCH   2   4
ENDBRANCH   1   2
BRANCH   1  14
ATOM     14  C   UNL     1       7.567  -2.580   1.413  0.00  0.00    +0.002 C 
BRANCH  14  15
ATOM     15  C   UNL     1       8.463  -3.516   2.227  0.00  0.00    +0.016 C 
BRANCH  15  16
ATOM     16  C   UNL     1       9.898  -2.987   2.216  0.00  0.00    +0.069 C 
ATOM     17  C   UNL     1      10.809  -3.865   3.035  0.00  0.00    +0.108 C 
ATOM     18  C   UNL     1      11.241  -5.083   2.163  0.00  0.00    +0.105 C 
ATOM     19  C   UNL     1      11.936  -4.483   0.943  0.00  0.00    +0.093 C 
ATOM     20  S   UNL     1      10.666  -3.167   0.539  0.00  0.00    -0.154 S 
ATOM     21  N   UNL     1      11.976  -5.833   3.157  0.00  0.00    -0.294 N 
ATOM     22  C   UNL     1      11.345  -5.581   4.343  0.00  0.00    +0.300 C 
ATOM     23  O   UNL     1      11.528  -6.229   5.355  0.00  0.00    -0.253 OA
ATOM     24  N   UNL     1      10.479  -4.534   4.259  0.00  0.00    -0.294 N 
ATOM     25  H   UNL     1      12.752  -6.396   3.013  0.00  0.00    +0.151 HD
ATOM     26  H   UNL     1       9.790  -4.292   4.897  0.00  0.00    +0.151 HD
ENDBRANCH  15  16
ENDBRANCH  14  15
ENDBRANCH   1  14
TORSDOF 6
