REMARK  Name = ZINC40286036
REMARK  1 active torsions:
REMARK  status: ('A' for Active; 'I' for Inactive)
REMARK    1  A    between atoms: C_11  and  C_13
REMARK                            x       y       z     vdW  Elec       q    Type
REMARK                         _______ _______ _______ _____ _____    ______ ____
ROOT
ATOM      1  C   UNL     1       0.025   1.395  -0.012  0.00  0.00    +0.000 A 
ATOM      2  C   UNL     1       1.220   2.091  -0.035  0.00  0.00    +0.002 A 
ATOM      3  C   UNL     1       2.421   1.412  -0.055  0.00  0.00    +0.023 A 
ATOM      4  C   UNL     1       2.439   0.019  -0.054  0.00  0.00    +0.038 A 
ATOM      5  C   UNL     1       1.230  -0.670  -0.032  0.00  0.00    -0.013 A 
ATOM      6  C   UNL     1       0.034   0.012  -0.010  0.00  0.00    +0.006 A 
ATOM      7  C   UNL     1       1.589  -2.129  -0.039  0.00  0.00    +0.064 C 
ATOM      8  C   UNL     1       1.037  -2.848   1.202  0.00  0.00    +0.000 C 
ATOM      9  C   UNL     1       0.626  -4.234   0.638  0.00  0.00    -0.080 C 
ATOM     10  N   UNL     1       0.106  -3.913  -0.716  0.00  0.00    +0.385 N 
ATOM     11  C   UNL     1       0.991  -2.851  -1.249  0.00  0.00    -0.017 C 
ATOM     12  C   UNL     1       3.093  -2.161  -0.063  0.00  0.00    +0.226 C 
ATOM     13  O   UNL     1       3.796  -3.150  -0.074  0.00  0.00    -0.275 OA
ATOM     14  N   UNL     1       3.507  -0.880  -0.071  0.00  0.00    -0.285 N 
ATOM     15  H   UNL     1       0.148  -4.730  -1.307  0.00  0.00    -0.085 HD
ATOM     16  H   UNL     1       4.440  -0.612  -0.087  0.00  0.00    +0.155 HD
ATOM     17  H   UNL     1      -0.843  -3.576  -0.654  0.00  0.00    -0.085 HD
ENDROOT
BRANCH  11  18
ATOM     18  C   UNL     1       0.192  -1.884  -2.084  0.00  0.00    -0.007 A 
ATOM     19  C   UNL     1      -1.099  -1.549  -1.711  0.00  0.00    +0.126 A 
ATOM     20  C   UNL     1      -1.832  -0.661  -2.479  0.00  0.00    +0.038 A 
ATOM     21  C   UNL     1      -1.276  -0.109  -3.617  0.00  0.00    +0.004 A 
ATOM     22  C   UNL     1       0.012  -0.443  -3.990  0.00  0.00    +0.020 A 
ATOM     23  C   UNL     1       0.749  -1.327  -3.220  0.00  0.00    +0.045 A 
ATOM     24 CL   UNL     1       2.369  -1.741  -3.686  0.00  0.00    -0.083 Cl
ATOM     25  F   UNL     1      -1.642  -2.089  -0.598  0.00  0.00    -0.205 F 
ENDBRANCH  11  18
TORSDOF 1
