REMARK  Name = ZINC24351230
REMARK  5 active torsions:
REMARK  status: ('A' for Active; 'I' for Inactive)
REMARK    1  A    between atoms: C_1  and  C_2
REMARK    2  A    between atoms: C_8  and  C_14
REMARK    3  A    between atoms: C_11  and  C_13
REMARK    4  A    between atoms: N_16  and  C_17
REMARK    5  A    between atoms: C_22  and  N_23
REMARK                            x       y       z     vdW  Elec       q    Type
REMARK                         _______ _______ _______ _____ _____    ______ ____
ROOT
ATOM      1  C   UNL     1      -1.699  -0.498   5.508  0.00  0.00    +0.252 C 
ATOM      2  O   UNL     1      -2.871  -0.464   5.184  0.00  0.00    -0.270 OA
ATOM      3  N   UNL     1      -1.343  -1.030   6.695  0.00  0.00    -0.280 N 
ATOM      4  H   UNL     1      -0.280  -1.144   6.949  0.00  0.00    +0.155 HD
ENDROOT
BRANCH   1  11
ATOM      5  C   UNL     1      -0.007   1.125   0.022  0.00  0.00    +0.016 C 
ATOM      6  C   UNL     1      -0.730   1.608   1.281  0.00  0.00    +0.060 C 
ATOM      7  C   UNL     1      -0.044   1.093   2.531  0.00  0.00    +0.001 A 
ATOM      8  C   UNL     1       1.280   1.054   2.909  0.00  0.00    +0.007 A 
ATOM      9  C   UNL     1       1.643   0.509   4.131  0.00  0.00    +0.001 A 
ATOM     10  C   UNL     1       0.677   0.004   4.974  0.00  0.00    +0.017 A 
ATOM     11  C   UNL     1      -0.667   0.042   4.603  0.00  0.00    +0.079 A 
ATOM     12  C   UNL     1      -1.038   0.598   3.365  0.00  0.00    +0.137 A 
ATOM     13  O   UNL     1      -2.269   0.754   2.813  0.00  0.00    -0.487 OA
ATOM     14  C   UNL     1      -2.131   0.962   1.397  0.00  0.00    +0.178 C 
ATOM     15  C   UNL     1      -3.212   1.914   0.880  0.00  0.00    +0.052 C 
ENDBRANCH   1  11
BRANCH   3  16
ATOM     16  C   UNL     1      -2.328  -1.437   7.603  0.00  0.00    +0.055 A 
ATOM     17  C   UNL     1      -3.592  -0.866   7.561  0.00  0.00    +0.025 A 
ATOM     18  C   UNL     1      -4.562  -1.269   8.459  0.00  0.00    +0.002 A 
ATOM     19  C   UNL     1      -4.278  -2.242   9.400  0.00  0.00    +0.002 A 
ATOM     20  C   UNL     1      -3.022  -2.817   9.448  0.00  0.00    +0.025 A 
ATOM     21  C   UNL     1      -2.043  -2.422   8.548  0.00  0.00    +0.057 A 
BRANCH  21  22
ATOM     22  N   UNL     1      -0.771  -3.006   8.592  0.00  0.00    -0.270 N 
ATOM     23  C   UNL     1       0.348  -2.495   9.393  0.00  0.00    +0.114 C 
ATOM     24  C   UNL     1       1.358  -3.663   9.477  0.00  0.00    +0.029 C 
ATOM     25  C   UNL     1       1.024  -4.461   8.195  0.00  0.00    +0.098 C 
ATOM     26  C   UNL     1      -0.417  -4.104   7.903  0.00  0.00    +0.220 C 
ATOM     27  O   UNL     1      -1.147  -4.720   7.155  0.00  0.00    -0.275 OA
ENDBRANCH  21  22
ENDBRANCH   3  16
TORSDOF 3
