REMARK  Name = ZINC44263267
REMARK  6 active torsions:
REMARK  status: ('A' for Active; 'I' for Inactive)
REMARK    1  A    between atoms: C_1  and  C_2
REMARK    2  A    between atoms: C_2  and  N_3
REMARK    3  A    between atoms: N_3  and  C_4
REMARK    4  A    between atoms: C_4  and  C_5
REMARK    5  A    between atoms: C_8  and  C_13
REMARK    6  A    between atoms: C_10  and  N_12
REMARK                            x       y       z     vdW  Elec       q    Type
REMARK                         _______ _______ _______ _____ _____    ______ ____
ROOT
ATOM      1  N   UNL     1       0.711  -0.489   1.189  0.00  0.00    -0.300 N 
ATOM      2  C   UNL     1       2.078  -0.701   1.140  0.00  0.00    +0.220 A 
ATOM      3  N   UNL     1       2.699  -1.145   2.221  0.00  0.00    -0.214 NA
ATOM      4  C   UNL     1       4.015  -1.361   2.212  0.00  0.00    +0.078 A 
ATOM      5  C   UNL     1       4.733  -1.113   1.045  0.00  0.00    +0.071 A 
ATOM      6  C   UNL     1       4.042  -0.646  -0.072  0.00  0.00    +0.122 A 
ATOM      7  N   UNL     1       2.728  -0.460   0.012  0.00  0.00    -0.200 NA
ENDROOT
BRANCH   4   8
ATOM      8  C   UNL     1       4.704  -1.858   3.428  0.00  0.00    +0.001 A 
ATOM      9  C   UNL     1       6.080  -2.075   3.412  0.00  0.00    +0.011 A 
ATOM     10  C   UNL     1       6.716  -2.538   4.546  0.00  0.00    +0.016 A 
ATOM     11  C   UNL     1       5.990  -2.786   5.698  0.00  0.00    +0.018 A 
ATOM     12  C   UNL     1       4.622  -2.571   5.719  0.00  0.00    +0.016 A 
ATOM     13  C   UNL     1       3.977  -2.103   4.592  0.00  0.00    +0.011 A 
ATOM     14 BR   UNL     1       6.868  -3.421   7.247  0.00  0.00    -0.050 Br
ENDBRANCH   4   8
BRANCH   6  15
ATOM     15  N   UNL     1       4.714  -0.384  -1.255  0.00  0.00    -0.343 N 
ATOM     16  H   UNL     1       5.672  -0.526  -1.310  0.00  0.00    +0.144 HD
ATOM     17  H   UNL     1       4.227  -0.060  -2.028  0.00  0.00    +0.144 HD
ENDBRANCH   6  15
BRANCH   1  19
ATOM     18  C   UNL     1      -0.019   1.526   0.010  0.00  0.00    +0.024 C 
ATOM     19  C   UNL     1       0.002  -0.004   0.002  0.00  0.00    +0.104 C 
ENDBRANCH   1  19
BRANCH   1  20
ATOM     20  C   UNL     1      -0.028  -0.750   2.427  0.00  0.00    +0.104 C 
ATOM     21  C   UNL     1      -0.511  -2.202   2.437  0.00  0.00    +0.024 C 
ENDBRANCH   1  20
TORSDOF 4
