REMARK  Name = ZINC39665113
REMARK  9 active torsions:
REMARK  status: ('A' for Active; 'I' for Inactive)
REMARK    1  A    between atoms: C_1  and  C_2
REMARK    2  A    between atoms: C_2  and  C_4
REMARK    3  A    between atoms: C_2  and  O_32
REMARK    4  A    between atoms: C_4  and  N_5
REMARK    5  A    between atoms: C_6  and  C_8
REMARK    6  A    between atoms: C_19  and  C_21
REMARK    7  A    between atoms: C_24  and  O_27
REMARK    8  A    between atoms: O_27  and  C_28
REMARK    9  A    between atoms: O_32  and  C_33
REMARK                            x       y       z     vdW  Elec       q    Type
REMARK                         _______ _______ _______ _____ _____    ______ ____
ROOT
ATOM      1  C   UNL     1       2.251  -3.033   2.660  0.00  0.00    +0.100 C 
ATOM      2  C   UNL     1       0.847  -3.678   2.675  0.00  0.00    +0.121 C 
ATOM      3  N   UNL     1       0.950  -4.775   3.667  0.00  0.00    -0.296 N 
ATOM      4  C   UNL     1       1.783  -4.210   4.755  0.00  0.00    +0.115 C 
ATOM      5  C   UNL     1       2.861  -3.384   4.028  0.00  0.00    -0.004 C 
ATOM      6  C   UNL     1       3.168  -2.111   4.812  0.00  0.00    -0.010 C 
ATOM      7  C   UNL     1       3.827  -2.483   6.143  0.00  0.00    -0.082 C 
ATOM      8  N   UNL     1       5.062  -3.233   5.886  0.00  0.00    +0.379 N 
ATOM      9  C   UNL     1       4.749  -4.500   5.214  0.00  0.00    -0.082 C 
ATOM     10  C   UNL     1       4.128  -4.213   3.844  0.00  0.00    -0.010 C 
ATOM     11  C   UNL     1       0.408  -6.007   3.595  0.00  0.00    +0.247 C 
ATOM     12  O   UNL     1      -0.163  -6.362   2.582  0.00  0.00    -0.270 OA
ATOM     13  H   UNL     1       5.672  -2.684   5.298  0.00  0.00    -0.086 HD
ATOM     14  H   UNL     1       5.527  -3.424   6.761  0.00  0.00    -0.086 HD
ENDROOT
BRANCH  11  15
ATOM     15  C   UNL     1       0.509  -6.926   4.745  0.00  0.00    +0.037 A 
ATOM     16  C   UNL     1       0.705  -6.418   6.032  0.00  0.00    +0.016 A 
ATOM     17  C   UNL     1       0.798  -7.278   7.103  0.00  0.00    +0.047 A 
ATOM     18  C   UNL     1       0.697  -8.650   6.906  0.00  0.00    +0.130 A 
ATOM     19  C   UNL     1       0.501  -9.159   5.628  0.00  0.00    +0.047 A 
ATOM     20  C   UNL     1       0.402  -8.305   4.552  0.00  0.00    +0.016 A 
BRANCH  18  21
ATOM     21  O   UNL     1       0.790  -9.495   7.964  0.00  0.00    -0.406 OA
BRANCH  21  22
ATOM     22  C   UNL     1       0.677 -10.893   7.690  0.00  0.00    +0.575 C 
ATOM     23  F   UNL     1       1.694 -11.279   6.811  0.00  0.00    -0.133 F 
ATOM     24  F   UNL     1       0.794 -11.613   8.884  0.00  0.00    -0.133 F 
ATOM     25  F   UNL     1      -0.568 -11.155   7.108  0.00  0.00    -0.133 F 
ENDBRANCH  21  22
ENDBRANCH  18  21
ENDBRANCH  11  15
BRANCH   1  27
ATOM     26  N   UNL     1       3.116  -0.852   1.878  0.00  0.00    -0.312 N 
ATOM     27  C   UNL     1       2.139  -1.538   2.503  0.00  0.00    +0.218 C 
ATOM     28  O   UNL     1       1.171  -0.953   2.940  0.00  0.00    -0.275 OA
ATOM     29  H   UNL     1       3.891  -1.319   1.528  0.00  0.00    +0.149 HD
BRANCH  26  30
ATOM     30  C   UNL     1       3.008   0.601   1.725  0.00  0.00    +0.148 C 
BRANCH  30  32
ATOM     31  C   UNL     1       4.125   2.647   0.826  0.00  0.00    +0.053 C 
ATOM     32  C   UNL     1       4.238   1.130   0.986  0.00  0.00    +0.187 C 
BRANCH  32  33
ATOM     33  O   UNL     1       5.415   0.816   1.734  0.00  0.00    -0.488 OA
BRANCH  33  34
ATOM     34  C   UNL     1       6.545   0.556   1.026  0.00  0.00    +0.121 A 
ATOM     35  C   UNL     1       7.686   0.109   1.677  0.00  0.00    +0.045 A 
ATOM     36  C   UNL     1       8.833  -0.155   0.955  0.00  0.00    +0.004 A 
ATOM     37  C   UNL     1       8.847   0.028  -0.416  0.00  0.00    +0.000 A 
ATOM     38  C   UNL     1       7.712   0.474  -1.067  0.00  0.00    +0.004 A 
ATOM     39  C   UNL     1       6.559   0.733  -0.350  0.00  0.00    +0.045 A 
ENDBRANCH  33  34
ENDBRANCH  32  33
ENDBRANCH  30  32
ENDBRANCH  26  30
ENDBRANCH   1  27
TORSDOF 8
