REMARK  Name = ZINC35709716
REMARK  11 active torsions:
REMARK  status: ('A' for Active; 'I' for Inactive)
REMARK    1  A    between atoms: C_1  and  C_2
REMARK    2  A    between atoms: C_3  and  C_28
REMARK    3  A    between atoms: C_4  and  C_21
REMARK    4  A    between atoms: C_7  and  C_12
REMARK    5  A    between atoms: C_13  and  N_15
REMARK    6  A    between atoms: N_15  and  C_16
REMARK    7  A    between atoms: C_16  and  C_17
REMARK    8  A    between atoms: C_17  and  N_18
REMARK    9  A    between atoms: N_18  and  C_19
REMARK   10  A    between atoms: N_18  and  C_20
REMARK   11  A    between atoms: N_30  and  C_31
REMARK                            x       y       z     vdW  Elec       q    Type
REMARK                         _______ _______ _______ _____ _____    ______ ____
ROOT
ATOM      1  C   UNL     1      -0.212   1.485   0.134  0.00  0.00    +0.066 C 
ATOM      2  C   UNL     1      -0.141  -0.018   0.051  0.00  0.00    +0.051 C 
ATOM      3  C   UNL     1      -1.305  -0.757   0.006  0.00  0.00    +0.060 C 
ATOM      4  C   UNL     1      -1.182  -2.263  -0.077  0.00  0.00    +0.148 C 
ATOM      5  N   UNL     1       0.193  -2.829  -0.103  0.00  0.00    -0.267 N 
ATOM      6  C   UNL     1       0.541  -4.163  -0.176  0.00  0.00    +0.048 C 
ATOM      7  C   UNL     1       1.858  -4.467  -0.188  0.00  0.00    +0.072 C 
ATOM      8  S   UNL     1       2.610  -2.854  -0.096  0.00  0.00    -0.060 S 
ATOM      9  C   UNL     1       1.215  -1.922  -0.049  0.00  0.00    +0.166 C 
ATOM     10  N   UNL     1       1.038  -0.619   0.017  0.00  0.00    -0.230 NA
ENDROOT
BRANCH   4  11
ATOM     11  C   UNL     1      -1.895  -2.718  -1.324  0.00  0.00    -0.022 A 
ATOM     12  C   UNL     1      -3.026  -3.506  -1.225  0.00  0.00    +0.007 A 
ATOM     13  C   UNL     1      -3.680  -3.925  -2.369  0.00  0.00    +0.020 A 
ATOM     14  C   UNL     1      -3.201  -3.555  -3.613  0.00  0.00    +0.041 A 
ATOM     15  C   UNL     1      -2.069  -2.766  -3.712  0.00  0.00    +0.020 A 
ATOM     16  C   UNL     1      -1.419  -2.343  -2.567  0.00  0.00    +0.007 A 
ATOM     17 CL   UNL     1      -4.022  -4.080  -5.050  0.00  0.00    -0.084 Cl
ENDBRANCH   4  11
BRANCH   3  18
ATOM     18  C   UNL     1      -2.562  -0.134   0.036  0.00  0.00    +0.244 C 
ATOM     19  O   UNL     1      -2.638   1.077   0.156  0.00  0.00    -0.270 OA
ATOM     20  N   UNL     1      -3.684  -0.873  -0.068  0.00  0.00    -0.315 N 
ATOM     21  C   UNL     1      -4.988  -0.214  -0.170  0.00  0.00    +0.128 C 
ATOM     22  H   UNL     1      -3.627  -1.841  -0.075  0.00  0.00    +0.149 HD
ENDBRANCH   3  18
BRANCH   6  23
ATOM     23  C   UNL     1      -0.483  -5.215  -0.238  0.00  0.00    +0.091 C 
ATOM     24  C   UNL     1      -0.120  -6.511  -0.198  0.00  0.00    +0.239 C 
ATOM     25  O   UNL     1       1.192  -6.848  -0.209  0.00  0.00    -0.271 OA
BRANCH  24  26
ATOM     26  N   UNL     1      -1.089  -7.500  -0.146  0.00  0.00    -0.314 N 
ATOM     27  H   UNL     1      -2.027  -7.264  -0.212  0.00  0.00    +0.149 HD
BRANCH  26  28
ATOM     28  C   UNL     1      -0.696  -8.903   0.007  0.00  0.00    +0.086 C 
BRANCH  28  29
ATOM     29  C   UNL     1      -1.936  -9.793  -0.089  0.00  0.00    -0.061 C 
BRANCH  29  30
ATOM     30  N   UNL     1      -1.542 -11.200   0.065  0.00  0.00    +0.377 N 
ATOM     31  C   UNL     1      -1.014 -11.415   1.419  0.00  0.00    -0.097 C 
ATOM     32  C   UNL     1      -2.712 -12.063  -0.146  0.00  0.00    -0.097 C 
ATOM     33  H   UNL     1      -0.830 -11.427  -0.613  0.00  0.00    -0.083 HD
ENDBRANCH  29  30
ENDBRANCH  28  29
ENDBRANCH  26  28
ENDBRANCH  24  26
ENDBRANCH   6  23
TORSDOF 7
