REMARK  Name = ZINC38742660
REMARK  7 active torsions:
REMARK  status: ('A' for Active; 'I' for Inactive)
REMARK    1  A    between atoms: C_1  and  C_2
REMARK    2  A    between atoms: C_2  and  C_3
REMARK    3  A    between atoms: C_2  and  C_4
REMARK    4  A    between atoms: C_6  and  C_10
REMARK    5  A    between atoms: C_18  and  C_20
REMARK    6  A    between atoms: C_20  and  O_21
REMARK    7  A    between atoms: O_21  and  C_22
REMARK                            x       y       z     vdW  Elec       q    Type
REMARK                         _______ _______ _______ _____ _____    ______ ____
ROOT
ATOM      1  C   UNL     1       1.690  -2.982   3.249  0.00  0.00    +0.206 C 
ATOM      2  N   UNL     1       0.503  -3.780   3.640  0.00  0.00    -0.231 NA
ATOM      3  N   UNL     1       0.792  -4.336   4.974  0.00  0.00    -0.224 NA
ATOM      4  C   UNL     1       1.788  -3.389   5.516  0.00  0.00    +0.240 C 
ATOM      5  N   UNL     1       2.683  -3.193   4.327  0.00  0.00    -0.206 N 
ATOM      6  N   UNL     1       4.022  -3.357   4.607  0.00  0.00    -0.175 NA
ATOM      7  C   UNL     1       4.458  -3.897   5.697  0.00  0.00    +0.132 C 
ATOM      8  S   UNL     1       2.949  -4.215   6.666  0.00  0.00    -0.064 S 
ATOM      9  H   UNL     1       0.327  -4.516   2.973  0.00  0.00    +0.143 HD
ATOM     10  H   UNL     1       1.178  -5.265   4.902  0.00  0.00    +0.144 HD
ENDROOT
BRANCH   1  13
ATOM     11  C   UNL     1       0.731  -0.503   1.223  0.00  0.00    +0.064 C 
ATOM     12  C   UNL     1       0.194  -1.291   2.157  0.00  0.00    +0.030 C 
ATOM     13  C   UNL     1       1.322  -1.500   3.152  0.00  0.00    +0.190 C 
ATOM     14  N   UNL     1       2.427  -0.722   2.567  0.00  0.00    -0.177 NA
ATOM     15  N   UNL     1       2.019  -0.219   1.517  0.00  0.00    -0.158 NA
BRANCH  11  17
ATOM     16  C   UNL     1      -0.019   1.526   0.010  0.00  0.00    +0.014 C 
ATOM     17  C   UNL     1       0.002  -0.004   0.002  0.00  0.00    +0.033 C 
ATOM     18  C   UNL     1       0.718  -0.497  -1.257  0.00  0.00    +0.014 C 
ENDBRANCH  11  17
ENDBRANCH   1  13
BRANCH   7  19
ATOM     19  C   UNL     1       5.886  -4.185   6.084  0.00  0.00    +0.293 C 
BRANCH  19  20
ATOM     20  O   UNL     1       6.758  -3.764   5.034  0.00  0.00    -0.485 OA
BRANCH  20  21
ATOM     21  C   UNL     1       8.089  -3.954   5.225  0.00  0.00    +0.129 A 
ATOM     22  C   UNL     1       8.544  -4.531   6.378  0.00  0.00    +0.046 A 
ATOM     23  C   UNL     1       9.905  -4.732   6.589  0.00  0.00    +0.004 A 
ATOM     24  C   UNL     1      10.823  -4.362   5.654  0.00  0.00    +0.009 A 
ATOM     25  C   UNL     1      10.397  -3.766   4.455  0.00  0.00    -0.014 A 
ATOM     26  C   UNL     1       9.012  -3.563   4.233  0.00  0.00    +0.024 A 
ATOM     27  C   UNL     1       8.585  -2.971   3.033  0.00  0.00    +0.012 A 
ATOM     28  C   UNL     1       9.505  -2.606   2.098  0.00  0.00    +0.001 A 
ATOM     29  C   UNL     1      10.867  -2.810   2.313  0.00  0.00    +0.001 A 
ATOM     30  C   UNL     1      11.317  -3.371   3.469  0.00  0.00    +0.008 A 
ENDBRANCH  20  21
ENDBRANCH  19  20
ENDBRANCH   7  19
TORSDOF 5
