REMARK  Name = ZINC33916931
REMARK  6 active torsions:
REMARK  status: ('A' for Active; 'I' for Inactive)
REMARK    1  A    between atoms: C_3  and  N_10
REMARK    2  A    between atoms: C_5  and  N_7
REMARK    3  A    between atoms: C_15  and  C_33
REMARK    4  A    between atoms: C_18  and  C_23
REMARK    5  A    between atoms: C_18  and  C_30
REMARK    6  A    between atoms: C_23  and  C_24
REMARK                            x       y       z     vdW  Elec       q    Type
REMARK                         _______ _______ _______ _____ _____    ______ ____
ROOT
ATOM      1  N   UNL     1       2.678   3.308  -0.362  0.00  0.00    -0.210 N 
ATOM      2  C   UNL     1       3.602   2.306  -0.525  0.00  0.00    +0.229 C 
ATOM      3  O   UNL     1       3.414   1.184  -0.942  0.00  0.00    -0.275 OA
ATOM      4  C   UNL     1       4.850   2.889  -0.089  0.00  0.00    +0.078 C 
ATOM      5  C   UNL     1       6.299   2.670  -0.206  0.00  0.00    -0.020 C 
ATOM      6  N   UNL     1       6.905   3.992   0.161  0.00  0.00    +0.396 N 
ATOM      7  C   UNL     1       5.780   4.964   0.356  0.00  0.00    +0.048 C 
ATOM      8  C   UNL     1       4.689   4.386  -0.570  0.00  0.00    +0.086 C 
ATOM      9  C   UNL     1       3.252   4.529  -0.151  0.00  0.00    +0.229 C 
ATOM     10  O   UNL     1       2.715   5.523   0.287  0.00  0.00    -0.275 OA
ATOM     11  H   UNL     1       7.432   3.901   1.016  0.00  0.00    -0.083 HD
ATOM     12  H   UNL     1       7.507   4.311  -0.583  0.00  0.00    -0.083 HD
ENDROOT
BRANCH   1  15
ATOM     13  C   UNL     1      -0.943   3.961  -0.296  0.00  0.00    +0.004 A 
ATOM     14  C   UNL     1       0.422   4.169  -0.245  0.00  0.00    +0.024 A 
ATOM     15  C   UNL     1       1.292   3.100  -0.414  0.00  0.00    +0.046 A 
ATOM     16  C   UNL     1       0.787   1.826  -0.634  0.00  0.00    +0.056 A 
ATOM     17  C   UNL     1      -0.578   1.625  -0.684  0.00  0.00    +0.128 A 
ATOM     18  C   UNL     1      -1.442   2.691  -0.516  0.00  0.00    +0.033 A 
BRANCH  17  19
ATOM     19  N   UNL     1      -1.117   0.266  -0.919  0.00  0.00    +0.056 N 
ATOM     20  O   UNL     1      -0.362  -0.666  -1.067  0.00  0.00    -0.126 OA
ATOM     21  O   UNL     1      -2.312   0.089  -0.964  0.00  0.00    -0.126 OA
ENDBRANCH  17  19
ENDBRANCH   1  15
BRANCH   5  22
ATOM     22  C   UNL     1       6.662   2.294  -1.620  0.00  0.00    -0.022 A 
ATOM     23  C   UNL     1       6.906   1.067  -2.141  0.00  0.00    +0.011 A 
ATOM     24  C   UNL     1       7.226   0.960  -3.482  0.00  0.00    +0.028 A 
ATOM     25  C   UNL     1       7.286   2.086  -4.236  0.00  0.00    +0.078 A 
ATOM     26  S   UNL     1       6.876   3.350  -3.043  0.00  0.00    -0.083 S 
ATOM     27 CL   UNL     1       7.659   2.254  -5.923  0.00  0.00    -0.076 Cl
ENDBRANCH   5  22
BRANCH   7  28
ATOM     28  C   UNL     1       6.181   6.343  -0.100  0.00  0.00    +0.346 C 
ATOM     29  O   UNL     1       7.306   6.541  -0.529  0.00  0.00    -0.248 OA
ATOM     30  O   UNL     1       5.382   7.262  -0.041  0.00  0.00    -0.248 OA
ENDBRANCH   7  28
BRANCH   7  31
ATOM     31  C   UNL     1       5.330   4.985   1.818  0.00  0.00    +0.003 C 
BRANCH  31  32
ATOM     32  C   UNL     1       6.298   5.842   2.638  0.00  0.00    -0.012 C 
ATOM     33  C   UNL     1       7.692   5.214   2.599  0.00  0.00    +0.003 C 
ATOM     34  C   UNL     1       8.660   6.070   3.419  0.00  0.00    +0.000 C 
ATOM     35  C   UNL     1       8.174   6.144   4.867  0.00  0.00    +0.000 C 
ATOM     36  C   UNL     1       6.779   6.772   4.906  0.00  0.00    +0.000 C 
ATOM     37  C   UNL     1       5.812   5.916   4.087  0.00  0.00    +0.003 C 
ENDBRANCH  31  32
ENDBRANCH   7  31
TORSDOF 6
