REMARK  Name = ZINC38743631
REMARK  6 active torsions:
REMARK  status: ('A' for Active; 'I' for Inactive)
REMARK    1  A    between atoms: C_1  and  O_2
REMARK    2  A    between atoms: O_2  and  C_3
REMARK    3  A    between atoms: C_6  and  C_9
REMARK    4  A    between atoms: C_11  and  C_15
REMARK    5  A    between atoms: C_23  and  C_25
REMARK    6  A    between atoms: C_25  and  C_26
REMARK                            x       y       z     vdW  Elec       q    Type
REMARK                         _______ _______ _______ _____ _____    ______ ____
ROOT
ATOM      1  C   UNL     1      -7.083  -4.879   1.310  0.00  0.00    +0.206 C 
ATOM      2  N   UNL     1      -6.405  -6.194   1.400  0.00  0.00    -0.231 NA
ATOM      3  N   UNL     1      -7.456  -7.218   1.265  0.00  0.00    -0.224 NA
ATOM      4  C   UNL     1      -8.518  -6.505   0.528  0.00  0.00    +0.240 C 
ATOM      5  N   UNL     1      -8.530  -5.182   1.239  0.00  0.00    -0.206 N 
ATOM      6  N   UNL     1      -9.786  -4.777   1.636  0.00  0.00    -0.178 NA
ATOM      7  C   UNL     1     -10.812  -5.563   1.656  0.00  0.00    +0.099 C 
ATOM      8  S   UNL     1     -10.182  -7.129   0.969  0.00  0.00    -0.068 S 
ATOM      9  H   UNL     1      -5.917  -6.290   2.278  0.00  0.00    +0.143 HD
ATOM     10  H   UNL     1      -7.784  -7.520   2.170  0.00  0.00    +0.144 HD
ENDROOT
BRANCH   1  13
ATOM     11  C   UNL     1      -4.963  -2.620   0.035  0.00  0.00    +0.091 C 
ATOM     12  C   UNL     1      -5.128  -3.957   0.039  0.00  0.00    +0.034 C 
ATOM     13  C   UNL     1      -6.635  -4.138   0.048  0.00  0.00    +0.190 C 
ATOM     14  N   UNL     1      -7.139  -2.755   0.047  0.00  0.00    -0.176 NA
ATOM     15  N   UNL     1      -6.170  -1.994   0.045  0.00  0.00    -0.154 NA
BRANCH  11  19
ATOM     16  C   UNL     1      -1.200  -0.637   0.010  0.00  0.00    +0.120 A 
ATOM     17  C   UNL     1      -2.374   0.104   0.019  0.00  0.00    +0.046 A 
ATOM     18  C   UNL     1      -3.595  -0.536   0.027  0.00  0.00    +0.013 A 
ATOM     19  C   UNL     1      -3.651  -1.928   0.026  0.00  0.00    +0.002 A 
ATOM     20  C   UNL     1      -2.471  -2.670   0.016  0.00  0.00    +0.013 A 
ATOM     21  C   UNL     1      -1.252  -2.025   0.003  0.00  0.00    +0.046 A 
BRANCH  16  23
ATOM     22  C   UNL     1      -0.017   1.425   0.010  0.00  0.00    +0.277 C 
ATOM     23  O   UNL     1       0.002  -0.004   0.002  0.00  0.00    -0.495 OA
ENDBRANCH  16  23
ENDBRANCH  11  19
ENDBRANCH   1  13
BRANCH   7  24
ATOM     24  C   UNL     1     -12.209  -5.254   2.127  0.00  0.00    +0.112 C 
BRANCH  24  25
ATOM     25  C   UNL     1     -12.276  -3.804   2.611  0.00  0.00    +0.217 C 
ATOM     26  C   UNL     1     -13.666  -3.516   3.193  0.00  0.00    +0.274 C 
ATOM     27  O   UNL     1     -13.698  -2.151   3.623  0.00  0.00    -0.485 OA
ATOM     28  C   UNL     1     -13.199  -1.226   2.757  0.00  0.00    +0.162 A 
ATOM     29  C   UNL     1     -13.518   0.112   2.933  0.00  0.00    +0.049 A 
ATOM     30  C   UNL     1     -13.017   1.063   2.065  0.00  0.00    +0.004 A 
ATOM     31  C   UNL     1     -12.195   0.684   1.019  0.00  0.00    +0.004 A 
ATOM     32  C   UNL     1     -11.875  -0.648   0.838  0.00  0.00    +0.049 A 
ATOM     33  C   UNL     1     -12.377  -1.608   1.704  0.00  0.00    +0.162 A 
ATOM     34  O   UNL     1     -12.058  -2.917   1.508  0.00  0.00    -0.481 OA
ENDBRANCH  24  25
ENDBRANCH   7  24
TORSDOF 5
