REMARK  Name = ZINC38656385
REMARK  9 active torsions:
REMARK  status: ('A' for Active; 'I' for Inactive)
REMARK    1  A    between atoms: C_3  and  C_6
REMARK    2  A    between atoms: C_11  and  O_20
REMARK    3  A    between atoms: C_15  and  N_19
REMARK    4  A    between atoms: C_16  and  C_17
REMARK    5  A    between atoms: O_20  and  C_21
REMARK    6  A    between atoms: C_21  and  C_23
REMARK    7  A    between atoms: C_23  and  O_24
REMARK    8  A    between atoms: O_24  and  C_25
REMARK    9  A    between atoms: C_28  and  N_31
REMARK                            x       y       z     vdW  Elec       q    Type
REMARK                         _______ _______ _______ _____ _____    ______ ____
ROOT
ATOM      1  C   UNL     1       3.770   1.788  -0.052  0.00  0.00    +0.105 C 
ATOM      2  C   UNL     1       4.486   1.303   1.180  0.00  0.00    +0.008 A 
ATOM      3  C   UNL     1       4.305   1.969   2.379  0.00  0.00    +0.012 A 
ATOM      4  C   UNL     1       4.954   1.538   3.520  0.00  0.00    +0.047 A 
ATOM      5  C   UNL     1       5.791   0.433   3.466  0.00  0.00    +0.135 A 
ATOM      6  C   UNL     1       5.975  -0.236   2.267  0.00  0.00    +0.093 A 
ATOM      7  C   UNL     1       5.321   0.198   1.121  0.00  0.00    +0.138 A 
ATOM      8  O   UNL     1       5.512  -0.468  -0.045  0.00  0.00    -0.441 OA
ATOM      9  C   UNL     1       5.223   0.130  -1.213  0.00  0.00    +0.199 C 
ATOM     10  C   UNL     1       4.404   1.201  -1.282  0.00  0.00    +0.098 C 
ENDROOT
BRANCH   1  13
ATOM     11  C   UNL     1      -0.028   1.530   0.083  0.00  0.00    +0.008 A 
ATOM     12  C   UNL     1       1.210   2.140   0.017  0.00  0.00    +0.012 A 
ATOM     13  C   UNL     1       2.324   1.368   0.013  0.00  0.00    +0.002 A 
ATOM     14  S   UNL     1       1.634  -0.276   0.103  0.00  0.00    -0.101 S 
ATOM     15  C   UNL     1      -0.092   0.178   0.141  0.00  0.00    +0.045 A 
ENDBRANCH   1  13
BRANCH   9  16
ATOM     16  N   UNL     1       5.776  -0.364  -2.368  0.00  0.00    -0.328 N 
ATOM     17  H   UNL     1       6.366  -1.134  -2.333  0.00  0.00    +0.145 HD
ATOM     18  H   UNL     1       5.577   0.057  -3.219  0.00  0.00    +0.145 HD
ENDBRANCH   9  16
BRANCH  10  19
ATOM     19  C   UNL     1       4.135   1.791  -2.559  0.00  0.00    +0.101 C 
ATOM     20  N   UNL     1       3.922   2.259  -3.572  0.00  0.00    -0.191 NA
ENDBRANCH  10  19
BRANCH   5  21
ATOM     21  O   UNL     1       6.431   0.008   4.587  0.00  0.00    -0.423 OA
BRANCH  21  22
ATOM     22  C   UNL     1       7.763   0.162   4.650  0.00  0.00    +0.350 C 
ATOM     23  O   UNL     1       8.344   0.757   3.774  0.00  0.00    -0.247 OA
BRANCH  22  24
ATOM     24  C   UNL     1       8.534  -0.409   5.812  0.00  0.00    +0.349 C 
BRANCH  24  25
ATOM     25  O   UNL     1       9.923  -0.117   5.652  0.00  0.00    -0.481 OA
BRANCH  25  26
ATOM     26  C   UNL     1      10.764  -0.565   6.622  0.00  0.00    +0.121 A 
ATOM     27  C   UNL     1      10.262  -1.276   7.702  0.00  0.00    +0.048 A 
ATOM     28  C   UNL     1      11.118  -1.730   8.686  0.00  0.00    +0.036 A 
ATOM     29  C   UNL     1      12.474  -1.477   8.595  0.00  0.00    +0.126 A 
ATOM     30  C   UNL     1      12.977  -0.769   7.519  0.00  0.00    +0.036 A 
ATOM     31  C   UNL     1      12.126  -0.317   6.529  0.00  0.00    +0.048 A 
BRANCH  29  32
ATOM     32  N   UNL     1      13.390  -1.965   9.651  0.00  0.00    +0.056 N 
ATOM     33  O   UNL     1      12.951  -2.584  10.592  0.00  0.00    -0.126 OA
ATOM     34  O   UNL     1      14.576  -1.744   9.572  0.00  0.00    -0.126 OA
ENDBRANCH  29  32
ENDBRANCH  25  26
ENDBRANCH  24  25
ENDBRANCH  22  24
ENDBRANCH  21  22
ENDBRANCH   5  21
TORSDOF 9
