REMARK  Name = ZINC58834626
REMARK  10 active torsions:
REMARK  status: ('A' for Active; 'I' for Inactive)
REMARK    1  A    between atoms: C_1  and  C_2
REMARK    2  A    between atoms: C_2  and  C_3
REMARK    3  A    between atoms: C_2  and  C_18
REMARK    4  A    between atoms: C_3  and  C_4
REMARK    5  A    between atoms: N_6  and  N_7
REMARK    6  A    between atoms: N_7  and  C_8
REMARK    7  A    between atoms: C_8  and  N_10
REMARK    8  A    between atoms: N_10  and  C_11
REMARK    9  A    between atoms: C_11  and  C_12
REMARK   10  A    between atoms: C_12  and  C_13
REMARK                            x       y       z     vdW  Elec       q    Type
REMARK                         _______ _______ _______ _____ _____    ______ ____
ROOT
ATOM      1  C   UNL     1      -0.077  -0.103  -2.474  0.00  0.00    +0.230 C 
ATOM      2  O   UNL     1      -1.115   0.512  -2.348  0.00  0.00    -0.274 OA
ATOM      3  N   UNL     1       0.364  -0.434  -3.704  0.00  0.00    -0.235 N 
ATOM      4  H   UNL     1       1.194  -0.926  -3.805  0.00  0.00    +0.173 HD
ENDROOT
BRANCH   3   5
ATOM      5  N   UNL     1      -0.375  -0.067  -4.836  0.00  0.00    -0.246 N 
ATOM      6  H   UNL     1      -1.205   0.425  -4.735  0.00  0.00    +0.172 HD
BRANCH   5   7
ATOM      7  C   UNL     1       0.067  -0.398  -6.066  0.00  0.00    +0.147 C 
ATOM      8  S   UNL     1      -0.837   0.051  -7.449  0.00  0.00    -0.017 S 
BRANCH   7   9
ATOM      9  N   UNL     1       1.220  -1.081  -6.206  0.00  0.00    -0.325 N 
ATOM     10  H   UNL     1       1.732  -1.335  -5.423  0.00  0.00    +0.148 HD
BRANCH   9  11
ATOM     11  C   UNL     1       1.700  -1.441  -7.543  0.00  0.00    +0.108 C 
BRANCH  11  12
ATOM     12  C   UNL     1       3.019  -2.207  -7.422  0.00  0.00    +0.061 C 
BRANCH  12  13
ATOM     13  C   UNL     1       3.513  -2.577  -8.797  0.00  0.00    -0.009 A 
ATOM     14  C   UNL     1       4.328  -1.881  -9.627  0.00  0.00    +0.011 A 
ATOM     15  C   UNL     1       4.652  -2.423 -10.857  0.00  0.00    +0.008 A 
ATOM     16  C   UNL     1       4.145  -3.633 -11.197  0.00  0.00    +0.045 A 
ATOM     17  S   UNL     1       3.181  -4.048  -9.752  0.00  0.00    -0.102 S 
ENDBRANCH  12  13
ENDBRANCH  11  12
ENDBRANCH   9  11
ENDBRANCH   7   9
ENDBRANCH   5   7
ENDBRANCH   3   5
BRANCH   1  18
ATOM     18  C   UNL     1       0.718  -0.497  -1.257  0.00  0.00    +0.105 C 
BRANCH  18  20
ATOM     19  C   UNL     1      -0.019   1.526   0.010  0.00  0.00    +0.013 C 
ATOM     20  C   UNL     1       0.002  -0.004   0.002  0.00  0.00    +0.025 C 
BRANCH  20  21
ATOM     21  C   UNL     1       0.731  -0.503   1.223  0.00  0.00    -0.044 A 
ATOM     22  C   UNL     1       2.050  -0.147   1.433  0.00  0.00    +0.007 A 
ATOM     23  C   UNL     1       2.719  -0.604   2.553  0.00  0.00    +0.038 A 
ATOM     24  C   UNL     1       2.068  -1.419   3.464  0.00  0.00    +0.123 A 
ATOM     25  C   UNL     1       0.747  -1.774   3.252  0.00  0.00    +0.038 A 
ATOM     26  C   UNL     1       0.078  -1.312   2.135  0.00  0.00    +0.007 A 
ATOM     27  F   UNL     1       2.722  -1.866   4.558  0.00  0.00    -0.205 F 
ENDBRANCH  20  21
ENDBRANCH  18  20
ENDBRANCH   1  18
TORSDOF 9
