REMARK  Name = ZINC27816997
REMARK  9 active torsions:
REMARK  status: ('A' for Active; 'I' for Inactive)
REMARK    1  A    between atoms: C_1  and  C_2
REMARK    2  A    between atoms: C_6  and  C_7
REMARK    3  A    between atoms: N_9  and  N_10
REMARK    4  A    between atoms: C_11  and  C_13
REMARK    5  A    between atoms: C_18  and  O_19
REMARK    6  A    between atoms: O_19  and  C_20
REMARK    7  A    between atoms: C_22  and  C_27
REMARK    8  A    between atoms: C_22  and  C_28
REMARK    9  A    between atoms: C_24  and  O_26
REMARK                            x       y       z     vdW  Elec       q    Type
REMARK                         _______ _______ _______ _____ _____    ______ ____
ROOT
ATOM      1  C   UNL     1       4.912   0.731   3.429  0.00  0.00    +0.296 C 
ATOM      2  O   UNL     1       5.751   1.608   3.330  0.00  0.00    -0.265 OA
ATOM      3  N   UNL     1       5.082  -0.267   4.319  0.00  0.00    -0.228 N 
ATOM      4  H   UNL     1       4.324  -1.059   4.408  0.00  0.00    +0.173 HD
ENDROOT
BRANCH   1  10
ATOM      5  C   UNL     1       4.254   2.916   1.286  0.00  0.00    +0.048 C 
ATOM      6  C   UNL     1       3.421   1.712   1.642  0.00  0.00    +0.006 A 
ATOM      7  C   UNL     1       2.196   1.347   1.079  0.00  0.00    +0.025 A 
ATOM      8  C   UNL     1       1.795   0.203   1.686  0.00  0.00    +0.112 A 
ATOM      9  O   UNL     1       2.714  -0.144   2.590  0.00  0.00    -0.454 OA
ATOM     10  C   UNL     1       3.716   0.761   2.581  0.00  0.00    +0.194 A 
ATOM     11  C   UNL     1       0.511  -0.518   1.354  0.00  0.00    +0.081 C 
ATOM     12  C   UNL     1       0.002  -0.004   0.002  0.00  0.00    -0.025 C 
ATOM     13  C   UNL     1      -0.019   1.527   0.010  0.00  0.00    +0.043 C 
ATOM     14  C   UNL     1       1.421   2.057  -0.001  0.00  0.00    +0.149 C 
ATOM     15  C   UNL     1      -1.413  -0.532  -0.244  0.00  0.00    +0.011 C 
ATOM     16  C   UNL     1       0.930  -0.495  -1.111  0.00  0.00    +0.011 C 
BRANCH  14  17
ATOM     17  O   UNL     1       1.418   3.463   0.254  0.00  0.00    -0.387 OA
ATOM     18  H   UNL     1       0.897   4.145  -0.433  0.00  0.00    +0.210 HD
ENDBRANCH  14  17
ENDBRANCH   1  10
BRANCH   3  19
ATOM     19  N   UNL     1       6.224  -0.295   5.130  0.00  0.00    -0.230 N 
ATOM     20  C   UNL     1       6.395  -1.294   6.019  0.00  0.00    +0.264 C 
ATOM     21  O   UNL     1       5.557  -2.169   6.118  0.00  0.00    -0.269 OA
ATOM     22  H   UNL     1       6.982   0.497   5.040  0.00  0.00    +0.173 HD
BRANCH  20  23
ATOM     23  C   UNL     1       7.598  -1.324   6.873  0.00  0.00    +0.080 A 
ATOM     24  C   UNL     1       8.563  -0.320   6.762  0.00  0.00    +0.017 A 
ATOM     25  C   UNL     1       9.684  -0.354   7.563  0.00  0.00    +0.001 A 
ATOM     26  C   UNL     1       9.859  -1.379   8.477  0.00  0.00    +0.004 A 
ATOM     27  C   UNL     1       8.913  -2.378   8.596  0.00  0.00    +0.046 A 
ATOM     28  C   UNL     1       7.776  -2.357   7.803  0.00  0.00    +0.132 A 
BRANCH  28  29
ATOM     29  O   UNL     1       6.843  -3.334   7.923  0.00  0.00    -0.494 OA
ATOM     30  C   UNL     1       7.092  -4.354   8.893  0.00  0.00    +0.277 C 
ENDBRANCH  28  29
ENDBRANCH  20  23
ENDBRANCH   3  19
TORSDOF 5
