REMARK  Name = ZINC60244126
REMARK  10 active torsions:
REMARK  status: ('A' for Active; 'I' for Inactive)
REMARK    1  A    between atoms: C_1  and  C_2
REMARK    2  A    between atoms: C_2  and  C_3
REMARK    3  A    between atoms: C_2  and  C_4
REMARK    4  A    between atoms: C_4  and  C_6
REMARK    5  A    between atoms: C_4  and  N_23
REMARK    6  A    between atoms: N_8  and  C_9
REMARK    7  A    between atoms: C_9  and  C_10
REMARK    8  A    between atoms: N_15  and  C_17
REMARK    9  A    between atoms: C_17  and  C_18
REMARK   10  A    between atoms: C_24  and  C_26
REMARK                            x       y       z     vdW  Elec       q    Type
REMARK                         _______ _______ _______ _____ _____    ______ ____
ROOT
ATOM      1  C   UNL     1      -1.413  -2.041   0.005  0.00  0.00    +0.234 C 
ATOM      2  O   UNL     1      -1.921  -2.659   0.916  0.00  0.00    -0.274 OA
ATOM      3  N   UNL     1      -0.830  -2.701  -1.015  0.00  0.00    -0.314 N 
ATOM      4  H   UNL     1      -0.423  -2.206  -1.744  0.00  0.00    +0.149 HD
ENDROOT
BRANCH   1   5
ATOM      5  C   UNL     1      -1.433  -0.534   0.013  0.00  0.00    +0.162 C 
BRANCH   5   6
ATOM      6  N   UNL     1      -2.119  -0.061   1.218  0.00  0.00    -0.300 N 
ATOM      7  C   UNL     1      -2.704   1.153   1.228  0.00  0.00    +0.250 C 
ATOM      8  O   UNL     1      -2.663   1.856   0.237  0.00  0.00    -0.270 OA
ATOM      9  H   UNL     1      -2.152  -0.622   2.009  0.00  0.00    +0.150 HD
BRANCH   7  10
ATOM     10  C   UNL     1      -3.395   1.629   2.442  0.00  0.00    +0.107 A 
ATOM     11  C   UNL     1      -2.694   2.354   3.412  0.00  0.00    +0.138 A 
ATOM     12  C   UNL     1      -3.349   2.797   4.546  0.00  0.00    +0.039 A 
ATOM     13  C   UNL     1      -4.693   2.523   4.724  0.00  0.00    +0.006 A 
ATOM     14  C   UNL     1      -5.393   1.806   3.771  0.00  0.00    +0.039 A 
ATOM     15  C   UNL     1      -4.755   1.362   2.628  0.00  0.00    +0.138 A 
ATOM     16  F   UNL     1      -5.443   0.666   1.696  0.00  0.00    -0.205 F 
ATOM     17  F   UNL     1      -1.381   2.622   3.240  0.00  0.00    -0.205 F 
ENDBRANCH   7  10
ENDBRANCH   5   6
BRANCH   5  19
ATOM     18  C   UNL     1      -0.019   1.526   0.010  0.00  0.00    +0.009 C 
ATOM     19  C   UNL     1       0.002  -0.004   0.002  0.00  0.00    +0.012 C 
ATOM     20  C   UNL     1       0.742  -0.511   1.242  0.00  0.00    +0.009 C 
ENDBRANCH   5  19
ENDBRANCH   1   5
BRANCH   3  21
ATOM     21  C   UNL     1      -0.810  -4.166  -1.024  0.00  0.00    +0.106 C 
BRANCH  21  22
ATOM     22  C   UNL     1      -0.094  -4.659  -2.282  0.00  0.00    -0.011 C 
ATOM     23  C   UNL     1       1.377  -4.237  -2.232  0.00  0.00    +0.001 C 
ATOM     24  C   UNL     1       2.102  -4.802  -3.457  0.00  0.00    -0.018 C 
ATOM     25  C   UNL     1       1.936  -6.323  -3.485  0.00  0.00    -0.078 C 
ATOM     26  N   UNL     1       0.510  -6.662  -3.559  0.00  0.00    +0.383 N 
ATOM     27  C   UNL     1      -0.179  -6.185  -2.354  0.00  0.00    -0.073 C 
ATOM     28  H   UNL     1       0.103  -6.224  -4.372  0.00  0.00    -0.081 HD
BRANCH  26  29
ATOM     29  C   UNL     1       0.359  -8.119  -3.663  0.00  0.00    -0.036 C 
BRANCH  29  30
ATOM     30  C   UNL     1       0.951  -8.593  -4.966  0.00  0.00    -0.027 A 
ATOM     31  C   UNL     1       2.217  -8.997  -5.232  0.00  0.00    +0.009 A 
ATOM     32  C   UNL     1       2.538  -9.395  -6.516  0.00  0.00    +0.008 A 
ATOM     33  C   UNL     1       1.577  -9.370  -7.472  0.00  0.00    +0.045 A 
ATOM     34  S   UNL     1       0.163  -8.776  -6.558  0.00  0.00    -0.103 S 
ENDBRANCH  29  30
ENDBRANCH  26  29
ENDBRANCH  21  22
ENDBRANCH   3  21
TORSDOF 8
