REMARK  Name = ZINC31643915
REMARK  6 active torsions:
REMARK  status: ('A' for Active; 'I' for Inactive)
REMARK    1  A    between atoms: C_1  and  C_2
REMARK    2  A    between atoms: C_2  and  C_4
REMARK    3  A    between atoms: C_4  and  S_5
REMARK    4  A    between atoms: S_5  and  C_6
REMARK    5  A    between atoms: C_9  and  C_12
REMARK    6  A    between atoms: N_10  and  N_11
REMARK                            x       y       z     vdW  Elec       q    Type
REMARK                         _______ _______ _______ _____ _____    ______ ____
ROOT
ATOM      1  C   UNL     1      -0.128  -0.826  -1.082  0.00  0.00    +0.209 A 
ATOM      2  N   UNL     1       0.001  -2.061  -0.650  0.00  0.00    -0.121 NA
ATOM      3  N   UNL     1       0.143  -2.069   0.627  0.00  0.00    -0.127 NA
ATOM      4  C   UNL     1       0.119  -0.840   1.089  0.00  0.00    +0.183 A 
ATOM      5  N   UNL     1      -0.051  -0.006   0.007  0.00  0.00    -0.224 N 
ENDROOT
BRANCH   4   6
ATOM      6  C   UNL     1       0.250  -0.429   2.503  0.00  0.00    +0.035 A 
ATOM      7  C   UNL     1      -0.639   0.497   3.049  0.00  0.00    +0.013 A 
ATOM      8  C   UNL     1      -0.512   0.876   4.369  0.00  0.00    +0.001 A 
ATOM      9  C   UNL     1       0.495   0.339   5.152  0.00  0.00    +0.001 A 
ATOM     10  C   UNL     1       1.381  -0.579   4.618  0.00  0.00    +0.016 A 
ATOM     11  C   UNL     1       1.261  -0.971   3.300  0.00  0.00    +0.029 A 
ATOM     12 BR   UNL     1       2.467  -2.233   2.572  0.00  0.00    -0.050 Br
ENDBRANCH   4   6
BRANCH   5  13
ATOM     13  N   UNL     1      -0.133   1.357   0.022  0.00  0.00    -0.295 N 
ATOM     14  H   UNL     1      -0.055   1.903   0.974  0.00  0.00    +0.163 HD
ATOM     15  H   UNL     1      -0.276   1.910  -0.919  0.00  0.00    +0.163 HD
ENDBRANCH   5  13
BRANCH   1  16
ATOM     16  S   UNL     1      -0.353  -0.323  -2.755  0.00  0.00    -0.080 S 
BRANCH  16  17
ATOM     17  C   UNL     1      -0.349  -1.938  -3.573  0.00  0.00    +0.107 C 
BRANCH  17  19
ATOM     18  C   UNL     1      -1.891  -1.398  -5.609  0.00  0.00    +0.039 C 
ATOM     19  C   UNL     1      -0.533  -1.750  -5.057  0.00  0.00    -0.069 C 
ATOM     20  C   UNL     1       0.486  -1.893  -5.866  0.00  0.00    +0.008 C 
ENDBRANCH  17  19
ENDBRANCH  16  17
ENDBRANCH   1  16
TORSDOF 5
