REMARK  Name = ZINC43406764
REMARK  4 active torsions:
REMARK  status: ('A' for Active; 'I' for Inactive)
REMARK    1  A    between atoms: C_1  and  N_2
REMARK    2  A    between atoms: N_2  and  C_3
REMARK    3  A    between atoms: C_3  and  C_4
REMARK    4  A    between atoms: C_11  and  C_19
REMARK                            x       y       z     vdW  Elec       q    Type
REMARK                         _______ _______ _______ _____ _____    ______ ____
ROOT
ATOM      1  C   UNL     1      -1.415   1.072   0.522  0.00  0.00    +0.131 C 
ATOM      2  N   UNL     1      -0.193   0.358   0.147  0.00  0.00    -0.313 N 
ATOM      3  C   UNL     1      -0.218  -0.561  -0.887  0.00  0.00    +0.132 A 
ATOM      4  C   UNL     1      -0.084  -0.122  -2.215  0.00  0.00    +0.052 A 
ATOM      5  C   UNL     1      -0.113  -1.072  -3.240  0.00  0.00    +0.020 A 
ATOM      6  C   UNL     1      -0.272  -2.406  -2.902  0.00  0.00    -0.025 A 
ATOM      7  C   UNL     1      -0.397  -2.766  -1.572  0.00  0.00    +0.047 A 
ATOM      8  N   UNL     1      -0.362  -1.847  -0.619  0.00  0.00    -0.236 NA
ATOM      9  C   UNL     1      -0.557  -4.269  -1.467  0.00  0.00    +0.056 C 
ATOM     10  C   UNL     1      -0.954  -4.735  -2.883  0.00  0.00    +0.011 C 
ATOM     11  C   UNL     1      -0.339  -3.638  -3.778  0.00  0.00    +0.037 C 
ENDROOT
BRANCH   4  12
ATOM     12  C   UNL     1       0.083   1.312  -2.521  0.00  0.00    +0.098 C 
ATOM     13  N   UNL     1       1.090   1.997  -1.980  0.00  0.00    -0.387 N 
ATOM     14  N   UNL     1      -0.774   1.923  -3.339  0.00  0.00    -0.344 N 
ATOM     15  H   UNL     1       1.758   1.537  -1.448  0.00  0.00    +0.157 HD
ATOM     16  H   UNL     1      -1.508   1.425  -3.733  0.00  0.00    +0.144 HD
ATOM     17  H   UNL     1      -0.665   2.865  -3.541  0.00  0.00    +0.144 HD
ATOM     18  H   UNL     1       1.155   2.955  -2.117  0.00  0.00    +0.157 HD
ENDBRANCH   4  12
BRANCH   2  19
ATOM     19  C   UNL     1       1.057   0.616   0.867  0.00  0.00    +0.141 C 
BRANCH  19  20
ATOM     20  C   UNL     1       1.166  -0.326   2.038  0.00  0.00    -0.022 A 
ATOM     21  C   UNL     1       0.651   0.025   3.272  0.00  0.00    +0.028 A 
ATOM     22  C   UNL     1       0.767  -0.846   4.304  0.00  0.00    +0.055 A 
ATOM     23  S   UNL     1       1.625  -2.212   3.540  0.00  0.00    -0.090 S 
ATOM     24  C   UNL     1       1.766  -1.533   1.895  0.00  0.00    +0.051 A 
ATOM     25 BR   UNL     1       0.174  -0.662   6.090  0.00  0.00    -0.043 Br
ENDBRANCH  19  20
ENDBRANCH   2  19
TORSDOF 3
