REMARK  Name = ZINC63479951
REMARK  4 active torsions:
REMARK  status: ('A' for Active; 'I' for Inactive)
REMARK    1  A    between atoms: C_1  and  C_2
REMARK    2  A    between atoms: C_6  and  N_8
REMARK    3  A    between atoms: C_13  and  C_31
REMARK    4  A    between atoms: C_31  and  C_32
REMARK                            x       y       z     vdW  Elec       q    Type
REMARK                         _______ _______ _______ _____ _____    ______ ____
ROOT
ATOM      1  N   UNL     1       0.050  -2.798   2.395  0.00  0.00    -0.210 N 
ATOM      2  C   UNL     1       0.141  -2.196   3.587  0.00  0.00    +0.232 C 
ATOM      3  O   UNL     1       0.217  -0.999   3.762  0.00  0.00    -0.274 OA
ATOM      4  C   UNL     1       0.133  -3.241   4.680  0.00  0.00    +0.107 C 
ATOM      5  C   UNL     1       1.522  -3.280   5.351  0.00  0.00    +0.072 C 
ATOM      6  N   UNL     1       1.858  -4.725   5.449  0.00  0.00    -0.295 NA
ATOM      7  C   UNL     1       1.353  -5.300   4.188  0.00  0.00    +0.136 C 
ATOM      8  C   UNL     1       0.014  -4.578   3.896  0.00  0.00    +0.123 C 
ATOM      9  C   UNL     1      -0.030  -4.133   2.452  0.00  0.00    +0.233 C 
ATOM     10  O   UNL     1      -0.122  -4.870   1.494  0.00  0.00    -0.274 OA
ATOM     11  C   UNL     1       1.159  -6.785   4.300  0.00  0.00    +0.006 A 
ATOM     12  C   UNL     1       0.393  -7.581   5.122  0.00  0.00    +0.046 A 
ATOM     13  C   UNL     1       0.427  -8.959   4.981  0.00  0.00    +0.124 A 
ATOM     14  C   UNL     1       1.234  -9.531   4.012  0.00  0.00    +0.040 A 
ATOM     15  C   UNL     1       2.002  -8.736   3.187  0.00  0.00    +0.026 A 
ATOM     16  C   UNL     1       1.973  -7.350   3.323  0.00  0.00    +0.039 A 
ATOM     17  N   UNL     1       2.648  -6.349   2.619  0.00  0.00    -0.283 N 
ATOM     18  C   UNL     1       2.340  -5.117   3.067  0.00  0.00    +0.243 C 
ATOM     19  O   UNL     1       2.772  -4.064   2.647  0.00  0.00    -0.273 OA
ATOM     20  F   UNL     1      -0.323  -9.742   5.787  0.00  0.00    -0.205 F 
ATOM     21  H   UNL     1       2.854  -4.860   5.534  0.00  0.00    +0.124 HD
ATOM     22  H   UNL     1       3.268  -6.522   1.893  0.00  0.00    +0.155 HD
ENDROOT
BRANCH   1  28
ATOM     23  C   UNL     1      -2.369  -1.348  -1.634  0.00  0.00    +0.044 C 
ATOM     24  C   UNL     1      -1.124  -1.369  -0.785  0.00  0.00    -0.049 A 
ATOM     25  C   UNL     1       0.006  -0.689  -1.200  0.00  0.00    +0.003 A 
ATOM     26  C   UNL     1       1.151  -0.707  -0.425  0.00  0.00    +0.002 A 
ATOM     27  C   UNL     1       1.169  -1.405   0.767  0.00  0.00    +0.024 A 
ATOM     28  C   UNL     1       0.035  -2.089   1.186  0.00  0.00    +0.044 A 
ATOM     29  C   UNL     1      -1.114  -2.064   0.408  0.00  0.00    +0.027 A 
ENDBRANCH   1  28
BRANCH   5  30
ATOM     30  C   UNL     1       1.458  -2.651   6.745  0.00  0.00    +0.052 C 
BRANCH  30  31
ATOM     31  C   UNL     1       2.844  -2.588   7.332  0.00  0.00    -0.040 C 
ATOM     32  C   UNL     1       3.695  -1.537   7.298  0.00  0.00    -0.001 A 
ATOM     33  C   UNL     1       3.588  -0.190   6.724  0.00  0.00    +0.010 A 
ATOM     34  C   UNL     1       4.631   0.662   6.852  0.00  0.00    +0.001 A 
ATOM     35  C   UNL     1       5.809   0.291   7.516  0.00  0.00    +0.002 A 
ATOM     36  C   UNL     1       5.981  -0.929   8.069  0.00  0.00    +0.026 A 
ATOM     37  C   UNL     1       4.948  -1.904   7.995  0.00  0.00    +0.043 A 
ATOM     38  N   UNL     1       4.875  -3.134   8.442  0.00  0.00    -0.380 N 
ATOM     39  C   UNL     1       3.563  -3.685   8.085  0.00  0.00    +0.144 C 
ATOM     40  H   UNL     1       5.571  -3.600   8.931  0.00  0.00    +0.160 HD
ENDBRANCH  30  31
ENDBRANCH   5  30
TORSDOF 3
