REMARK  Name = ZINC41803637
REMARK  5 active torsions:
REMARK  status: ('A' for Active; 'I' for Inactive)
REMARK    1  A    between atoms: C_1  and  C_2
REMARK    2  A    between atoms: C_2  and  C_4
REMARK    3  A    between atoms: C_2  and  N_10
REMARK    4  A    between atoms: N_10  and  C_11
REMARK    5  A    between atoms: C_11  and  C_21
REMARK                            x       y       z     vdW  Elec       q    Type
REMARK                         _______ _______ _______ _____ _____    ______ ____
ROOT
ATOM      1  C   UNL     1       0.111  -0.222   2.389  0.00  0.00    +0.068 C 
ATOM      2  C   UNL     1       1.377  -0.503   3.201  0.00  0.00    +0.044 C 
ATOM      3  C   UNL     1       1.530  -2.023   3.345  0.00  0.00    +0.228 C 
ATOM      4  O   UNL     1       0.434  -2.515   4.116  0.00  0.00    -0.492 OA
ATOM      5  C   UNL     1      -0.818  -2.124   3.760  0.00  0.00    +0.123 A 
ATOM      6  C   UNL     1      -1.035  -1.032   2.938  0.00  0.00    -0.006 A 
ATOM      7  C   UNL     1      -2.329  -0.667   2.605  0.00  0.00    +0.006 A 
ATOM      8  C   UNL     1      -3.403  -1.389   3.088  0.00  0.00    +0.000 A 
ATOM      9  C   UNL     1      -3.189  -2.482   3.907  0.00  0.00    +0.004 A 
ATOM     10  C   UNL     1      -1.902  -2.850   4.243  0.00  0.00    +0.046 A 
ENDROOT
BRANCH   1  11
ATOM     11  N   UNL     1       0.340  -0.589   0.985  0.00  0.00    +0.396 N 
ATOM     12  H   UNL     1       0.669  -1.542   0.935  0.00  0.00    -0.083 HD
ATOM     13  H   UNL     1       1.033   0.027   0.585  0.00  0.00    -0.083 HD
BRANCH  11  15
ATOM     14  C   UNL     1      -1.301   1.012   0.125  0.00  0.00    -0.011 C 
ATOM     15  C   UNL     1      -0.917  -0.465   0.235  0.00  0.00    -0.044 C 
BRANCH  15  16
ATOM     16  C   UNL     1      -0.734  -1.050  -1.167  0.00  0.00    +0.104 C 
ATOM     17  C   UNL     1      -2.074  -1.011  -1.945  0.00  0.00    +0.032 C 
ATOM     18  C   UNL     1      -1.564  -1.004  -3.411  0.00  0.00    +0.030 C 
ATOM     19  C   UNL     1      -0.259  -0.187  -3.300  0.00  0.00    +0.160 C 
ATOM     20  O   UNL     1       0.170  -0.237  -1.933  0.00  0.00    -0.378 OA
ENDBRANCH  15  16
ENDBRANCH  11  15
ENDBRANCH   1  11
BRANCH   1  21
ATOM     21  C   UNL     1      -0.224   1.245   2.475  0.00  0.00    +0.350 C 
ATOM     22  O   UNL     1       0.172   2.012   1.615  0.00  0.00    -0.248 OA
ATOM     23  O   UNL     1      -0.891   1.663   3.406  0.00  0.00    -0.248 OA
ENDBRANCH   1  21
TORSDOF 4
