REMARK  Name = ZINC64702011
REMARK  9 active torsions:
REMARK  status: ('A' for Active; 'I' for Inactive)
REMARK    1  A    between atoms: C_1  and  C_2
REMARK    2  A    between atoms: C_4  and  C_35
REMARK    3  A    between atoms: C_8  and  C_10
REMARK    4  A    between atoms: C_10  and  N_11
REMARK    5  A    between atoms: C_12  and  C_14
REMARK    6  A    between atoms: C_14  and  C_15
REMARK    7  A    between atoms: C_15  and  C_16
REMARK    8  A    between atoms: N_19  and  C_28
REMARK    9  A    between atoms: C_28  and  C_29
REMARK                            x       y       z     vdW  Elec       q    Type
REMARK                         _______ _______ _______ _____ _____    ______ ____
ROOT
ATOM      1  C   UNL     1      -3.275  -1.849   7.815  0.00  0.00    +0.107 A 
ATOM      2  C   UNL     1      -4.357  -1.639   8.783  0.00  0.00    +0.273 A 
ATOM      3  O   UNL     1      -5.299  -0.918   8.508  0.00  0.00    -0.266 OA
ATOM      4  N   UNL     1      -4.295  -2.256   9.984  0.00  0.00    -0.301 N 
ATOM      5  C   UNL     1      -3.213  -3.066  10.264  0.00  0.00    +0.071 A 
ATOM      6  C   UNL     1      -3.121  -3.716  11.492  0.00  0.00    +0.029 A 
ATOM      7  C   UNL     1      -2.038  -4.523  11.761  0.00  0.00    +0.022 A 
ATOM      8  C   UNL     1      -1.034  -4.695  10.815  0.00  0.00    +0.043 A 
ATOM      9  C   UNL     1      -1.104  -4.067   9.605  0.00  0.00    +0.049 A 
ATOM     10  C   UNL     1      -2.197  -3.240   9.306  0.00  0.00    +0.089 A 
ATOM     11  N   UNL     1      -2.272  -2.625   8.110  0.00  0.00    -0.245 NA
ATOM     12 CL   UNL     1       0.322  -5.717  11.176  0.00  0.00    -0.083 Cl
ENDROOT
BRANCH   1  13
ATOM     13  C   UNL     1      -3.328  -1.169   6.471  0.00  0.00    +0.070 C 
BRANCH  13  14
ATOM     14  C   UNL     1      -2.094  -1.557   5.654  0.00  0.00    +0.102 C 
BRANCH  14  16
ATOM     15  N   UNL     1      -1.157  -1.073   3.416  0.00  0.00    -0.314 N 
ATOM     16  C   UNL     1      -2.147  -0.877   4.310  0.00  0.00    +0.213 C 
ATOM     17  O   UNL     1      -3.081  -0.154   4.032  0.00  0.00    -0.276 OA
ATOM     18  H   UNL     1      -0.411  -1.651   3.638  0.00  0.00    +0.149 HD
BRANCH  15  19
ATOM     19  C   UNL     1      -1.209  -0.412   2.110  0.00  0.00    +0.121 C 
BRANCH  19  27
ATOM     20  C   UNL     1      -0.018   1.503   0.010  0.00  0.00    +0.040 C 
ATOM     21  C   UNL     1       0.002  -0.004   0.002  0.00  0.00    -0.058 C 
ATOM     22  C   UNL     1       0.006  -0.695  -1.148  0.00  0.00    +0.020 C 
ATOM     23  C   UNL     1       0.025  -2.103  -1.149  0.00  0.00    +0.031 C 
ATOM     24  N   UNL     1       0.040  -2.837  -0.070  0.00  0.00    -0.185 NA
ATOM     25  C   UNL     1       0.039  -2.309   1.161  0.00  0.00    +0.245 C 
ATOM     26  O   UNL     1       0.054  -3.021   2.144  0.00  0.00    -0.273 OA
ATOM     27  C   UNL     1       0.025  -0.799   1.293  0.00  0.00    +0.120 C 
ATOM     28  C   UNL     1       0.028  -2.807  -2.482  0.00  0.00    +0.063 C 
ENDBRANCH  19  27
ENDBRANCH  15  19
ENDBRANCH  14  16
ENDBRANCH  13  14
ENDBRANCH   1  13
BRANCH   4  29
ATOM     29  C   UNL     1      -5.359  -2.066  10.973  0.00  0.00    +0.160 C 
BRANCH  29  30
ATOM     30  C   UNL     1      -6.421  -3.116  10.775  0.00  0.00    -0.028 A 
ATOM     31  C   UNL     1      -7.482  -2.875   9.922  0.00  0.00    +0.005 A 
ATOM     32  C   UNL     1      -8.456  -3.838   9.741  0.00  0.00    +0.000 A 
ATOM     33  C   UNL     1      -8.370  -5.043  10.412  0.00  0.00    +0.000 A 
ATOM     34  C   UNL     1      -7.310  -5.285  11.265  0.00  0.00    +0.000 A 
ATOM     35  C   UNL     1      -6.333  -4.323  11.443  0.00  0.00    +0.005 A 
ENDBRANCH  29  30
ENDBRANCH   4  29
TORSDOF 7
