REMARK  Name = ZINC09065287
REMARK  12 active torsions:
REMARK  status: ('A' for Active; 'I' for Inactive)
REMARK    1  A    between atoms: C_1  and  C_2
REMARK    2  A    between atoms: C_2  and  C_3
REMARK    3  A    between atoms: C_2  and  C_4
REMARK    4  A    between atoms: C_2  and  C_5
REMARK    5  A    between atoms: C_13  and  C_25
REMARK    6  A    between atoms: C_15  and  C_21
REMARK    7  A    between atoms: C_15  and  C_23
REMARK    8  A    between atoms: C_16  and  N_20
REMARK    9  A    between atoms: C_17  and  C_18
REMARK   10  A    between atoms: C_28  and  O_31
REMARK   11  A    between atoms: O_31  and  C_32
REMARK   12  A    between atoms: C_32  and  C_33
REMARK                            x       y       z     vdW  Elec       q    Type
REMARK                         _______ _______ _______ _____ _____    ______ ____
ROOT
ATOM      1  C   UNL     1       0.590  -0.464  -1.308  0.00  0.00    -0.001 C 
ATOM      2  C   UNL     1       0.561  -1.996  -1.403  0.00  0.00    +0.031 C 
ATOM      3  C   UNL     1       1.302  -2.542  -0.209  0.00  0.00    -0.021 C 
ATOM      4  C   UNL     1       2.325  -1.891   0.308  0.00  0.00    -0.029 C 
ATOM      5  C   UNL     1       2.871  -0.611  -0.253  0.00  0.00    +0.031 C 
ATOM      6  C   UNL     1       2.046  -0.005  -1.363  0.00  0.00    +0.013 C 
ATOM      7  C   UNL     1       3.088   0.366   0.903  0.00  0.00    +0.066 C 
ATOM      8  C   UNL     1       4.142  -0.213   1.849  0.00  0.00    +0.188 C 
ATOM      9  C   UNL     1       3.828  -1.628   2.230  0.00  0.00    +0.054 C 
ATOM     10  C   UNL     1       2.994  -2.430   1.521  0.00  0.00    +0.074 C 
ENDROOT
BRANCH   7  11
ATOM     11  C   UNL     1       3.564   1.690   0.363  0.00  0.00    -0.041 A 
ATOM     12  C   UNL     1       4.395   1.726  -0.742  0.00  0.00    +0.007 A 
ATOM     13  C   UNL     1       4.833   2.938  -1.239  0.00  0.00    +0.046 A 
ATOM     14  C   UNL     1       4.439   4.120  -0.629  0.00  0.00    +0.121 A 
ATOM     15  C   UNL     1       3.605   4.081   0.480  0.00  0.00    +0.046 A 
ATOM     16  C   UNL     1       3.166   2.866   0.970  0.00  0.00    +0.007 A 
BRANCH  14  17
ATOM     17  O   UNL     1       4.869   5.313  -1.115  0.00  0.00    -0.483 OA
BRANCH  17  18
ATOM     18  C   UNL     1       4.423   6.489  -0.437  0.00  0.00    +0.324 C 
BRANCH  18  19
ATOM     19  C   UNL     1       4.996   7.708  -1.113  0.00  0.00    +0.248 C 
ATOM     20  O   UNL     1       5.716   7.581  -2.081  0.00  0.00    -0.272 OA
ATOM     21  N   UNL     1       4.710   8.938  -0.642  0.00  0.00    -0.327 N 
ATOM     22  H   UNL     1       4.134   9.039   0.132  0.00  0.00    +0.145 HD
ATOM     23  H   UNL     1       5.079   9.722  -1.078  0.00  0.00    +0.145 HD
ENDBRANCH  18  19
ENDBRANCH  17  18
ENDBRANCH  14  17
ENDBRANCH   7  11
BRANCH   1  25
ATOM     24  C   UNL     1       0.398   1.415   0.328  0.00  0.00    +0.011 C 
ATOM     25  C   UNL     1      -0.042  -0.017   0.011  0.00  0.00    -0.035 C 
ATOM     26  C   UNL     1       0.412  -0.950   1.136  0.00  0.00    +0.011 C 
ATOM     27  C   UNL     1      -1.566  -0.067  -0.109  0.00  0.00    +0.011 C 
ENDBRANCH   1  25
BRANCH   9  28
ATOM     28  N   UNL     1       4.413  -2.139   3.355  0.00  0.00    -0.358 N 
ATOM     29  H   UNL     1       5.013  -1.588   3.882  0.00  0.00    +0.142 HD
ATOM     30  H   UNL     1       4.228  -3.051   3.626  0.00  0.00    +0.142 HD
ENDBRANCH   9  28
BRANCH  10  31
ATOM     31  C   UNL     1       2.762  -3.781   1.936  0.00  0.00    +0.101 C 
ATOM     32  N   UNL     1       2.577  -4.853   2.265  0.00  0.00    -0.191 NA
ENDBRANCH  10  31
BRANCH   8  33
ATOM     33  C   UNL     1       4.198   0.611   3.067  0.00  0.00    +0.091 C 
ATOM     34  N   UNL     1       4.242   1.247   4.007  0.00  0.00    -0.194 NA
ENDBRANCH   8  33
BRANCH   8  35
ATOM     35  C   UNL     1       5.455  -0.176   1.185  0.00  0.00    +0.091 C 
ATOM     36  N   UNL     1       6.468  -0.147   0.672  0.00  0.00    -0.194 NA
ENDBRANCH   8  35
TORSDOF 9
