REMARK  Name = ZINC40137527
REMARK  13 active torsions:
REMARK  status: ('A' for Active; 'I' for Inactive)
REMARK    1  A    between atoms: C_1  and  C_2
REMARK    2  A    between atoms: C_5  and  O_8
REMARK    3  A    between atoms: O_8  and  C_9
REMARK    4  A    between atoms: C_9  and  C_10
REMARK    5  A    between atoms: C_10  and  N_11
REMARK    6  A    between atoms: N_19  and  N_20
REMARK    7  A    between atoms: C_21  and  C_23
REMARK    8  A    between atoms: C_25  and  O_33
REMARK    9  A    between atoms: C_26  and  O_31
REMARK   10  A    between atoms: C_27  and  O_29
REMARK   11  A    between atoms: O_29  and  C_30
REMARK   12  A    between atoms: O_31  and  C_32
REMARK   13  A    between atoms: O_33  and  C_34
REMARK                            x       y       z     vdW  Elec       q    Type
REMARK                         _______ _______ _______ _____ _____    ______ ____
ROOT
ATOM      1  N   UNL     1       1.344  -6.688   0.389  0.00  0.00    -0.262 N 
ATOM      2  C   UNL     1       1.523  -6.755  -0.988  0.00  0.00    +0.046 A 
ATOM      3  C   UNL     1       0.657  -6.500  -2.046  0.00  0.00    +0.024 A 
ATOM      4  C   UNL     1       1.091  -6.644  -3.348  0.00  0.00    +0.002 A 
ATOM      5  C   UNL     1       2.390  -7.042  -3.618  0.00  0.00    +0.001 A 
ATOM      6  C   UNL     1       3.264  -7.300  -2.581  0.00  0.00    +0.012 A 
ATOM      7  C   UNL     1       2.835  -7.157  -1.266  0.00  0.00    +0.028 A 
ATOM      8  C   UNL     1       3.500  -7.349   0.044  0.00  0.00    +0.153 C 
ATOM      9  N   UNL     1       4.737  -7.724   0.265  0.00  0.00    -0.174 NA
ATOM     10  C   UNL     1       2.468  -7.019   1.047  0.00  0.00    +0.271 C 
ATOM     11  O   UNL     1       2.609  -7.046   2.255  0.00  0.00    -0.268 OA
ENDROOT
BRANCH   9  12
ATOM     12  N   UNL     1       5.205  -7.855   1.579  0.00  0.00    -0.202 N 
ATOM     13  C   UNL     1       6.477  -8.241   1.806  0.00  0.00    +0.264 C 
ATOM     14  O   UNL     1       7.217  -8.474   0.870  0.00  0.00    -0.268 OA
ATOM     15  H   UNL     1       4.614  -7.669   2.325  0.00  0.00    +0.178 HD
BRANCH  13  16
ATOM     16  C   UNL     1       6.970  -8.379   3.189  0.00  0.00    +0.045 A 
ATOM     17  C   UNL     1       6.117  -8.117   4.265  0.00  0.00    +0.062 A 
ATOM     18  C   UNL     1       6.582  -8.248   5.560  0.00  0.00    +0.166 A 
ATOM     19  C   UNL     1       7.897  -8.641   5.793  0.00  0.00    +0.204 A 
ATOM     20  C   UNL     1       8.749  -8.903   4.723  0.00  0.00    +0.166 A 
ATOM     21  C   UNL     1       8.288  -8.779   3.425  0.00  0.00    +0.062 A 
BRANCH  20  22
ATOM     22  O   UNL     1      10.033  -9.286   4.954  0.00  0.00    -0.491 OA
ATOM     23  C   UNL     1      10.851  -9.537   3.809  0.00  0.00    +0.277 C 
ENDBRANCH  20  22
BRANCH  19  24
ATOM     24  O   UNL     1       8.351  -8.770   7.067  0.00  0.00    -0.488 OA
ATOM     25  C   UNL     1       8.202 -10.050   7.683  0.00  0.00    +0.277 C 
ENDBRANCH  19  24
BRANCH  18  26
ATOM     26  O   UNL     1       5.753  -7.993   6.608  0.00  0.00    -0.491 OA
ATOM     27  C   UNL     1       4.417  -7.594   6.296  0.00  0.00    +0.277 C 
ENDBRANCH  18  26
ENDBRANCH  13  16
ENDBRANCH   9  12
BRANCH   1  28
ATOM     28  C   UNL     1       0.090  -6.300   1.040  0.00  0.00    +0.155 C 
BRANCH  28  29
ATOM     29  C   UNL     1       0.072  -4.785   1.249  0.00  0.00    +0.248 C 
BRANCH  29  30
ATOM     30  O   UNL     1       0.057  -4.129  -0.021  0.00  0.00    -0.490 OA
BRANCH  30  35
ATOM     31  C   UNL     1      -0.018   1.503   0.010  0.00  0.00    +0.044 C 
ATOM     32  C   UNL     1       0.002  -0.004   0.002  0.00  0.00    -0.050 A 
ATOM     33  C   UNL     1       0.006  -0.688  -1.200  0.00  0.00    +0.007 A 
ATOM     34  C   UNL     1       0.024  -2.069  -1.210  0.00  0.00    +0.046 A 
ATOM     35  C   UNL     1       0.039  -2.770  -0.013  0.00  0.00    +0.121 A 
ATOM     36  C   UNL     1       0.036  -2.082   1.191  0.00  0.00    +0.046 A 
ATOM     37  C   UNL     1       0.023  -0.701   1.196  0.00  0.00    +0.007 A 
ENDBRANCH  30  35
ENDBRANCH  29  30
ENDBRANCH  28  29
ENDBRANCH   1  28
TORSDOF 9
