REMARK  Name = ZINC40118310
REMARK  3 active torsions:
REMARK  status: ('A' for Active; 'I' for Inactive)
REMARK    1  A    between atoms: C_6  and  C_7
REMARK    2  A    between atoms: C_9  and  C_13
REMARK    3  A    between atoms: C_16  and  C_19
REMARK                            x       y       z     vdW  Elec       q    Type
REMARK                         _______ _______ _______ _____ _____    ______ ____
ROOT
ATOM      1  C   UNL     1      -1.272  -0.766   0.011  0.00  0.00    +0.093 A 
ATOM      2  C   UNL     1      -1.398  -2.169   0.010  0.00  0.00    +0.055 A 
ATOM      3  C   UNL     1      -2.716  -2.466   0.020  0.00  0.00    +0.067 A 
ATOM      4  N   UNL     1      -3.405  -1.304   0.026  0.00  0.00    -0.279 N 
ATOM      5  H   UNL     1      -4.371  -1.215   0.035  0.00  0.00    +0.189 HD
ATOM      6  N   UNL     1      -2.482  -0.250   0.026  0.00  0.00    -0.174 NA
ENDROOT
BRANCH   1  12
ATOM      7  C   UNL     1      -0.017   1.389   0.010  0.00  0.00    +0.011 A 
ATOM      8  C   UNL     1       1.170   2.093   0.002  0.00  0.00    +0.020 A 
ATOM      9  C   UNL     1       2.378   1.417  -0.013  0.00  0.00    +0.041 A 
ATOM     10  C   UNL     1       2.402   0.033  -0.021  0.00  0.00    +0.020 A 
ATOM     11  C   UNL     1       1.220  -0.680  -0.013  0.00  0.00    +0.011 A 
ATOM     12  C   UNL     1       0.002  -0.004   0.002  0.00  0.00    +0.002 A 
ATOM     13 CL   UNL     1       3.868   2.308  -0.024  0.00  0.00    -0.084 Cl
ENDBRANCH   1  12
BRANCH   3  14
ATOM     14  C   UNL     1      -3.312  -3.850   0.022  0.00  0.00    +0.201 C 
ATOM     15  C   UNL     1      -4.114  -4.086   1.290  0.00  0.00    +0.037 C 
ATOM     16  C   UNL     1      -5.365  -4.305   0.845  0.00  0.00    +0.091 C 
ATOM     17  N   UNL     1      -5.406  -4.229  -0.512  0.00  0.00    -0.153 NA
ATOM     18  N   UNL     1      -4.318  -3.984  -1.045  0.00  0.00    -0.173 NA
BRANCH  16  19
ATOM     19  C   UNL     1      -6.535  -4.590   1.712  0.00  0.00    +0.002 A 
ATOM     20  C   UNL     1      -6.383  -4.640   3.096  0.00  0.00    +0.011 A 
ATOM     21  C   UNL     1      -7.474  -4.905   3.899  0.00  0.00    +0.020 A 
ATOM     22  C   UNL     1      -8.717  -5.122   3.331  0.00  0.00    +0.041 A 
ATOM     23  C   UNL     1      -8.874  -5.073   1.956  0.00  0.00    +0.020 A 
ATOM     24  C   UNL     1      -7.790  -4.803   1.145  0.00  0.00    +0.011 A 
ATOM     25 CL   UNL     1     -10.086  -5.456   4.346  0.00  0.00    -0.084 Cl
ENDBRANCH  16  19
ENDBRANCH   3  14
TORSDOF 3
