REMARK  Name = ZINC39997224
REMARK  11 active torsions:
REMARK  status: ('A' for Active; 'I' for Inactive)
REMARK    1  A    between atoms: C_1  and  C_2
REMARK    2  A    between atoms: C_2  and  C_4
REMARK    3  A    between atoms: C_2  and  N_37
REMARK    4  A    between atoms: C_8  and  S_17
REMARK    5  A    between atoms: N_9  and  C_10
REMARK    6  A    between atoms: S_17  and  C_18
REMARK    7  A    between atoms: C_18  and  C_20
REMARK    8  A    between atoms: C_18  and  C_26
REMARK    9  A    between atoms: C_26  and  C_28
REMARK   10  A    between atoms: N_37  and  C_38
REMARK   11  A    between atoms: N_37  and  C_39
REMARK                            x       y       z     vdW  Elec       q    Type
REMARK                         _______ _______ _______ _____ _____    ______ ____
ROOT
ATOM      1  S   UNL     1      -4.434   1.488   1.733  0.00  0.00    -0.072 S 
ENDROOT
BRANCH   1   5
ATOM      2  C   UNL     1      -1.419  -0.512   0.013  0.00  0.00    +0.168 C 
ATOM      3  N   UNL     1      -2.184   0.017  -1.129  0.00  0.00    -0.248 N 
ATOM      4  N   UNL     1      -3.258   0.730  -0.582  0.00  0.00    -0.162 NA
ATOM      5  C   UNL     1      -3.238   0.699   0.708  0.00  0.00    +0.180 C 
ATOM      6  N   UNL     1      -2.160  -0.034   1.192  0.00  0.00    -0.260 N 
ATOM      7  H   UNL     1      -1.985  -0.104  -2.070  0.00  0.00    +0.170 HD
BRANCH   6   8
ATOM      8  C   UNL     1      -1.840  -0.269   2.533  0.00  0.00    +0.038 A 
ATOM      9  C   UNL     1      -1.459   0.786   3.353  0.00  0.00    +0.026 A 
ATOM     10  C   UNL     1      -1.144   0.551   4.677  0.00  0.00    +0.040 A 
ATOM     11  C   UNL     1      -1.206  -0.735   5.187  0.00  0.00    +0.124 A 
ATOM     12  C   UNL     1      -1.584  -1.788   4.372  0.00  0.00    +0.040 A 
ATOM     13  C   UNL     1      -1.907  -1.557   3.049  0.00  0.00    +0.026 A 
ATOM     14  F   UNL     1      -0.897  -0.962   6.482  0.00  0.00    -0.205 F 
ENDBRANCH   6   8
BRANCH   2  16
ATOM     15  C   UNL     1      -0.047   1.576   0.026  0.00  0.00    -0.010 C 
ATOM     16  C   UNL     1       0.005   0.047   0.010  0.00  0.00    -0.032 C 
BRANCH  16  17
ATOM     17  N   UNL     1       0.707  -0.406  -1.198  0.00  0.00    +0.380 N 
ATOM     18  C   UNL     1       2.074   0.131  -1.201  0.00  0.00    -0.096 C 
ATOM     19  C   UNL     1       0.757  -1.875  -1.213  0.00  0.00    -0.096 C 
ATOM     20  H   UNL     1       0.215  -0.078  -2.016  0.00  0.00    -0.082 HD
ENDBRANCH  16  17
ENDBRANCH   2  16
ENDBRANCH   1   5
BRANCH   1  21
ATOM     21  C   UNL     1      -5.574   2.268   0.557  0.00  0.00    +0.155 C 
BRANCH  21  22
ATOM     22  C   UNL     1      -6.281   1.203  -0.240  0.00  0.00    -0.027 A 
ATOM     23  C   UNL     1      -7.064   0.264   0.404  0.00  0.00    +0.005 A 
ATOM     24  C   UNL     1      -7.713  -0.714  -0.327  0.00  0.00    +0.000 A 
ATOM     25  C   UNL     1      -7.578  -0.753  -1.702  0.00  0.00    +0.000 A 
ATOM     26  C   UNL     1      -6.795   0.187  -2.346  0.00  0.00    +0.000 A 
ATOM     27  C   UNL     1      -6.150   1.167  -1.616  0.00  0.00    +0.005 A 
ENDBRANCH  21  22
BRANCH  21  28
ATOM     28  C   UNL     1      -6.589   3.089   1.310  0.00  0.00    +0.179 C 
ATOM     29  O   UNL     1      -6.857   2.814   2.462  0.00  0.00    -0.291 OA
BRANCH  28  30
ATOM     30  C   UNL     1      -7.227   4.176   0.676  0.00  0.00    +0.025 C 
ATOM     31  C   UNL     1      -8.170   5.027   1.224  0.00  0.00    +0.006 A 
ATOM     32  C   UNL     1      -8.775   5.099   2.501  0.00  0.00    +0.010 A 
ATOM     33  C   UNL     1      -9.690   6.058   2.768  0.00  0.00    +0.001 A 
ATOM     34  C   UNL     1     -10.082   7.013   1.816  0.00  0.00    +0.002 A 
ATOM     35  C   UNL     1      -9.565   7.032   0.568  0.00  0.00    +0.026 A 
ATOM     36  C   UNL     1      -8.561   6.021   0.194  0.00  0.00    +0.043 A 
ATOM     37  N   UNL     1      -7.912   5.810  -0.915  0.00  0.00    -0.380 N 
ATOM     38  C   UNL     1      -7.018   4.660  -0.742  0.00  0.00    +0.152 C 
ATOM     39  H   UNL     1      -8.002   6.333  -1.726  0.00  0.00    +0.160 HD
ENDBRANCH  28  30
ENDBRANCH  21  28
ENDBRANCH   1  21
TORSDOF 8
