REMARK  Name = ZINC58079509
REMARK  11 active torsions:
REMARK  status: ('A' for Active; 'I' for Inactive)
REMARK    1  A    between atoms: C_1  and  C_2
REMARK    2  A    between atoms: C_2  and  O_3
REMARK    3  A    between atoms: O_3  and  C_4
REMARK    4  A    between atoms: C_4  and  C_6
REMARK    5  A    between atoms: C_7  and  C_25
REMARK    6  A    between atoms: C_10  and  N_11
REMARK    7  A    between atoms: C_12  and  C_14
REMARK    8  A    between atoms: C_16  and  O_23
REMARK    9  A    between atoms: C_18  and  O_20
REMARK   10  A    between atoms: O_20  and  C_21
REMARK   11  A    between atoms: O_23  and  C_24
REMARK                            x       y       z     vdW  Elec       q    Type
REMARK                         _______ _______ _______ _____ _____    ______ ____
ROOT
ATOM      1  N   UNL     1      -3.048  -2.529   2.497  0.00  0.00    -0.275 N 
ATOM      2  C   UNL     1      -3.828  -2.875   3.540  0.00  0.00    +0.249 C 
ATOM      3  O   UNL     1      -4.931  -3.347   3.344  0.00  0.00    -0.270 OA
ATOM      4  H   UNL     1      -2.167  -2.152   2.654  0.00  0.00    +0.156 HD
ENDROOT
BRANCH   2   5
ATOM      5  C   UNL     1      -3.343  -2.680   4.923  0.00  0.00    +0.044 A 
ATOM      6  C   UNL     1      -2.080  -2.133   5.150  0.00  0.00    +0.060 A 
ATOM      7  C   UNL     1      -1.629  -1.952   6.447  0.00  0.00    +0.138 A 
ATOM      8  C   UNL     1      -2.432  -2.314   7.520  0.00  0.00    +0.101 A 
ATOM      9  C   UNL     1      -3.690  -2.859   7.297  0.00  0.00    +0.138 A 
ATOM     10  C   UNL     1      -4.150  -3.038   6.004  0.00  0.00    +0.060 A 
ATOM     11 BR   UNL     1      -1.812  -2.065   9.289  0.00  0.00    -0.043 Br
BRANCH   9  12
ATOM     12  O   UNL     1      -4.472  -3.212   8.351  0.00  0.00    -0.494 OA
ATOM     13  C   UNL     1      -5.754  -3.767   8.050  0.00  0.00    +0.277 C 
ENDBRANCH   9  12
BRANCH   7  14
ATOM     14  O   UNL     1      -0.399  -1.420   6.670  0.00  0.00    -0.494 OA
ATOM     15  C   UNL     1       0.375  -1.070   5.520  0.00  0.00    +0.277 C 
ENDBRANCH   7  14
ENDBRANCH   2   5
BRANCH   1  20
ATOM     16  C   UNL     1      -2.842  -2.416   0.016  0.00  0.00    +0.091 A 
ATOM     17  C   UNL     1      -3.551  -2.715  -1.208  0.00  0.00    -0.021 A 
ATOM     18  C   UNL     1      -4.779  -3.243  -1.061  0.00  0.00    +0.051 A 
ATOM     19  S   UNL     1      -4.978  -3.337   0.705  0.00  0.00    -0.081 S 
ATOM     20  C   UNL     1      -3.502  -2.711   1.202  0.00  0.00    +0.086 A 
BRANCH  17  21
ATOM     21  C   UNL     1      -2.950  -2.450  -2.565  0.00  0.00    +0.020 C 
ATOM     22  C   UNL     1      -3.860  -2.614  -3.784  0.00  0.00    +0.009 C 
ATOM     23  C   UNL     1      -2.766  -3.646  -3.501  0.00  0.00    +0.009 C 
ENDBRANCH  17  21
BRANCH  16  24
ATOM     24  C   UNL     1      -1.497  -1.838   0.006  0.00  0.00    +0.342 C 
ATOM     25  O   UNL     1      -0.522  -2.566  -0.007  0.00  0.00    -0.245 OA
BRANCH  24  26
ATOM     26  O   UNL     1      -1.339  -0.499   0.012  0.00  0.00    -0.461 OA
BRANCH  26  28
ATOM     27  C   UNL     1      -0.019   1.526   0.010  0.00  0.00    +0.048 C 
ATOM     28  C   UNL     1       0.002  -0.004   0.002  0.00  0.00    +0.229 C 
ENDBRANCH  26  28
ENDBRANCH  24  26
ENDBRANCH  16  24
ENDBRANCH   1  20
TORSDOF 8
