REMARK  Name = ZINC17105487
REMARK  9 active torsions:
REMARK  status: ('A' for Active; 'I' for Inactive)
REMARK    1  A    between atoms: C_1  and  C_2
REMARK    2  A    between atoms: C_7  and  N_8
REMARK    3  A    between atoms: C_9  and  C_30
REMARK    4  A    between atoms: C_12  and  S_13
REMARK    5  A    between atoms: S_13  and  C_14
REMARK    6  A    between atoms: C_14  and  C_16
REMARK    7  A    between atoms: C_14  and  C_17
REMARK    8  A    between atoms: N_19  and  C_20
REMARK    9  A    between atoms: C_25  and  C_26
REMARK                            x       y       z     vdW  Elec       q    Type
REMARK                         _______ _______ _______ _____ _____    ______ ____
ROOT
ATOM      1  C   UNL     1      -0.018   1.542   0.005  0.00  0.00    +0.137 C 
ATOM      2  C   UNL     1       0.008   0.012  -0.013  0.00  0.00    +0.029 C 
ENDROOT
BRANCH   1   3
ATOM      3  C   UNL     1      -0.724   2.017   1.249  0.00  0.00    +0.230 C 
ATOM      4  O   UNL     1      -0.080   2.391   2.206  0.00  0.00    -0.274 OA
ATOM      5  N   UNL     1      -2.071   2.027   1.297  0.00  0.00    -0.284 N 
ATOM      6  H   UNL     1      -2.586   1.790   0.510  0.00  0.00    +0.155 HD
BRANCH   5   7
ATOM      7  C   UNL     1      -2.726   2.378   2.483  0.00  0.00    +0.045 A 
ATOM      8  C   UNL     1      -2.181   3.344   3.319  0.00  0.00    +0.024 A 
ATOM      9  C   UNL     1      -2.832   3.692   4.486  0.00  0.00    +0.002 A 
ATOM     10  C   UNL     1      -4.021   3.072   4.827  0.00  0.00    +0.001 A 
ATOM     11  C   UNL     1      -4.563   2.107   4.000  0.00  0.00    +0.014 A 
ATOM     12  C   UNL     1      -3.919   1.758   2.829  0.00  0.00    +0.076 A 
BRANCH  12  13
ATOM     13  C   UNL     1      -4.510   0.704   1.928  0.00  0.00    +0.419 C 
ATOM     14  F   UNL     1      -5.703   0.231   2.484  0.00  0.00    -0.166 F 
ATOM     15  F   UNL     1      -4.771   1.259   0.670  0.00  0.00    -0.166 F 
ATOM     16  F   UNL     1      -3.606  -0.354   1.792  0.00  0.00    -0.166 F 
ENDBRANCH  12  13
ENDBRANCH   5   7
ENDBRANCH   1   3
BRANCH   1  17
ATOM     17  S   UNL     1       1.677   2.175  -0.006  0.00  0.00    -0.073 S 
BRANCH  17  22
ATOM     18  N   UNL     1       3.433   1.811  -2.157  0.00  0.00    -0.274 N 
ATOM     19  C   UNL     1       3.379   1.197  -3.381  0.00  0.00    +0.135 A 
ATOM     20  N   UNL     1       2.186   0.689  -3.507  0.00  0.00    -0.133 NA
ATOM     21  N   UNL     1       1.488   0.930  -2.455  0.00  0.00    -0.122 NA
ATOM     22  C   UNL     1       2.204   1.613  -1.591  0.00  0.00    +0.197 A 
ATOM     23  C   UNL     1       4.490   1.129  -4.396  0.00  0.00    +0.088 C 
BRANCH  18  30
ATOM     24  C   UNL     1       3.668   4.602  -2.660  0.00  0.00    +0.046 C 
ATOM     25  C   UNL     1       4.674   3.858  -1.821  0.00  0.00    -0.027 A 
ATOM     26  C   UNL     1       5.746   4.531  -1.267  0.00  0.00    +0.005 A 
ATOM     27  C   UNL     1       6.672   3.848  -0.502  0.00  0.00    +0.000 A 
ATOM     28  C   UNL     1       6.527   2.490  -0.284  0.00  0.00    +0.002 A 
ATOM     29  C   UNL     1       5.455   1.812  -0.832  0.00  0.00    +0.026 A 
ATOM     30  C   UNL     1       4.522   2.496  -1.600  0.00  0.00    +0.053 A 
ENDBRANCH  18  30
ENDBRANCH  17  22
ENDBRANCH   1  17
TORSDOF 6
