REMARK  Name = ZINC66408461
REMARK  6 active torsions:
REMARK  status: ('A' for Active; 'I' for Inactive)
REMARK    1  A    between atoms: C_1  and  C_2
REMARK    2  A    between atoms: C_3  and  C_23
REMARK    3  A    between atoms: C_5  and  C_7
REMARK    4  A    between atoms: C_7  and  N_8
REMARK    5  A    between atoms: C_11  and  C_15
REMARK    6  A    between atoms: C_11  and  C_16
REMARK                            x       y       z     vdW  Elec       q    Type
REMARK                         _______ _______ _______ _____ _____    ______ ____
ROOT
ATOM      1  N   UNL     1      -1.322  -3.664   1.881  0.00  0.00    -0.215 N 
ATOM      2  C   UNL     1      -2.039  -3.207   2.927  0.00  0.00    +0.251 C 
ATOM      3  O   UNL     1      -1.681  -2.409   3.767  0.00  0.00    -0.272 OA
ATOM      4  C   UNL     1      -3.385  -3.897   2.834  0.00  0.00    +0.136 C 
ATOM      5  N   UNL     1      -3.259  -4.742   1.634  0.00  0.00    -0.281 N 
ATOM      6  C   UNL     1      -2.022  -4.534   1.145  0.00  0.00    +0.310 C 
ATOM      7  O   UNL     1      -1.589  -5.078   0.148  0.00  0.00    -0.252 OA
ATOM      8  C   UNL     1      -3.636  -4.757   4.074  0.00  0.00    +0.047 C 
ATOM      9  H   UNL     1      -3.936  -5.331   1.266  0.00  0.00    +0.152 HD
ENDROOT
BRANCH   4  10
ATOM     10  C   UNL     1      -4.488  -2.886   2.656  0.00  0.00    -0.002 A 
ATOM     11  C   UNL     1      -5.296  -2.933   1.536  0.00  0.00    +0.007 A 
ATOM     12  C   UNL     1      -6.308  -2.006   1.373  0.00  0.00    +0.000 A 
ATOM     13  C   UNL     1      -6.513  -1.030   2.331  0.00  0.00    +0.001 A 
ATOM     14  C   UNL     1      -5.706  -0.982   3.452  0.00  0.00    +0.015 A 
ATOM     15  C   UNL     1      -4.696  -1.913   3.618  0.00  0.00    +0.024 A 
ATOM     16 BR   UNL     1      -3.596  -1.852   5.154  0.00  0.00    -0.050 Br
ENDBRANCH   4  10
BRANCH   1  17
ATOM     17  C   UNL     1       0.053  -3.253   1.584  0.00  0.00    +0.214 C 
BRANCH  17  22
ATOM     18  C   UNL     1      -0.018   1.503   0.010  0.00  0.00    +0.069 C 
ATOM     19  C   UNL     1       0.002  -0.004   0.002  0.00  0.00    +0.079 A 
ATOM     20  C   UNL     1       0.008  -0.791  -1.087  0.00  0.00    +0.125 A 
ATOM     21  O   UNL     1       0.027  -2.067  -0.654  0.00  0.00    -0.443 OA
ATOM     22  C   UNL     1       0.033  -2.044   0.685  0.00  0.00    +0.214 A 
ATOM     23  N   UNL     1       0.024  -0.803   1.083  0.00  0.00    -0.217 NA
ATOM     24  C   UNL     1      -0.005  -0.333  -2.522  0.00  0.00    +0.088 C 
ENDBRANCH  17  22
ENDBRANCH   1  17
TORSDOF 3
