REMARK  Name = ZINC06244783
REMARK  7 active torsions:
REMARK  status: ('A' for Active; 'I' for Inactive)
REMARK    1  A    between atoms: C_1  and  C_2
REMARK    2  A    between atoms: C_5  and  C_38
REMARK    3  A    between atoms: C_9  and  C_14
REMARK    4  A    between atoms: C_14  and  C_16
REMARK    5  A    between atoms: C_14  and  N_69
REMARK    6  A    between atoms: N_20  and  C_21
REMARK    7  A    between atoms: N_28  and  C_31
REMARK                            x       y       z     vdW  Elec       q    Type
REMARK                         _______ _______ _______ _____ _____    ______ ____
ROOT
ATOM      1  C   UNL     1       2.591  -0.626  -0.056  0.00  0.00    +0.039 C 
ENDROOT
BRANCH   1  10
ATOM      2  C   UNL     1       3.889   1.520   4.508  0.00  0.00    +0.044 C 
ATOM      3  C   UNL     1       4.081   0.031   4.642  0.00  0.00    -0.041 A 
ATOM      4  C   UNL     1       4.523  -0.500   5.821  0.00  0.00    +0.004 A 
ATOM      5  C   UNL     1       4.704  -1.870   5.954  0.00  0.00    +0.005 A 
ATOM      6  C   UNL     1       4.441  -2.720   4.902  0.00  0.00    -0.026 A 
ATOM      7  C   UNL     1       3.990  -2.202   3.692  0.00  0.00    +0.052 A 
ATOM      8  C   UNL     1       3.807  -0.813   3.561  0.00  0.00    +0.002 A 
ATOM      9  C   UNL     1       3.335  -0.277   2.283  0.00  0.00    +0.018 A 
ATOM     10  C   UNL     1       3.082  -1.144   1.271  0.00  0.00    +0.011 A 
ATOM     11  C   UNL     1       3.281  -2.529   1.455  0.00  0.00    +0.251 A 
ATOM     12  O   UNL     1       3.051  -3.290   0.531  0.00  0.00    -0.268 OA
ATOM     13  N   UNL     1       3.718  -3.030   2.623  0.00  0.00    -0.322 N 
ATOM     14  H   UNL     1       3.845  -3.987   2.716  0.00  0.00    +0.169 HD
ATOM     15  C   UNL     1       4.643  -4.205   5.060  0.00  0.00    +0.046 C 
ENDBRANCH   1  10
BRANCH   1  21
ATOM     16  C   UNL     1       4.894  -0.523  -0.797  0.00  0.00    -0.058 C 
ATOM     17  C   UNL     1       5.866  -1.003  -1.877  0.00  0.00    +0.086 C 
ATOM     18  N   UNL     1       5.425  -0.504  -3.187  0.00  0.00    -0.331 N 
ATOM     19  C   UNL     1       4.072  -0.984  -3.501  0.00  0.00    +0.086 C 
ATOM     20  C   UNL     1       3.099  -0.504  -2.421  0.00  0.00    -0.058 C 
ATOM     21  N   UNL     1       3.542  -1.030  -1.113  0.00  0.00    +0.391 N 
ATOM     22  H   UNL     1       3.573  -2.056  -1.159  0.00  0.00    -0.080 HD
BRANCH  18  23
ATOM     23  C   UNL     1       6.330  -0.863  -4.191  0.00  0.00    +0.065 A 
ATOM     24  C   UNL     1       6.133  -0.424  -5.493  0.00  0.00    +0.026 A 
ATOM     25  C   UNL     1       7.031  -0.777  -6.482  0.00  0.00    +0.002 A 
ATOM     26  C   UNL     1       8.120  -1.574  -6.179  0.00  0.00    +0.003 A 
ATOM     27  C   UNL     1       8.317  -2.017  -4.884  0.00  0.00    +0.040 A 
ATOM     28  C   UNL     1       7.425  -1.664  -3.888  0.00  0.00    +0.144 A 
ATOM     29  F   UNL     1       7.617  -2.098  -2.623  0.00  0.00    -0.204 F 
ENDBRANCH  18  23
ENDBRANCH   1  21
BRANCH   1  30
ATOM     30  C   UNL     1       2.475   0.876   0.002  0.00  0.00    +0.143 A 
ATOM     31  N   UNL     1       3.461   1.739  -0.030  0.00  0.00    -0.115 NA
ATOM     32  N   UNL     1       2.956   2.922   0.043  0.00  0.00    -0.023 NA
ATOM     33  N   UNL     1       1.674   2.837   0.115  0.00  0.00    -0.044 NA
ATOM     34  N   UNL     1       1.338   1.591   0.099  0.00  0.00    -0.227 N 
BRANCH  34  35
ATOM     35  C   UNL     1      -0.024   1.056   0.166  0.00  0.00    +0.111 C 
ATOM     36  C   UNL     1      -0.718   1.536   1.457  0.00  0.00    +0.027 C 
ATOM     37  C   UNL     1      -1.522   2.784   1.013  0.00  0.00    +0.002 C 
ATOM     38  C   UNL     1      -2.033   2.381  -0.392  0.00  0.00    +0.002 C 
ATOM     39  C   UNL     1      -0.859   1.592  -1.010  0.00  0.00    +0.027 C 
ENDBRANCH  34  35
ENDBRANCH   1  30
TORSDOF 5
