REMARK  Name = ZINC00720131
REMARK  6 active torsions:
REMARK  status: ('A' for Active; 'I' for Inactive)
REMARK    1  A    between atoms: C_1  and  O_2
REMARK    2  A    between atoms: O_2  and  C_3
REMARK    3  A    between atoms: C_7  and  C_11
REMARK    4  A    between atoms: C_8  and  O_9
REMARK    5  A    between atoms: O_9  and  C_10
REMARK    6  A    between atoms: C_16  and  C_21
REMARK                            x       y       z     vdW  Elec       q    Type
REMARK                         _______ _______ _______ _____ _____    ______ ____
ROOT
ATOM      1  C   UNL     1       0.510   5.877   1.340  0.00  0.00    +0.140 C 
ATOM      2  C   UNL     1       1.987   5.625   1.525  0.00  0.00    +0.037 C 
ATOM      3  C   UNL     1       2.725   4.729   0.849  0.00  0.00    +0.017 C 
ATOM      4  C   UNL     1       4.205   4.563   1.151  0.00  0.00    +0.060 C 
ATOM      5  C   UNL     1       4.802   5.901   1.583  0.00  0.00    +0.039 C 
ATOM      6  C   UNL     1       4.049   6.366   2.835  0.00  0.00    +0.088 C 
ATOM      7  C   UNL     1       2.587   6.442   2.512  0.00  0.00    +0.163 C 
ATOM      8  O   UNL     1       1.893   7.233   3.120  0.00  0.00    -0.292 OA
ATOM      9  N   UNL     1       2.249   3.912  -0.124  0.00  0.00    -0.316 N 
ATOM     10  C   UNL     1       1.079   3.169  -0.032  0.00  0.00    +0.052 A 
ATOM     11  C   UNL     1       1.079   1.785  -0.057  0.00  0.00    +0.025 A 
ATOM     12  C   UNL     1      -0.127   1.105  -0.048  0.00  0.00    +0.002 A 
ATOM     13  C   UNL     1      -1.321   1.803  -0.019  0.00  0.00    +0.002 A 
ATOM     14  C   UNL     1      -1.323   3.186   0.029  0.00  0.00    +0.025 A 
ATOM     15  C   UNL     1      -0.117   3.868   0.037  0.00  0.00    +0.049 A 
ATOM     16  N   UNL     1      -0.064   5.256   0.165  0.00  0.00    -0.331 N 
ATOM     17  H   UNL     1       2.763   3.842  -0.943  0.00  0.00    +0.152 HD
ATOM     18  H   UNL     1      -0.417   5.814  -0.545  0.00  0.00    +0.147 HD
ENDROOT
BRANCH   1  23
ATOM     19  C   UNL     1      -2.131   5.383   4.006  0.00  0.00    +0.162 A 
ATOM     20  C   UNL     1      -1.543   4.404   4.792  0.00  0.00    +0.049 A 
ATOM     21  C   UNL     1      -0.297   3.907   4.459  0.00  0.00    +0.004 A 
ATOM     22  C   UNL     1       0.363   4.380   3.341  0.00  0.00    +0.009 A 
ATOM     23  C   UNL     1      -0.215   5.360   2.556  0.00  0.00    +0.023 A 
ATOM     24  C   UNL     1      -1.464   5.863   2.884  0.00  0.00    +0.167 A 
BRANCH  19  26
ATOM     25  C   UNL     1      -3.982   5.334   5.499  0.00  0.00    +0.277 C 
ATOM     26  O   UNL     1      -3.357   5.873   4.333  0.00  0.00    -0.491 OA
ENDBRANCH  19  26
BRANCH  24  27
ATOM     27  O   UNL     1      -2.036   6.824   2.110  0.00  0.00    -0.491 OA
ATOM     28  C   UNL     1      -2.859   6.381   1.028  0.00  0.00    +0.277 C 
ENDBRANCH  24  27
ENDBRANCH   1  23
BRANCH   5  29
ATOM     29  C   UNL     1       6.265   5.728   1.902  0.00  0.00    -0.006 A 
ATOM     30  C   UNL     1       7.339   6.328   1.333  0.00  0.00    +0.011 A 
ATOM     31  C   UNL     1       8.604   6.013   1.792  0.00  0.00    +0.008 A 
ATOM     32  C   UNL     1       8.733   5.114   2.798  0.00  0.00    +0.045 A 
ATOM     33  S   UNL     1       7.033   4.686   3.131  0.00  0.00    -0.101 S 
ENDBRANCH   5  29
TORSDOF 4
