REMARK  Name = ZINC64219041
REMARK  8 active torsions:
REMARK  status: ('A' for Active; 'I' for Inactive)
REMARK    1  A    between atoms: C_1  and  C_2
REMARK    2  A    between atoms: N_4  and  C_5
REMARK    3  A    between atoms: C_5  and  C_7
REMARK    4  A    between atoms: C_5  and  C_17
REMARK    5  A    between atoms: C_7  and  C_8
REMARK    6  A    between atoms: N_19  and  C_20
REMARK    7  A    between atoms: C_24  and  S_26
REMARK    8  A    between atoms: S_26  and  N_29
REMARK                            x       y       z     vdW  Elec       q    Type
REMARK                         _______ _______ _______ _____ _____    ______ ____
ROOT
ATOM      1  C   UNL     1      -0.298  -2.706  -1.155  0.00  0.00    +0.238 C 
ATOM      2  O   UNL     1       0.564  -2.033  -1.679  0.00  0.00    -0.273 OA
ATOM      3  N   UNL     1      -0.628  -3.904  -1.677  0.00  0.00    -0.284 N 
ATOM      4  H   UNL     1      -1.262  -4.475  -1.216  0.00  0.00    +0.155 HD
ENDROOT
BRANCH   3   5
ATOM      5  C   UNL     1      -0.057  -4.322  -2.884  0.00  0.00    +0.035 A 
ATOM      6  C   UNL     1       0.196  -5.670  -3.103  0.00  0.00    +0.023 A 
ATOM      7  C   UNL     1       0.759  -6.080  -4.295  0.00  0.00    +0.004 A 
ATOM      8  C   UNL     1       1.072  -5.150  -5.270  0.00  0.00    +0.028 A 
ATOM      9  C   UNL     1       0.822  -3.808  -5.054  0.00  0.00    +0.107 A 
ATOM     10  C   UNL     1       0.252  -3.392  -3.866  0.00  0.00    +0.051 A 
BRANCH   9  11
ATOM     11  S   UNL     1       1.224  -2.627  -6.299  0.00  0.00    +0.061 S 
ATOM     12  O   UNL     1       1.395  -1.381  -5.636  0.00  0.00    -0.153 OA
ATOM     13  O   UNL     1       2.242  -3.211  -7.099  0.00  0.00    -0.153 OA
BRANCH  11  14
ATOM     14  N   UNL     1      -0.108  -2.467  -7.270  0.00  0.00    -0.177 NA
ATOM     15  C   UNL     1      -0.283  -3.328  -8.448  0.00  0.00    +0.109 C 
ATOM     16  C   UNL     1      -1.657  -4.002  -8.366  0.00  0.00    +0.017 C 
ATOM     17  C   UNL     1      -2.737  -2.931  -8.204  0.00  0.00    +0.003 C 
ATOM     18  C   UNL     1      -2.501  -2.157  -6.905  0.00  0.00    +0.017 C 
ATOM     19  C   UNL     1      -1.140  -1.467  -6.966  0.00  0.00    +0.109 C 
ENDBRANCH  11  14
ENDBRANCH   9  11
ENDBRANCH   3   5
BRANCH   1  20
ATOM     20  C   UNL     1      -1.000  -2.203   0.081  0.00  0.00    +0.163 C 
BRANCH  20  24
ATOM     21  C   UNL     1       0.564   1.280   0.361  0.00  0.00    +0.109 C 
ATOM     22  C   UNL     1       0.396  -0.214   0.262  0.00  0.00    +0.211 C 
ATOM     23  O   UNL     1       1.372  -0.935   0.259  0.00  0.00    -0.276 OA
ATOM     24  N   UNL     1      -0.837  -0.750   0.177  0.00  0.00    -0.304 N 
ATOM     25  H   UNL     1      -1.618  -0.174   0.179  0.00  0.00    +0.149 HD
ENDBRANCH  20  24
BRANCH  20  26
ATOM     26  C   UNL     1      -0.393  -2.867   1.318  0.00  0.00    +0.065 C 
BRANCH  26  27
ATOM     27  C   UNL     1      -1.174  -2.459   2.541  0.00  0.00    -0.039 C 
ATOM     28  C   UNL     1      -2.187  -3.140   3.124  0.00  0.00    -0.001 A 
ATOM     29  C   UNL     1      -2.841  -4.414   2.805  0.00  0.00    +0.010 A 
ATOM     30  C   UNL     1      -3.853  -4.847   3.591  0.00  0.00    +0.001 A 
ATOM     31  C   UNL     1      -4.292  -4.110   4.700  0.00  0.00    +0.002 A 
ATOM     32  C   UNL     1      -3.740  -2.930   5.056  0.00  0.00    +0.026 A 
ATOM     33  C   UNL     1      -2.668  -2.381   4.300  0.00  0.00    +0.043 A 
ATOM     34  N   UNL     1      -1.980  -1.274   4.439  0.00  0.00    -0.380 N 
ATOM     35  C   UNL     1      -0.978  -1.208   3.369  0.00  0.00    +0.144 C 
ATOM     36  H   UNL     1      -2.108  -0.611   5.135  0.00  0.00    +0.160 HD
ENDBRANCH  26  27
ENDBRANCH  20  26
ENDBRANCH   1  20
TORSDOF 7
