REMARK  Name = ZINC39654473
REMARK  10 active torsions:
REMARK  status: ('A' for Active; 'I' for Inactive)
REMARK    1  A    between atoms: C_1  and  C_2
REMARK    2  A    between atoms: C_2  and  C_3
REMARK    3  A    between atoms: C_6  and  C_9
REMARK    4  A    between atoms: C_9  and  C_10
REMARK    5  A    between atoms: C_10  and  N_11
REMARK    6  A    between atoms: C_12  and  C_14
REMARK    7  A    between atoms: C_25  and  C_27
REMARK    8  A    between atoms: C_30  and  O_37
REMARK    9  A    between atoms: C_31  and  C_33
REMARK   10  A    between atoms: O_37  and  C_38
REMARK                            x       y       z     vdW  Elec       q    Type
REMARK                         _______ _______ _______ _____ _____    ______ ____
ROOT
ATOM      1  C   UNL     1      -9.951  -0.749  -0.504  0.00  0.00    +0.100 C 
ATOM      2  C   UNL     1     -10.459  -1.673  -1.633  0.00  0.00    +0.121 C 
ATOM      3  N   UNL     1     -11.883  -1.301  -1.809  0.00  0.00    -0.296 N 
ATOM      4  C   UNL     1     -11.899   0.175  -1.665  0.00  0.00    +0.115 C 
ATOM      5  C   UNL     1     -10.898   0.463  -0.528  0.00  0.00    -0.004 C 
ATOM      6  C   UNL     1     -10.116   1.739  -0.825  0.00  0.00    -0.010 C 
ATOM      7  C   UNL     1     -11.069   2.937  -0.787  0.00  0.00    -0.082 C 
ATOM      8  N   UNL     1     -11.699   3.021   0.537  0.00  0.00    +0.379 N 
ATOM      9  C   UNL     1     -12.524   1.831   0.776  0.00  0.00    -0.082 C 
ATOM     10  C   UNL     1     -11.633   0.587   0.803  0.00  0.00    -0.010 C 
ATOM     11  C   UNL     1     -12.927  -2.119  -2.047  0.00  0.00    +0.247 C 
ATOM     12  O   UNL     1     -12.775  -3.325  -2.011  0.00  0.00    -0.270 OA
ATOM     13  H   UNL     1     -10.983   3.080   1.245  0.00  0.00    -0.086 HD
ATOM     14  H   UNL     1     -12.279   3.846   0.580  0.00  0.00    -0.086 HD
ENDROOT
BRANCH  11  15
ATOM     15  C   UNL     1     -14.256  -1.551  -2.349  0.00  0.00    +0.038 A 
ATOM     16  C   UNL     1     -14.367  -0.239  -2.817  0.00  0.00    +0.016 A 
ATOM     17  C   UNL     1     -15.608   0.286  -3.099  0.00  0.00    +0.047 A 
ATOM     18  C   UNL     1     -16.749  -0.486  -2.918  0.00  0.00    +0.132 A 
ATOM     19  C   UNL     1     -16.643  -1.792  -2.453  0.00  0.00    +0.097 A 
ATOM     20  C   UNL     1     -15.405  -2.326  -2.174  0.00  0.00    +0.029 A 
BRANCH  19  21
ATOM     21  C   UNL     1     -17.884  -2.625  -2.259  0.00  0.00    +0.421 C 
ATOM     22  F   UNL     1     -17.525  -3.892  -1.788  0.00  0.00    -0.166 F 
ATOM     23  F   UNL     1     -18.723  -2.001  -1.329  0.00  0.00    -0.166 F 
ATOM     24  F   UNL     1     -18.554  -2.754  -3.480  0.00  0.00    -0.166 F 
ENDBRANCH  19  21
BRANCH  18  25
ATOM     25  O   UNL     1     -17.971   0.036  -3.197  0.00  0.00    -0.495 OA
ATOM     26  C   UNL     1     -18.008   1.383  -3.671  0.00  0.00    +0.277 C 
ENDBRANCH  18  25
ENDBRANCH  11  15
BRANCH   1  28
ATOM     27  N   UNL     1      -7.701  -0.048   0.246  0.00  0.00    -0.315 N 
ATOM     28  C   UNL     1      -8.535  -0.314  -0.779  0.00  0.00    +0.218 C 
ATOM     29  O   UNL     1      -8.146  -0.202  -1.922  0.00  0.00    -0.275 OA
ATOM     30  H   UNL     1      -8.012  -0.137   1.160  0.00  0.00    +0.149 HD
BRANCH  27  31
ATOM     31  C   UNL     1      -6.324   0.376  -0.021  0.00  0.00    +0.109 C 
BRANCH  31  32
ATOM     32  C   UNL     1      -5.596   0.611   1.304  0.00  0.00    +0.054 C 
BRANCH  32  36
ATOM     33  C   UNL     1      -1.581   1.845   0.526  0.00  0.00    -0.048 A 
ATOM     34  C   UNL     1      -2.584   2.789   0.642  0.00  0.00    +0.004 A 
ATOM     35  C   UNL     1      -3.884   2.390   0.893  0.00  0.00    +0.004 A 
ATOM     36  C   UNL     1      -4.180   1.046   1.029  0.00  0.00    -0.046 A 
ATOM     37  C   UNL     1      -3.177   0.102   0.912  0.00  0.00    +0.004 A 
ATOM     38  C   UNL     1      -1.878   0.501   0.656  0.00  0.00    +0.004 A 
BRANCH  33  40
ATOM     39  C   UNL     1       0.065   2.346  -1.259  0.00  0.00    +0.009 C 
ATOM     40  C   UNL     1      -0.165   2.280   0.252  0.00  0.00    +0.032 C 
ENDBRANCH  33  40
ENDBRANCH  32  36
ENDBRANCH  31  32
ENDBRANCH  27  31
ENDBRANCH   1  28
TORSDOF 8
