REMARK  Name = ZINC14240839
REMARK  7 active torsions:
REMARK  status: ('A' for Active; 'I' for Inactive)
REMARK    1  A    between atoms: C_4  and  C_7
REMARK    2  A    between atoms: C_8  and  C_18
REMARK    3  A    between atoms: N_10  and  C_12
REMARK    4  A    between atoms: C_18  and  N_19
REMARK    5  A    between atoms: C_20  and  C_22
REMARK    6  A    between atoms: C_22  and  C_23
REMARK    7  A    between atoms: C_23  and  C_24
REMARK                            x       y       z     vdW  Elec       q    Type
REMARK                         _______ _______ _______ _____ _____    ______ ____
ROOT
ATOM      1  C   UNL     1      -3.883   2.624   1.512  0.00  0.00    +0.143 C 
ENDROOT
BRANCH   1   3
ATOM      2  C   UNL     1      -2.505   1.002   0.019  0.00  0.00    +0.098 A 
ATOM      3  C   UNL     1      -3.690   1.381   0.681  0.00  0.00    +0.015 A 
ATOM      4  C   UNL     1      -4.622   0.434   0.440  0.00  0.00    +0.120 A 
ATOM      5  N   UNL     1      -4.055  -0.517  -0.347  0.00  0.00    -0.239 N 
ATOM      6  N   UNL     1      -2.731  -0.137  -0.602  0.00  0.00    -0.166 NA
BRANCH   2  10
ATOM      7  C   UNL     1       1.155   3.167   0.008  0.00  0.00    +0.000 A 
ATOM      8  C   UNL     1       1.172   1.783   0.000  0.00  0.00    +0.001 A 
ATOM      9  C   UNL     1      -0.013   1.076   0.008  0.00  0.00    +0.010 A 
ATOM     10  C   UNL     1      -1.228   1.757   0.017  0.00  0.00    +0.002 A 
ATOM     11  C   UNL     1      -1.239   3.151   0.029  0.00  0.00    +0.010 A 
ATOM     12  C   UNL     1      -0.048   3.848   0.022  0.00  0.00    +0.001 A 
ENDBRANCH   2  10
BRANCH   5  13
ATOM     13  C   UNL     1      -4.685  -1.674  -0.825  0.00  0.00    +0.065 A 
ATOM     14  C   UNL     1      -6.009  -1.931  -0.495  0.00  0.00    +0.028 A 
ATOM     15  C   UNL     1      -6.630  -3.069  -0.972  0.00  0.00    +0.002 A 
ATOM     16  C   UNL     1      -5.931  -3.957  -1.768  0.00  0.00    +0.000 A 
ATOM     17  C   UNL     1      -4.610  -3.707  -2.094  0.00  0.00    +0.002 A 
ATOM     18  C   UNL     1      -3.986  -2.567  -1.625  0.00  0.00    +0.028 A 
ENDBRANCH   5  13
ENDBRANCH   1   3
BRANCH   1  19
ATOM     19  N   UNL     1      -4.120   3.769   0.629  0.00  0.00    -0.311 N 
ATOM     20  C   UNL     1      -4.321   4.994   1.154  0.00  0.00    +0.213 C 
ATOM     21  O   UNL     1      -4.305   5.149   2.357  0.00  0.00    -0.276 OA
ATOM     22  H   UNL     1      -4.133   3.646  -0.333  0.00  0.00    +0.149 HD
BRANCH  20  23
ATOM     23  C   UNL     1      -4.565   6.172   0.246  0.00  0.00    +0.096 C 
BRANCH  23  24
ATOM     24  C   UNL     1      -4.761   7.434   1.089  0.00  0.00    +0.022 C 
BRANCH  24  25
ATOM     25  C   UNL     1      -5.009   8.630   0.168  0.00  0.00    +0.080 C 
ATOM     26  C   UNL     1      -5.335   9.863   1.011  0.00  0.00    +0.049 C 
ATOM     27  C   UNL     1      -5.299  11.094   0.143  0.00  0.00    -0.025 A 
ATOM     28  C   UNL     1      -6.147  12.152   0.411  0.00  0.00    +0.005 A 
ATOM     29  C   UNL     1      -6.089  13.299  -0.359  0.00  0.00    +0.000 A 
ATOM     30  C   UNL     1      -5.179  13.392  -1.397  0.00  0.00    +0.002 A 
ATOM     31  C   UNL     1      -4.335  12.335  -1.673  0.00  0.00    +0.023 A 
ATOM     32  C   UNL     1      -4.404  11.175  -0.914  0.00  0.00    +0.037 A 
ATOM     33  N   UNL     1      -3.557  10.100  -1.199  0.00  0.00    -0.285 N 
ATOM     34  C   UNL     1      -3.777   8.889  -0.659  0.00  0.00    +0.221 C 
ATOM     35  O   UNL     1      -2.975   7.997  -0.839  0.00  0.00    -0.275 OA
ATOM     36  H   UNL     1      -2.801  10.230  -1.793  0.00  0.00    +0.155 HD
ENDBRANCH  24  25
ENDBRANCH  23  24
ENDBRANCH  20  23
ENDBRANCH   1  19
TORSDOF 7
