REMARK  Name = ZINC08946942
REMARK  9 active torsions:
REMARK  status: ('A' for Active; 'I' for Inactive)
REMARK    1  A    between atoms: C_1  and  C_2
REMARK    2  A    between atoms: C_14  and  C_16
REMARK    3  A    between atoms: C_16  and  N_17
REMARK    4  A    between atoms: C_20  and  C_24
REMARK    5  A    between atoms: C_20  and  C_25
REMARK    6  A    between atoms: C_28  and  C_31
REMARK    7  A    between atoms: C_31  and  C_32
REMARK    8  A    between atoms: C_31  and  C_33
REMARK    9  A    between atoms: C_31  and  C_34
REMARK                            x       y       z     vdW  Elec       q    Type
REMARK                         _______ _______ _______ _____ _____    ______ ____
ROOT
ATOM      1  N   UNL     1       3.212   5.103   1.812  0.00  0.00    -0.215 N 
ATOM      2  C   UNL     1       2.317   5.211   0.810  0.00  0.00    +0.251 C 
ATOM      3  O   UNL     1       1.562   6.137   0.599  0.00  0.00    -0.272 OA
ATOM      4  C   UNL     1       2.451   3.937   0.001  0.00  0.00    +0.135 C 
ATOM      5  N   UNL     1       3.505   3.187   0.707  0.00  0.00    -0.281 N 
ATOM      6  C   UNL     1       3.885   3.948   1.749  0.00  0.00    +0.310 C 
ATOM      7  O   UNL     1       4.745   3.624   2.544  0.00  0.00    -0.252 OA
ATOM      8  C   UNL     1       2.882   4.249  -1.434  0.00  0.00    +0.047 C 
ATOM      9  H   UNL     1       3.855   2.315   0.468  0.00  0.00    +0.152 HD
ENDROOT
BRANCH   4  10
ATOM     10  C   UNL     1       1.156   3.165   0.008  0.00  0.00    -0.015 A 
ATOM     11  C   UNL     1       1.175   1.783   0.000  0.00  0.00    +0.006 A 
ATOM     12  C   UNL     1      -0.013   1.076   0.008  0.00  0.00    +0.004 A 
ATOM     13  C   UNL     1      -1.219   1.751   0.017  0.00  0.00    -0.042 A 
ATOM     14  C   UNL     1      -1.238   3.133   0.029  0.00  0.00    +0.004 A 
ATOM     15  C   UNL     1      -0.050   3.840   0.023  0.00  0.00    +0.006 A 
BRANCH  13  16
ATOM     16  C   UNL     1      -2.514   0.980   0.019  0.00  0.00    -0.013 C 
ATOM     17  C   UNL     1      -2.577   0.092   1.264  0.00  0.00    +0.015 C 
ATOM     18  C   UNL     1      -3.690   1.958   0.030  0.00  0.00    +0.015 C 
ATOM     19  C   UNL     1      -2.589   0.106  -1.234  0.00  0.00    +0.015 C 
ENDBRANCH  13  16
ENDBRANCH   4  10
BRANCH   1  20
ATOM     20  C   UNL     1       3.421   6.123   2.842  0.00  0.00    +0.214 C 
BRANCH  20  33
ATOM     21  C   UNL     1       9.004   8.424   4.911  0.00  0.00    +0.019 C 
ATOM     22  C   UNL     1       7.511   8.648   4.657  0.00  0.00    +0.050 C 
ATOM     23  C   UNL     1       7.247   8.630   3.159  0.00  0.00    +0.033 C 
ATOM     24  C   UNL     1       5.875   9.075   2.744  0.00  0.00    +0.115 C 
ATOM     25  N   UNL     1       4.840   8.122   3.173  0.00  0.00    -0.269 N 
ATOM     26  C   UNL     1       4.242   8.307   4.427  0.00  0.00    +0.050 A 
ATOM     27  C   UNL     1       2.932   8.767   4.505  0.00  0.00    +0.024 A 
ATOM     28  C   UNL     1       2.358   8.996   5.741  0.00  0.00    +0.002 A 
ATOM     29  C   UNL     1       3.074   8.775   6.904  0.00  0.00    +0.001 A 
ATOM     30  C   UNL     1       4.373   8.300   6.837  0.00  0.00    +0.016 A 
ATOM     31  C   UNL     1       4.936   8.051   5.601  0.00  0.00    +0.030 A 
ATOM     32  S   UNL     1       6.557   7.334   5.474  0.00  0.00    -0.120 S 
ATOM     33  C   UNL     1       4.479   7.092   2.382  0.00  0.00    +0.238 C 
ATOM     34  O   UNL     1       5.007   6.945   1.299  0.00  0.00    -0.274 OA
ENDBRANCH  20  33
ENDBRANCH   1  20
TORSDOF 4
