REMARK  Name = ZINC39944219
REMARK  5 active torsions:
REMARK  status: ('A' for Active; 'I' for Inactive)
REMARK    1  A    between atoms: C_4  and  C_7
REMARK    2  A    between atoms: C_10  and  N_13
REMARK    3  A    between atoms: C_14  and  C_16
REMARK    4  A    between atoms: N_18  and  N_19
REMARK    5  A    between atoms: C_20  and  C_21
REMARK                            x       y       z     vdW  Elec       q    Type
REMARK                         _______ _______ _______ _____ _____    ______ ____
ROOT
ATOM      1  C   UNL     1       7.105  -5.027   2.388  0.00  0.00    +0.318 C 
ATOM      2  O   UNL     1       7.412  -4.348   3.346  0.00  0.00    -0.263 OA
ATOM      3  N   UNL     1       7.275  -6.363   2.426  0.00  0.00    -0.199 N 
ATOM      4  H   UNL     1       7.029  -6.905   1.660  0.00  0.00    +0.178 HD
ENDROOT
BRANCH   1   6
ATOM      5  N   UNL     1       6.369  -3.044   1.129  0.00  0.00    -0.279 N 
ATOM      6  C   UNL     1       6.539  -4.381   1.167  0.00  0.00    +0.303 C 
ATOM      7  O   UNL     1       6.232  -5.059   0.209  0.00  0.00    -0.265 OA
ATOM      8  H   UNL     1       6.614  -2.502   1.895  0.00  0.00    +0.152 HD
BRANCH   5  12
ATOM      9  C   UNL     1       3.696  -0.685  -0.037  0.00  0.00    +0.125 C 
ATOM     10  N   UNL     1       4.893  -0.179  -0.041  0.00  0.00    -0.177 NA
ATOM     11  N   UNL     1       6.036  -0.947  -0.056  0.00  0.00    -0.238 N 
ATOM     12  C   UNL     1       5.813  -2.410  -0.069  0.00  0.00    +0.241 C 
ATOM     13  S   UNL     1       3.974  -2.449  -0.050  0.00  0.00    -0.061 S 
ATOM     14  H   UNL     1       6.924  -0.557  -0.059  0.00  0.00    +0.171 HD
BRANCH   9  18
ATOM     15  C   UNL     1      -0.017   1.379   0.010  0.00  0.00    +0.000 A 
ATOM     16  C   UNL     1       1.168   2.093   0.002  0.00  0.00    +0.001 A 
ATOM     17  C   UNL     1       2.377   1.429  -0.013  0.00  0.00    +0.010 A 
ATOM     18  C   UNL     1       2.403   0.034  -0.021  0.00  0.00    +0.008 A 
ATOM     19  C   UNL     1       1.204  -0.681  -0.013  0.00  0.00    +0.010 A 
ATOM     20  C   UNL     1       0.002  -0.004   0.002  0.00  0.00    +0.001 A 
ENDBRANCH   9  18
ENDBRANCH   5  12
ENDBRANCH   1   6
BRANCH   3  21
ATOM     21  N   UNL     1       7.806  -6.969   3.572  0.00  0.00    -0.188 NA
ATOM     22  C   UNL     1       7.971  -8.268   3.609  0.00  0.00    +0.136 C 
BRANCH  22  23
ATOM     23  C   UNL     1       8.503  -8.875   4.756  0.00  0.00    +0.000 C 
ATOM     24  C   UNL     1       8.746 -10.232   4.955  0.00  0.00    +0.005 A 
ATOM     25  C   UNL     1       8.555 -11.366   4.135  0.00  0.00    +0.025 A 
ATOM     26  C   UNL     1       8.889 -12.596   4.600  0.00  0.00    +0.019 A 
ATOM     27  C   UNL     1       9.424 -12.776   5.881  0.00  0.00    +0.017 A 
ATOM     28  C   UNL     1       9.634 -11.735   6.720  0.00  0.00    +0.027 A 
ATOM     29  C   UNL     1       9.309 -10.415   6.305  0.00  0.00    +0.043 A 
ATOM     30  N   UNL     1       9.415  -9.258   6.920  0.00  0.00    -0.380 N 
ATOM     31  C   UNL     1       8.938  -8.192   6.033  0.00  0.00    +0.150 C 
ATOM     32 BR   UNL     1       8.626 -14.105   3.490  0.00  0.00    -0.050 Br
ATOM     33  H   UNL     1       9.759  -9.129   7.818  0.00  0.00    +0.160 HD
ENDBRANCH  22  23
ENDBRANCH   3  21
TORSDOF 5
