REMARK  Name = ZINC39663697
REMARK  11 active torsions:
REMARK  status: ('A' for Active; 'I' for Inactive)
REMARK    1  A    between atoms: C_1  and  N_2
REMARK    2  A    between atoms: N_2  and  C_3
REMARK    3  A    between atoms: N_2  and  C_4
REMARK    4  A    between atoms: C_4  and  C_6
REMARK    5  A    between atoms: C_4  and  C_33
REMARK    6  A    between atoms: C_6  and  N_7
REMARK    7  A    between atoms: C_8  and  C_10
REMARK    8  A    between atoms: C_21  and  C_23
REMARK    9  A    between atoms: C_26  and  C_29
REMARK   10  A    between atoms: C_36  and  O_39
REMARK   11  A    between atoms: O_39  and  C_40
REMARK                            x       y       z     vdW  Elec       q    Type
REMARK                         _______ _______ _______ _____ _____    ______ ____
ROOT
ATOM      1  C   UNL     1      -2.460   4.370  -1.572  0.00  0.00    +0.100 C 
ATOM      2  C   UNL     1      -0.965   4.518  -1.930  0.00  0.00    +0.121 C 
ATOM      3  N   UNL     1      -0.957   4.865  -3.371  0.00  0.00    -0.296 N 
ATOM      4  C   UNL     1      -2.103   5.793  -3.532  0.00  0.00    +0.115 C 
ATOM      5  C   UNL     1      -3.204   5.211  -2.623  0.00  0.00    -0.004 C 
ATOM      6  C   UNL     1      -3.980   6.336  -1.947  0.00  0.00    -0.010 C 
ATOM      7  C   UNL     1      -4.757   7.123  -3.006  0.00  0.00    -0.082 C 
ATOM      8  N   UNL     1      -5.677   6.221  -3.710  0.00  0.00    +0.379 N 
ATOM      9  C   UNL     1      -4.916   5.196  -4.435  0.00  0.00    -0.082 C 
ATOM     10  C   UNL     1      -4.146   4.328  -3.436  0.00  0.00    -0.010 C 
ATOM     11  C   UNL     1      -0.102   4.435  -4.320  0.00  0.00    +0.247 C 
ATOM     12  O   UNL     1       0.728   3.589  -4.052  0.00  0.00    -0.270 OA
ATOM     13  H   UNL     1      -6.287   5.776  -3.042  0.00  0.00    -0.086 HD
ATOM     14  H   UNL     1      -6.231   6.753  -4.365  0.00  0.00    -0.086 HD
ENDROOT
BRANCH  11  15
ATOM     15  C   UNL     1      -0.175   4.993  -5.688  0.00  0.00    +0.037 A 
ATOM     16  C   UNL     1      -0.775   6.234  -5.908  0.00  0.00    +0.013 A 
ATOM     17  C   UNL     1      -0.839   6.749  -7.186  0.00  0.00    +0.013 A 
ATOM     18  C   UNL     1      -0.310   6.037  -8.248  0.00  0.00    +0.055 A 
ATOM     19  C   UNL     1       0.286   4.807  -8.037  0.00  0.00    +0.013 A 
ATOM     20  C   UNL     1       0.362   4.283  -6.763  0.00  0.00    +0.013 A 
BRANCH  18  21
ATOM     21  C   UNL     1      -0.384   6.606  -9.642  0.00  0.00    +0.417 C 
ATOM     22  F   UNL     1       0.757   7.377  -9.893  0.00  0.00    -0.166 F 
ATOM     23  F   UNL     1      -0.453   5.560 -10.569  0.00  0.00    -0.166 F 
ATOM     24  F   UNL     1      -1.524   7.409  -9.759  0.00  0.00    -0.166 F 
ENDBRANCH  18  21
ENDBRANCH  11  15
BRANCH   1  26
ATOM     25  N   UNL     1      -3.918   2.478  -0.927  0.00  0.00    -0.316 N 
ATOM     26  C   UNL     1      -2.881   2.925  -1.663  0.00  0.00    +0.218 C 
ATOM     27  O   UNL     1      -2.286   2.165  -2.397  0.00  0.00    -0.275 OA
ATOM     28  H   UNL     1      -4.394   3.086  -0.340  0.00  0.00    +0.149 HD
BRANCH  25  29
ATOM     29  C   UNL     1      -4.327   1.074  -1.016  0.00  0.00    +0.093 C 
BRANCH  29  30
ATOM     30  C   UNL     1      -5.452   0.806  -0.013  0.00  0.00    -0.021 C 
BRANCH  30  31
ATOM     31  C   UNL     1      -6.634   1.682  -0.340  0.00  0.00    -0.059 A 
ATOM     32  C   UNL     1      -7.503   1.319  -1.352  0.00  0.00    +0.005 A 
ATOM     33  C   UNL     1      -8.588   2.119  -1.653  0.00  0.00    +0.046 A 
ATOM     34  C   UNL     1      -8.805   3.289  -0.939  0.00  0.00    +0.120 A 
ATOM     35  C   UNL     1      -7.932   3.651   0.076  0.00  0.00    +0.046 A 
ATOM     36  C   UNL     1      -6.851   2.844   0.377  0.00  0.00    +0.005 A 
BRANCH  34  37
ATOM     37  O   UNL     1      -9.871   4.079  -1.234  0.00  0.00    -0.495 OA
ATOM     38  C   UNL     1     -10.032   5.267  -0.458  0.00  0.00    +0.277 C 
ENDBRANCH  34  37
ENDBRANCH  30  31
BRANCH  30  40
ATOM     39  C   UNL     1      -4.686  -1.459   0.179  0.00  0.00    -0.096 C 
ATOM     40  N   UNL     1      -5.851  -0.605  -0.091  0.00  0.00    +0.382 N 
ATOM     41  C   UNL     1      -6.896  -0.874   0.906  0.00  0.00    -0.096 C 
ATOM     42  H   UNL     1      -6.207  -0.804  -1.014  0.00  0.00    -0.082 HD
ENDBRANCH  30  40
ENDBRANCH  29  30
ENDBRANCH  25  29
ENDBRANCH   1  26
TORSDOF 8
