REMARK  Name = ZINC12385554
REMARK  11 active torsions:
REMARK  status: ('A' for Active; 'I' for Inactive)
REMARK    1  A    between atoms: C_1  and  C_2
REMARK    2  A    between atoms: C_3  and  C_17
REMARK    3  A    between atoms: C_5  and  C_7
REMARK    4  A    between atoms: C_10  and  C_13
REMARK    5  A    between atoms: C_13  and  O_15
REMARK    6  A    between atoms: O_15  and  C_16
REMARK    7  A    between atoms: C_17  and  N_62
REMARK    8  A    between atoms: C_22  and  C_24
REMARK    9  A    between atoms: C_24  and  C_25
REMARK   10  A    between atoms: C_25  and  C_26
REMARK   11  A    between atoms: C_29  and  O_32
REMARK                            x       y       z     vdW  Elec       q    Type
REMARK                         _______ _______ _______ _____ _____    ______ ____
ROOT
ATOM      1  C   UNL     1      -0.352   0.876  -2.236  0.00  0.00    -0.018 C 
ENDROOT
BRANCH   1   7
ATOM      2  C   UNL     1       0.011   1.266   0.126  0.00  0.00    -0.078 C 
ATOM      3  C   UNL     1      -0.588   1.912   1.377  0.00  0.00    -0.019 C 
ATOM      4  C   UNL     1      -0.652   3.429   1.181  0.00  0.00    -0.003 C 
ATOM      5  C   UNL     1      -1.482   3.740  -0.067  0.00  0.00    -0.015 C 
ATOM      6  C   UNL     1      -0.857   3.041  -1.277  0.00  0.00    -0.068 C 
ATOM      7  N   UNL     1      -0.847   1.583  -1.036  0.00  0.00    +0.385 N 
ATOM      8  H   UNL     1      -1.805   1.272  -0.837  0.00  0.00    -0.081 HD
BRANCH   6   9
ATOM      9  C   UNL     1      -1.694   3.333  -2.523  0.00  0.00    -0.011 C 
BRANCH   9  10
ATOM     10  C   UNL     1      -1.662   4.834  -2.819  0.00  0.00    +0.033 C 
BRANCH  10  11
ATOM     11  C   UNL     1      -2.428   5.112  -4.087  0.00  0.00    -0.047 A 
ATOM     12  C   UNL     1      -1.774   5.098  -5.306  0.00  0.00    +0.007 A 
ATOM     13  C   UNL     1      -2.475   5.347  -6.470  0.00  0.00    +0.045 A 
ATOM     14  C   UNL     1      -3.833   5.623  -6.415  0.00  0.00    +0.117 A 
ATOM     15  C   UNL     1      -4.486   5.643  -5.190  0.00  0.00    +0.045 A 
ATOM     16  C   UNL     1      -3.782   5.387  -4.030  0.00  0.00    +0.007 A 
BRANCH  14  17
ATOM     17  O   UNL     1      -4.524   5.875  -7.558  0.00  0.00    -0.507 OA
ATOM     18  H   UNL     1      -4.544   6.809  -7.807  0.00  0.00    +0.292 HD
ENDBRANCH  14  17
ENDBRANCH  10  11
ENDBRANCH   9  10
ENDBRANCH   6   9
ENDBRANCH   1   7
BRANCH   1  21
ATOM     19  C   UNL     1       2.387  -0.427  -1.472  0.00  0.00    +0.088 C 
ATOM     20  C   UNL     1       2.191   0.821  -2.295  0.00  0.00    +0.124 A 
ATOM     21  C   UNL     1       1.013   1.383  -2.624  0.00  0.00    +0.066 A 
ATOM     22  N   UNL     1       1.270   2.471  -3.364  0.00  0.00    -0.216 NA
ATOM     23  C   UNL     1       2.570   2.596  -3.489  0.00  0.00    +0.228 A 
ATOM     24  O   UNL     1       3.162   1.580  -2.836  0.00  0.00    -0.440 OA
BRANCH  23  25
ATOM     25  C   UNL     1       3.266   3.668  -4.229  0.00  0.00    +0.037 A 
ATOM     26  C   UNL     1       2.529   4.666  -4.872  0.00  0.00    +0.014 A 
ATOM     27  C   UNL     1       3.177   5.668  -5.556  0.00  0.00    +0.016 A 
ATOM     28  C   UNL     1       4.573   5.682  -5.618  0.00  0.00    +0.059 A 
ATOM     29  C   UNL     1       5.311   4.681  -4.979  0.00  0.00    +0.016 A 
ATOM     30  C   UNL     1       4.662   3.682  -4.290  0.00  0.00    +0.014 A 
BRANCH  28  31
ATOM     31  C   UNL     1       5.269   6.753  -6.358  0.00  0.00    +0.339 C 
ATOM     32  O   UNL     1       6.483   6.765  -6.412  0.00  0.00    -0.245 OA
BRANCH  31  33
ATOM     33  O   UNL     1       4.558   7.718  -6.973  0.00  0.00    -0.464 OA
ATOM     34  C   UNL     1       5.308   8.739  -7.682  0.00  0.00    +0.280 C 
ENDBRANCH  31  33
ENDBRANCH  28  31
ENDBRANCH  23  25
ENDBRANCH   1  21
TORSDOF 9
