REMARK  Name = ZINC13271813
REMARK  11 active torsions:
REMARK  status: ('A' for Active; 'I' for Inactive)
REMARK    1  A    between atoms: C_1  and  C_2
REMARK    2  A    between atoms: C_2  and  C_3
REMARK    3  A    between atoms: C_2  and  C_4
REMARK    4  A    between atoms: C_4  and  C_6
REMARK    5  A    between atoms: C_4  and  N_8
REMARK    6  A    between atoms: C_9  and  C_30
REMARK    7  A    between atoms: C_12  and  S_13
REMARK    8  A    between atoms: S_13  and  C_14
REMARK    9  A    between atoms: C_14  and  C_15
REMARK   10  A    between atoms: C_27  and  C_28
REMARK   11  A    between atoms: C_27  and  C_29
REMARK                            x       y       z     vdW  Elec       q    Type
REMARK                         _______ _______ _______ _____ _____    ______ ____
ROOT
ATOM      1  S   UNL     1       2.040  -1.899   2.455  0.00  0.00    -0.077 S 
ENDROOT
BRANCH   1   6
ATOM      2  N   UNL     1       0.392  -3.344   4.195  0.00  0.00    -0.287 N 
ATOM      3  C   UNL     1      -0.903  -3.238   4.652  0.00  0.00    +0.172 A 
ATOM      4  N   UNL     1      -1.428  -2.178   4.077  0.00  0.00    -0.128 NA
ATOM      5  N   UNL     1      -0.561  -1.621   3.310  0.00  0.00    -0.122 NA
ATOM      6  C   UNL     1       0.570  -2.288   3.345  0.00  0.00    +0.193 A 
BRANCH   3   7
ATOM      7  C   UNL     1      -1.575  -4.143   5.598  0.00  0.00    +0.056 A 
ATOM      8  C   UNL     1      -2.912  -4.263   5.879  0.00  0.00    +0.019 A 
ATOM      9  C   UNL     1      -3.311  -5.195   6.811  0.00  0.00    +0.008 A 
ATOM     10  C   UNL     1      -2.371  -5.956   7.430  0.00  0.00    +0.046 A 
ATOM     11  S   UNL     1      -0.860  -5.365   6.686  0.00  0.00    -0.094 S 
ENDBRANCH   3   7
BRANCH   2  12
ATOM     12  C   UNL     1       1.374  -4.372   4.548  0.00  0.00    +0.206 C 
BRANCH  12  14
ATOM     13  C   UNL     1       2.157  -2.966   6.460  0.00  0.00    +0.010 C 
ATOM     14  C   UNL     1       2.592  -3.711   5.196  0.00  0.00    +0.017 C 
ATOM     15  C   UNL     1       3.618  -4.785   5.566  0.00  0.00    +0.010 C 
ENDBRANCH  12  14
BRANCH  12  16
ATOM     16  C   UNL     1       1.803  -5.106   3.304  0.00  0.00    +0.379 C 
ATOM     17  O   UNL     1       2.964  -5.101   2.970  0.00  0.00    -0.244 OA
ATOM     18  O   UNL     1       0.895  -5.765   2.567  0.00  0.00    -0.244 OA
ENDBRANCH  12  16
ENDBRANCH   2  12
ENDBRANCH   1   6
BRANCH   1  19
ATOM     19  C   UNL     1       1.493  -0.415   1.576  0.00  0.00    +0.173 C 
BRANCH  19  20
ATOM     20  C   UNL     1       2.621   0.110   0.726  0.00  0.00    +0.231 C 
ATOM     21  O   UNL     1       3.536  -0.622   0.413  0.00  0.00    -0.274 OA
ATOM     22  N   UNL     1       2.612   1.392   0.311  0.00  0.00    -0.255 N 
ATOM     23  C   UNL     1       1.506   2.223   0.549  0.00  0.00    +0.059 A 
ATOM     24  C   UNL     1       0.227   1.702   0.638  0.00  0.00    +0.025 A 
ATOM     25  C   UNL     1      -0.844   2.548   0.862  0.00  0.00    +0.002 A 
ATOM     26  C   UNL     1      -0.638   3.908   1.007  0.00  0.00    +0.002 A 
ATOM     27  C   UNL     1       0.637   4.434   0.921  0.00  0.00    +0.025 A 
ATOM     28  C   UNL     1       1.716   3.595   0.693  0.00  0.00    +0.055 A 
ATOM     29  N   UNL     1       3.016   4.107   0.610  0.00  0.00    -0.282 N 
ATOM     30  C   UNL     1       4.020   3.357   0.118  0.00  0.00    +0.241 C 
ATOM     31  O   UNL     1       5.147   3.805   0.095  0.00  0.00    -0.273 OA
ATOM     32  C   UNL     1       3.762   1.966  -0.404  0.00  0.00    +0.113 C 
ATOM     33  C   UNL     1       4.997   1.094  -0.171  0.00  0.00    +0.042 C 
ATOM     34  C   UNL     1       3.454   2.029  -1.901  0.00  0.00    +0.042 C 
ATOM     35  H   UNL     1       3.195   5.012   0.908  0.00  0.00    +0.155 HD
ENDBRANCH  19  20
ENDBRANCH   1  19
TORSDOF 7
