REMARK  Name = ZINC00785610
REMARK  5 active torsions:
REMARK  status: ('A' for Active; 'I' for Inactive)
REMARK    1  A    between atoms: C_1  and  C_2
REMARK    2  A    between atoms: C_15  and  C_17
REMARK    3  A    between atoms: C_20  and  O_25
REMARK    4  A    between atoms: C_21  and  O_23
REMARK    5  A    between atoms: O_23  and  C_24
REMARK                            x       y       z     vdW  Elec       q    Type
REMARK                         _______ _______ _______ _____ _____    ______ ____
ROOT
ATOM      1  C   UNL     1      -0.019   1.526   0.010  0.00  0.00    +0.008 C 
ATOM      2  C   UNL     1       0.002  -0.004   0.002  0.00  0.00    -0.009 C 
ATOM      3  C   UNL     1      -1.433  -0.537   0.021  0.00  0.00    +0.008 C 
ATOM      4  C   UNL     1      -1.431  -2.044  -0.237  0.00  0.00    +0.037 C 
ATOM      5  C   UNL     1      -0.472  -2.712   0.745  0.00  0.00    -0.023 A 
ATOM      6  C   UNL     1       0.476  -1.986   1.383  0.00  0.00    -0.004 A 
ATOM      7  S   UNL     1       1.344  -3.148   2.405  0.00  0.00    -0.073 S 
ATOM      8  C   UNL     1       0.438  -4.602   1.978  0.00  0.00    +0.116 A 
ATOM      9  C   UNL     1      -0.517  -4.132   1.046  0.00  0.00    +0.075 A 
ATOM     10  C   UNL     1      -1.428  -5.096   0.498  0.00  0.00    +0.260 A 
ATOM     11  O   UNL     1      -2.286  -4.788  -0.312  0.00  0.00    -0.267 OA
ATOM     12  N   UNL     1      -1.275  -6.368   0.935  0.00  0.00    -0.306 N 
ATOM     13  H   UNL     1      -1.870  -7.052   0.590  0.00  0.00    +0.170 HD
ATOM     14  C   UNL     1      -0.321  -6.731   1.840  0.00  0.00    +0.142 A 
ATOM     15  N   UNL     1       0.535  -5.866   2.365  0.00  0.00    -0.222 NA
ATOM     16  C   UNL     1       0.737  -0.516   1.249  0.00  0.00    +0.046 C 
ENDROOT
BRANCH  14  17
ATOM     17  C   UNL     1      -0.238  -8.146   2.252  0.00  0.00    +0.021 A 
ATOM     18  C   UNL     1      -1.122  -9.085   1.714  0.00  0.00    +0.015 A 
ATOM     19  C   UNL     1      -1.044 -10.406   2.099  0.00  0.00    +0.050 A 
ATOM     20  C   UNL     1      -0.088 -10.807   3.023  0.00  0.00    +0.158 A 
ATOM     21  C   UNL     1       0.796  -9.876   3.564  0.00  0.00    +0.162 A 
ATOM     22  C   UNL     1       0.728  -8.551   3.177  0.00  0.00    +0.061 A 
BRANCH  21  23
ATOM     23  O   UNL     1       1.731 -10.272   4.470  0.00  0.00    -0.491 OA
ATOM     24  C   UNL     1       2.604  -9.265   4.983  0.00  0.00    +0.277 C 
ENDBRANCH  21  23
BRANCH  20  25
ATOM     25  O   UNL     1      -0.015 -12.110   3.400  0.00  0.00    -0.503 OA
ATOM     26  H   UNL     1       0.574 -12.646   2.852  0.00  0.00    +0.292 HD
ENDBRANCH  20  25
ENDBRANCH  14  17
TORSDOF 3
