REMARK  Name = ZINC40794236
REMARK  13 active torsions:
REMARK  status: ('A' for Active; 'I' for Inactive)
REMARK    1  A    between atoms: C_1  and  C_2
REMARK    2  A    between atoms: C_2  and  C_3
REMARK    3  A    between atoms: C_2  and  N_4
REMARK    4  A    between atoms: C_5  and  C_9
REMARK    5  A    between atoms: C_9  and  O_10
REMARK    6  A    between atoms: O_10  and  C_11
REMARK    7  A    between atoms: C_14  and  C_17
REMARK    8  A    between atoms: N_19  and  C_20
REMARK    9  A    between atoms: C_21  and  C_29
REMARK   10  A    between atoms: N_31  and  C_32
REMARK   11  A    between atoms: C_32  and  C_33
REMARK   12  A    between atoms: C_33  and  O_34
REMARK   13  A    between atoms: O_34  and  C_35
REMARK                            x       y       z     vdW  Elec       q    Type
REMARK                         _______ _______ _______ _____ _____    ______ ____
ROOT
ATOM      1  C   UNL     1      -6.166  -5.757   1.421  0.00  0.00    +0.249 C 
ATOM      2  O   UNL     1      -7.142  -5.250   1.941  0.00  0.00    -0.270 OA
ATOM      3  N   UNL     1      -6.271  -6.955   0.815  0.00  0.00    -0.275 N 
ATOM      4  H   UNL     1      -5.492  -7.359   0.401  0.00  0.00    +0.156 HD
ENDROOT
BRANCH   3   5
ATOM      5  C   UNL     1      -7.491  -7.611   0.783  0.00  0.00    +0.085 A 
ATOM      6  C   UNL     1      -7.783  -8.841   0.214  0.00  0.00    +0.069 A 
ATOM      7  C   UNL     1      -9.153  -9.312   0.317  0.00  0.00    -0.023 A 
ATOM      8  C   UNL     1      -9.981  -8.466   0.968  0.00  0.00    -0.004 A 
ATOM      9  S   UNL     1      -8.955  -7.101   1.430  0.00  0.00    -0.077 S 
ATOM     10  C   UNL     1     -11.441  -8.664   1.235  0.00  0.00    +0.043 C 
ATOM     11  C   UNL     1     -11.947  -9.797   0.330  0.00  0.00    +0.005 C 
ATOM     12  C   UNL     1     -10.983 -10.982   0.433  0.00  0.00    +0.005 C 
ATOM     13  C   UNL     1      -9.656 -10.634  -0.245  0.00  0.00    +0.037 C 
BRANCH   6  14
ATOM     14  C   UNL     1      -6.752  -9.634  -0.463  0.00  0.00    +0.247 C 
ATOM     15  O   UNL     1      -6.092 -10.440   0.168  0.00  0.00    -0.270 OA
ATOM     16  N   UNL     1      -6.535  -9.471  -1.783  0.00  0.00    -0.309 N 
ATOM     17  H   UNL     1      -7.060  -8.829  -2.285  0.00  0.00    +0.149 HD
BRANCH  16  18
ATOM     18  C   UNL     1      -5.504 -10.263  -2.459  0.00  0.00    +0.132 C 
BRANCH  18  19
ATOM     19  C   UNL     1      -5.463  -9.886  -3.941  0.00  0.00    +0.178 C 
BRANCH  19  20
ATOM     20  O   UNL     1      -5.044  -8.527  -4.076  0.00  0.00    -0.381 OA
ATOM     21  C   UNL     1      -4.971  -8.072  -5.429  0.00  0.00    +0.194 C 
ENDBRANCH  19  20
ENDBRANCH  18  19
ENDBRANCH  16  18
ENDBRANCH   6  14
ENDBRANCH   3   5
BRANCH   1  25
ATOM     22  C   UNL     1      -2.427  -3.748   1.521  0.00  0.00    +0.121 A 
ATOM     23  C   UNL     1      -3.541  -3.167   2.115  0.00  0.00    +0.046 A 
ATOM     24  C   UNL     1      -4.756  -3.815   2.084  0.00  0.00    +0.016 A 
ATOM     25  C   UNL     1      -4.867  -5.058   1.456  0.00  0.00    +0.037 A 
ATOM     26  C   UNL     1      -3.744  -5.639   0.860  0.00  0.00    +0.016 A 
ATOM     27  C   UNL     1      -2.534  -4.981   0.890  0.00  0.00    +0.046 A 
BRANCH  22  28
ATOM     28  O   UNL     1      -1.231  -3.106   1.553  0.00  0.00    -0.484 OA
BRANCH  28  29
ATOM     29  C   UNL     1      -1.192  -1.841   2.218  0.00  0.00    +0.306 C 
BRANCH  29  31
ATOM     30  N   UNL     1       0.711  -0.489   1.189  0.00  0.00    -0.224 N 
ATOM     31  C   UNL     1       0.207  -1.283   2.152  0.00  0.00    +0.189 A 
ATOM     32  N   UNL     1       1.168  -1.475   3.022  0.00  0.00    -0.110 NA
ATOM     33  N   UNL     1       2.208  -0.833   2.615  0.00  0.00    -0.023 NA
ATOM     34  N   UNL     1       1.937  -0.241   1.504  0.00  0.00    -0.044 NA
BRANCH  30  36
ATOM     35  C   UNL     1      -0.019   1.526   0.010  0.00  0.00    +0.032 C 
ATOM     36  C   UNL     1       0.002  -0.004   0.002  0.00  0.00    +0.105 C 
ATOM     37  C   UNL     1       0.718  -0.497  -1.257  0.00  0.00    +0.032 C 
ENDBRANCH  30  36
ENDBRANCH  29  31
ENDBRANCH  28  29
ENDBRANCH  22  28
ENDBRANCH   1  25
TORSDOF 10
