REMARK  Name = ZINC10244910
REMARK  10 active torsions:
REMARK  status: ('A' for Active; 'I' for Inactive)
REMARK    1  A    between atoms: C_1  and  C_2
REMARK    2  A    between atoms: C_2  and  C_3
REMARK    3  A    between atoms: C_3  and  C_5
REMARK    4  A    between atoms: C_3  and  S_6
REMARK    5  A    between atoms: S_6  and  C_7
REMARK    6  A    between atoms: N_21  and  C_22
REMARK    7  A    between atoms: C_25  and  O_30
REMARK    8  A    between atoms: C_26  and  O_28
REMARK    9  A    between atoms: O_28  and  C_29
REMARK   10  A    between atoms: O_30  and  C_31
REMARK                            x       y       z     vdW  Elec       q    Type
REMARK                         _______ _______ _______ _____ _____    ______ ____
ROOT
ATOM      1  C   UNL     1       2.420  -0.262   0.082  0.00  0.00    +0.177 A 
ATOM      2  N   UNL     1       3.546  -0.939   0.070  0.00  0.00    -0.221 NA
ATOM      3  C   UNL     1       4.730  -0.314  -0.036  0.00  0.00    +0.104 A 
ATOM      4  C   UNL     1       6.123  -0.780  -0.077  0.00  0.00    +0.026 A 
ATOM      5  C   UNL     1       6.715  -2.042  -0.018  0.00  0.00    +0.012 A 
ATOM      6  C   UNL     1       8.075  -2.160  -0.082  0.00  0.00    +0.001 A 
ATOM      7  C   UNL     1       8.874  -1.031  -0.205  0.00  0.00    +0.002 A 
ATOM      8  C   UNL     1       8.310   0.224  -0.264  0.00  0.00    +0.026 A 
ATOM      9  C   UNL     1       6.925   0.367  -0.201  0.00  0.00    +0.049 A 
ATOM     10  N   UNL     1       6.100   1.470  -0.235  0.00  0.00    -0.349 N 
ATOM     11  H   UNL     1       6.402   2.388  -0.316  0.00  0.00    +0.166 HD
ATOM     12  C   UNL     1       4.775   1.076  -0.137  0.00  0.00    +0.132 A 
ATOM     13  C   UNL     1       3.559   1.790  -0.130  0.00  0.00    +0.283 A 
ATOM     14  O   UNL     1       3.551   3.007  -0.221  0.00  0.00    -0.265 OA
ATOM     15  N   UNL     1       2.404   1.100  -0.015  0.00  0.00    -0.254 N 
ENDROOT
BRANCH  15  16
ATOM     16  C   UNL     1       1.181   1.786   0.000  0.00  0.00    +0.056 A 
ATOM     17  C   UNL     1       0.512   2.037  -1.190  0.00  0.00    +0.030 A 
ATOM     18  C   UNL     1      -0.691   2.717  -1.178  0.00  0.00    +0.051 A 
ATOM     19  C   UNL     1      -1.237   3.140   0.024  0.00  0.00    +0.162 A 
ATOM     20  C   UNL     1      -0.569   2.889   1.218  0.00  0.00    +0.163 A 
ATOM     21  C   UNL     1       0.639   2.212   1.205  0.00  0.00    +0.075 A 
BRANCH  20  22
ATOM     22  O   UNL     1      -1.102   3.307   2.397  0.00  0.00    -0.491 OA
ATOM     23  C   UNL     1      -0.362   3.014   3.584  0.00  0.00    +0.277 C 
ENDBRANCH  20  22
BRANCH  19  24
ATOM     24  O   UNL     1      -2.424   3.805   0.035  0.00  0.00    -0.491 OA
ATOM     25  C   UNL     1      -3.055   4.028  -1.228  0.00  0.00    +0.277 C 
ENDBRANCH  19  24
ENDBRANCH  15  16
BRANCH   1  26
ATOM     26  S   UNL     1       0.895  -1.133   0.224  0.00  0.00    -0.084 S 
BRANCH  26  27
ATOM     27  C   UNL     1       1.510  -2.833   0.313  0.00  0.00    +0.051 C 
ATOM     28  C   UNL     1       2.324  -3.014   1.595  0.00  0.00    +0.019 C 
BRANCH  27  30
ATOM     29  C   UNL     1      -0.414  -3.711  -1.017  0.00  0.00    +0.005 C 
ATOM     30  C   UNL     1       0.328  -3.803   0.318  0.00  0.00    +0.011 C 
ENDBRANCH  27  30
ENDBRANCH  26  27
ENDBRANCH   1  26
TORSDOF 6
