REMARK  Name = ZINC58158948
REMARK  7 active torsions:
REMARK  status: ('A' for Active; 'I' for Inactive)
REMARK    1  A    between atoms: C_4  and  C_7
REMARK    2  A    between atoms: C_9  and  C_12
REMARK    3  A    between atoms: C_12  and  C_13
REMARK    4  A    between atoms: C_13  and  N_14
REMARK    5  A    between atoms: N_14  and  C_15
REMARK    6  A    between atoms: C_18  and  C_24
REMARK    7  A    between atoms: C_20  and  N_21
REMARK                            x       y       z     vdW  Elec       q    Type
REMARK                         _______ _______ _______ _____ _____    ______ ____
ROOT
ATOM      1  N   UNL     1       6.253  -5.707   1.376  0.00  0.00    -0.342 N 
ATOM      2  H   UNL     1       6.898  -5.959   0.697  0.00  0.00    +0.146 HD
ENDROOT
BRANCH   1   3
ATOM      3  C   UNL     1       5.702  -6.681   2.211  0.00  0.00    +0.058 A 
ATOM      4  C   UNL     1       4.872  -6.308   3.262  0.00  0.00    +0.026 A 
ATOM      5  C   UNL     1       4.328  -7.274   4.085  0.00  0.00    +0.014 A 
ATOM      6  C   UNL     1       4.608  -8.610   3.866  0.00  0.00    +0.057 A 
ATOM      7  C   UNL     1       5.434  -8.984   2.822  0.00  0.00    +0.047 A 
ATOM      8  C   UNL     1       5.977  -8.024   1.990  0.00  0.00    +0.147 A 
BRANCH   6   9
ATOM      9  C   UNL     1       4.013  -9.661   4.767  0.00  0.00    +0.417 C 
ATOM     10  F   UNL     1       3.220  -9.045   5.741  0.00  0.00    -0.166 F 
ATOM     11  F   UNL     1       3.225 -10.534   4.009  0.00  0.00    -0.166 F 
ATOM     12  F   UNL     1       5.040 -10.380   5.388  0.00  0.00    -0.166 F 
ENDBRANCH   6   9
BRANCH   8  13
ATOM     13  N   UNL     1       6.856  -8.426   0.869  0.00  0.00    +0.058 N 
ATOM     14  O   UNL     1       6.800  -7.835  -0.184  0.00  0.00    -0.126 OA
ATOM     15  O   UNL     1       7.629  -9.344   1.007  0.00  0.00    -0.126 OA
ENDBRANCH   8  13
ENDBRANCH   1   3
BRANCH   1  16
ATOM     16  C   UNL     1       5.857  -4.304   1.525  0.00  0.00    +0.108 C 
BRANCH  16  17
ATOM     17  C   UNL     1       6.602  -3.452   0.496  0.00  0.00    +0.077 C 
BRANCH  17  20
ATOM     18  C   UNL     1       4.979  -0.234   0.784  0.00  0.00    +0.227 A 
ATOM     19  N   UNL     1       4.940  -1.534   0.615  0.00  0.00    -0.214 NA
ATOM     20  C   UNL     1       6.195  -2.009   0.649  0.00  0.00    +0.081 A 
ATOM     21  C   UNL     1       7.024  -0.968   0.845  0.00  0.00    +0.221 A 
ATOM     22  O   UNL     1       6.263   0.141   0.923  0.00  0.00    -0.443 OA
BRANCH  18  26
ATOM     23  C   UNL     1       1.616   2.359   0.860  0.00  0.00    +0.000 A 
ATOM     24  C   UNL     1       2.889   2.878   1.018  0.00  0.00    +0.001 A 
ATOM     25  C   UNL     1       3.985   2.041   0.994  0.00  0.00    +0.013 A 
ATOM     26  C   UNL     1       3.808   0.669   0.811  0.00  0.00    +0.037 A 
ATOM     27  C   UNL     1       2.522   0.152   0.653  0.00  0.00    +0.013 A 
ATOM     28  C   UNL     1       1.433   1.000   0.679  0.00  0.00    +0.001 A 
ENDBRANCH  18  26
ENDBRANCH  17  20
ENDBRANCH  16  17
ENDBRANCH   1  16
TORSDOF 7
