REMARK  Name = ZINC62966982
REMARK  9 active torsions:
REMARK  status: ('A' for Active; 'I' for Inactive)
REMARK    1  A    between atoms: C_1  and  C_2
REMARK    2  A    between atoms: C_2  and  N_3
REMARK    3  A    between atoms: N_3  and  C_4
REMARK    4  A    between atoms: N_3  and  C_6
REMARK    5  A    between atoms: C_4  and  C_5
REMARK    6  A    between atoms: N_10  and  C_12
REMARK    7  A    between atoms: C_12  and  C_14
REMARK    8  A    between atoms: C_12  and  C_15
REMARK    9  A    between atoms: C_15  and  C_17
REMARK                            x       y       z     vdW  Elec       q    Type
REMARK                         _______ _______ _______ _____ _____    ______ ____
ROOT
ATOM      1  C   UNL     1       0.760  -1.785  -1.762  0.00  0.00    -0.053 C 
ATOM      2  C   UNL     1       1.695  -2.109  -2.949  0.00  0.00    +0.001 C 
ATOM      3  C   UNL     1       0.885  -3.156  -3.753  0.00  0.00    +0.083 C 
ATOM      4  N   UNL     1      -0.514  -2.672  -3.629  0.00  0.00    -0.294 NA
ATOM      5  C   UNL     1      -0.650  -2.183  -2.238  0.00  0.00    +0.070 C 
ENDROOT
BRANCH   1   6
ATOM      6  N   UNL     1       0.807  -0.350  -1.452  0.00  0.00    +0.382 N 
ATOM      7  H   UNL     1       0.554   0.180  -2.273  0.00  0.00    -0.081 HD
BRANCH   6   9
ATOM      8  C   UNL     1       0.276  -0.815   0.893  0.00  0.00    -0.017 C 
ATOM      9  C   UNL     1      -0.138  -0.052  -0.367  0.00  0.00    -0.082 C 
ENDBRANCH   6   9
BRANCH   6  10
ATOM     10  C   UNL     1       2.166   0.016  -1.033  0.00  0.00    -0.082 C 
ATOM     11  C   UNL     1       2.248   1.531  -0.833  0.00  0.00    -0.017 C 
ENDBRANCH   6  10
ENDBRANCH   1   6
BRANCH   4  12
ATOM     12  C   UNL     1      -1.471  -3.753  -3.902  0.00  0.00    +0.125 C 
ATOM     13  C   UNL     1      -2.897  -3.217  -3.768  0.00  0.00    +0.032 C 
BRANCH  12  14
ATOM     14  C   UNL     1      -1.258  -4.271  -5.301  0.00  0.00    +0.186 C 
ATOM     15  O   UNL     1      -0.599  -3.627  -6.093  0.00  0.00    -0.290 OA
BRANCH  14  16
ATOM     16  C   UNL     1      -1.826  -5.502  -5.692  0.00  0.00    +0.058 A 
ATOM     17  C   UNL     1      -1.747  -6.154  -6.919  0.00  0.00    +0.020 A 
ATOM     18  C   UNL     1      -2.410  -7.352  -6.999  0.00  0.00    +0.028 A 
ATOM     19  C   UNL     1      -3.080  -7.810  -5.909  0.00  0.00    +0.079 A 
ATOM     20  S   UNL     1      -2.823  -6.631  -4.740  0.00  0.00    -0.074 S 
ATOM     21 CL   UNL     1      -3.989  -9.282  -5.757  0.00  0.00    -0.076 Cl
ENDBRANCH  14  16
ENDBRANCH  12  14
ENDBRANCH   4  12
TORSDOF 6
