REMARK  Name = ZINC21259724
REMARK  11 active torsions:
REMARK  status: ('A' for Active; 'I' for Inactive)
REMARK    1  A    between atoms: C_1  and  N_2
REMARK    2  A    between atoms: N_2  and  C_3
REMARK    3  A    between atoms: N_2  and  C_4
REMARK    4  A    between atoms: C_7  and  C_10
REMARK    5  A    between atoms: C_15  and  C_25
REMARK    6  A    between atoms: C_27  and  O_35
REMARK    7  A    between atoms: C_28  and  O_33
REMARK    8  A    between atoms: C_29  and  O_31
REMARK    9  A    between atoms: O_31  and  C_32
REMARK   10  A    between atoms: O_33  and  C_34
REMARK   11  A    between atoms: O_35  and  C_36
REMARK                            x       y       z     vdW  Elec       q    Type
REMARK                         _______ _______ _______ _____ _____    ______ ____
ROOT
ATOM      1  C   UNL     1       3.817   2.486  -3.363  0.00  0.00    +0.032 C 
ATOM      2  C   UNL     1       3.282   1.079  -3.101  0.00  0.00    +0.059 C 
ATOM      3  C   UNL     1       2.153   1.137  -2.085  0.00  0.00    +0.017 C 
ATOM      4  C   UNL     1       2.171   2.053  -1.103  0.00  0.00    +0.036 C 
ATOM      5  C   UNL     1       1.138   2.200  -0.009  0.00  0.00    +0.136 C 
ATOM      6  N   UNL     1      -0.070   1.430  -0.219  0.00  0.00    -0.331 N 
ATOM      7  C   UNL     1      -0.042   0.037  -0.237  0.00  0.00    +0.049 A 
ATOM      8  C   UNL     1      -0.689  -0.712   0.732  0.00  0.00    +0.025 A 
ATOM      9  C   UNL     1      -0.596  -2.093   0.700  0.00  0.00    +0.002 A 
ATOM     10  C   UNL     1       0.139  -2.722  -0.289  0.00  0.00    +0.002 A 
ATOM     11  C   UNL     1       0.773  -1.976  -1.269  0.00  0.00    +0.025 A 
ATOM     12  C   UNL     1       0.663  -0.597  -1.249  0.00  0.00    +0.052 A 
ATOM     13  N   UNL     1       1.184   0.203  -2.260  0.00  0.00    -0.316 N 
ATOM     14  C   UNL     1       3.221   2.998  -1.028  0.00  0.00    +0.163 C 
ATOM     15  O   UNL     1       3.221   3.802  -0.117  0.00  0.00    -0.292 OA
ATOM     16  C   UNL     1       4.334   3.043  -2.031  0.00  0.00    +0.088 C 
ATOM     17  H   UNL     1      -1.031   1.945  -0.368  0.00  0.00    +0.147 HD
ATOM     18  H   UNL     1       0.754   0.037  -3.259  0.00  0.00    +0.152 HD
ENDROOT
BRANCH   1  22
ATOM     19  C   UNL     1       7.008   2.322  -6.201  0.00  0.00    +0.029 A 
ATOM     20  C   UNL     1       5.881   3.090  -6.465  0.00  0.00    +0.023 A 
ATOM     21  C   UNL     1       4.852   3.141  -5.545  0.00  0.00    +0.006 A 
ATOM     22  C   UNL     1       4.942   2.428  -4.364  0.00  0.00    -0.043 A 
ATOM     23  C   UNL     1       6.065   1.667  -4.096  0.00  0.00    +0.006 A 
ATOM     24  C   UNL     1       7.096   1.607  -5.013  0.00  0.00    +0.023 A 
BRANCH  19  26
ATOM     25  C   UNL     1       7.903   2.914  -8.436  0.00  0.00    +0.129 C 
ATOM     26  N   UNL     1       8.051   2.268  -7.129  0.00  0.00    -0.336 N 
ATOM     27  C   UNL     1       9.292   1.565  -6.796  0.00  0.00    +0.129 C 
ENDBRANCH  19  26
ENDBRANCH   1  22
BRANCH   5  28
ATOM     28  C   UNL     1       1.759   1.770   1.295  0.00  0.00    -0.016 A 
ATOM     29  C   UNL     1       1.868   2.672   2.337  0.00  0.00    +0.055 A 
ATOM     30  C   UNL     1       2.433   2.279   3.540  0.00  0.00    +0.165 A 
ATOM     31  C   UNL     1       2.900   0.979   3.695  0.00  0.00    +0.204 A 
ATOM     32  C   UNL     1       2.793   0.076   2.643  0.00  0.00    +0.165 A 
ATOM     33  C   UNL     1       2.222   0.476   1.444  0.00  0.00    +0.055 A 
BRANCH  32  34
ATOM     34  O   UNL     1       3.248  -1.197   2.789  0.00  0.00    -0.491 OA
ATOM     35  C   UNL     1       3.106  -2.069   1.667  0.00  0.00    +0.277 C 
ENDBRANCH  32  34
BRANCH  31  36
ATOM     36  O   UNL     1       3.459   0.590   4.873  0.00  0.00    -0.488 OA
ATOM     37  C   UNL     1       4.870   0.765   5.010  0.00  0.00    +0.277 C 
ENDBRANCH  31  36
BRANCH  30  38
ATOM     38  O   UNL     1       2.535   3.165   4.567  0.00  0.00    -0.491 OA
ATOM     39  C   UNL     1       2.141   4.513   4.301  0.00  0.00    +0.277 C 
ENDBRANCH  30  38
ENDBRANCH   5  28
TORSDOF 6
