REMARK  Name = ZINC05808789
REMARK  7 active torsions:
REMARK  status: ('A' for Active; 'I' for Inactive)
REMARK    1  A    between atoms: C_7  and  C_12
REMARK    2  A    between atoms: C_12  and  C_13
REMARK    3  A    between atoms: C_13  and  N_21
REMARK    4  A    between atoms: N_21  and  N_22
REMARK    5  A    between atoms: N_22  and  C_23
REMARK    6  A    between atoms: C_23  and  N_25
REMARK    7  A    between atoms: N_25  and  N_26
REMARK                            x       y       z     vdW  Elec       q    Type
REMARK                         _______ _______ _______ _____ _____    ______ ____
ROOT
ATOM      1  C   UNL     1       1.542  -4.060   0.930  0.00  0.00    +0.036 C 
ATOM      2  C   UNL     1       2.748  -4.542   1.444  0.00  0.00    +0.040 C 
ATOM      3  C   UNL     1       3.723  -3.655   1.950  0.00  0.00    +0.013 C 
ATOM      4  C   UNL     1       4.891  -4.144   2.446  0.00  0.00    +0.001 C 
ATOM      5  C   UNL     1       5.156  -5.510   2.468  0.00  0.00    +0.004 C 
ATOM      6  C   UNL     1       4.259  -6.418   1.995  0.00  0.00    +0.051 C 
ATOM      7  C   UNL     1       3.028  -5.984   1.474  0.00  0.00    +0.188 C 
ATOM      8  O   UNL     1       2.210  -6.788   1.050  0.00  0.00    -0.287 OA
ENDROOT
BRANCH   1   9
ATOM      9  N   UNL     1       0.671  -4.904   0.358  0.00  0.00    -0.268 N 
ATOM     10  H   UNL     1       0.844  -5.859   0.366  0.00  0.00    +0.170 HD
BRANCH   9  11
ATOM     11  N   UNL     1      -0.489  -4.408  -0.252  0.00  0.00    -0.247 N 
ATOM     12  H   UNL     1      -0.419  -3.773  -0.982  0.00  0.00    +0.172 HD
BRANCH  11  13
ATOM     13  C   UNL     1      -1.701  -4.813   0.175  0.00  0.00    +0.160 C 
ATOM     14  S   UNL     1      -3.119  -4.121  -0.490  0.00  0.00    -0.016 S 
BRANCH  13  15
ATOM     15  N   UNL     1      -1.798  -5.763   1.126  0.00  0.00    -0.264 N 
ATOM     16  H   UNL     1      -2.667  -6.115   1.373  0.00  0.00    +0.168 HD
BRANCH  15  17
ATOM     17  N   UNL     1      -0.671  -6.231   1.742  0.00  0.00    -0.255 NA
ATOM     18  H   UNL     1      -0.195  -5.490   2.235  0.00  0.00    +0.140 HD
ATOM     19  H   UNL     1      -0.889  -6.997   2.361  0.00  0.00    +0.140 HD
ENDBRANCH  15  17
ENDBRANCH  13  15
ENDBRANCH  11  13
ENDBRANCH   9  11
ENDBRANCH   1   9
BRANCH   1  20
ATOM     20  C   UNL     1       1.219  -2.591   1.020  0.00  0.00    +0.102 C 
BRANCH  20  27
ATOM     21  C   UNL     1      -0.092   1.555  -0.151  0.00  0.00    +0.000 A 
ATOM     22  C   UNL     1       1.061   2.312  -0.263  0.00  0.00    +0.001 A 
ATOM     23  C   UNL     1       2.291   1.696  -0.372  0.00  0.00    +0.015 A 
ATOM     24  C   UNL     1       2.370   0.302  -0.368  0.00  0.00    +0.066 A 
ATOM     25  C   UNL     1       1.199  -0.453  -0.254  0.00  0.00    +0.007 A 
ATOM     26  C   UNL     1      -0.021   0.172  -0.147  0.00  0.00    +0.008 A 
ATOM     27  C   UNL     1       1.628  -1.898  -0.282  0.00  0.00    +0.213 C 
ATOM     28  O   UNL     1       3.052  -1.903  -0.413  0.00  0.00    -0.453 OA
ATOM     29  C   UNL     1       3.501  -0.638  -0.465  0.00  0.00    +0.340 C 
ATOM     30  O   UNL     1       4.667  -0.317  -0.575  0.00  0.00    -0.245 OA
ENDBRANCH  20  27
ENDBRANCH   1  20
TORSDOF 7
