REMARK  Name = ZINC35175104
REMARK  10 active torsions:
REMARK  status: ('A' for Active; 'I' for Inactive)
REMARK    1  A    between atoms: C_1  and  C_2
REMARK    2  A    between atoms: C_9  and  C_18
REMARK    3  A    between atoms: C_10  and  N_11
REMARK    4  A    between atoms: N_11  and  C_12
REMARK    5  A    between atoms: C_21  and  O_26
REMARK    6  A    between atoms: C_22  and  O_24
REMARK    7  A    between atoms: O_24  and  C_25
REMARK    8  A    between atoms: O_26  and  C_27
REMARK    9  A    between atoms: C_27  and  C_29
REMARK   10  A    between atoms: C_33  and  N_35
REMARK                            x       y       z     vdW  Elec       q    Type
REMARK                         _______ _______ _______ _____ _____    ______ ____
ROOT
ATOM      1  C   UNL     1       0.667  -5.531   2.470  0.00  0.00    +0.005 A 
ATOM      2  C   UNL     1       1.697  -6.372   2.023  0.00  0.00    +0.014 A 
ATOM      3  C   UNL     1       1.877  -7.599   2.596  0.00  0.00    +0.051 A 
ATOM      4  C   UNL     1       1.042  -8.022   3.625  0.00  0.00    +0.173 A 
ATOM      5  C   UNL     1       0.012  -7.194   4.080  0.00  0.00    +0.163 A 
ATOM      6  C   UNL     1      -0.173  -5.951   3.511  0.00  0.00    +0.059 A 
ENDROOT
BRANCH   1  15
ATOM      7  C   UNL     1      -0.451   1.619   0.915  0.00  0.00    +0.044 C 
ATOM      8  C   UNL     1      -0.200   0.148   0.708  0.00  0.00    -0.046 A 
ATOM      9  C   UNL     1      -0.067  -0.367  -0.577  0.00  0.00    +0.021 A 
ATOM     10  C   UNL     1       0.159  -1.701  -0.753  0.00  0.00    +0.094 A 
ATOM     11  N   UNL     1       0.256  -2.538   0.317  0.00  0.00    -0.289 N 
ATOM     12  C   UNL     1       0.130  -2.066   1.595  0.00  0.00    +0.117 A 
ATOM     13  C   UNL     1      -0.095  -0.708   1.804  0.00  0.00    +0.048 A 
ATOM     14  N   UNL     1       0.263  -3.076   2.479  0.00  0.00    -0.338 N 
ATOM     15  C   UNL     1       0.473  -4.210   1.853  0.00  0.00    +0.087 A 
ATOM     16  C   UNL     1       0.477  -3.900   0.397  0.00  0.00    +0.129 A 
ATOM     17  H   UNL     1       0.210  -2.978   3.443  0.00  0.00    +0.167 HD
BRANCH  16  18
ATOM     18  N   UNL     1       0.655  -4.751  -0.610  0.00  0.00    -0.326 N 
ATOM     19  H   UNL     1       0.713  -5.703  -0.435  0.00  0.00    +0.148 HD
BRANCH  18  20
ATOM     20  C   UNL     1       0.762  -4.249  -1.982  0.00  0.00    +0.072 C 
ATOM     21  C   UNL     1      -0.639  -4.025  -2.554  0.00  0.00    +0.022 C 
ATOM     22  C   UNL     1      -0.526  -3.501  -3.988  0.00  0.00    +0.002 C 
ATOM     23  C   UNL     1       0.218  -4.524  -4.848  0.00  0.00    +0.000 C 
ATOM     24  C   UNL     1       1.619  -4.749  -4.275  0.00  0.00    +0.002 C 
ATOM     25  C   UNL     1       1.507  -5.272  -2.842  0.00  0.00    +0.022 C 
ENDBRANCH  18  20
ENDBRANCH  16  18
ENDBRANCH   1  15
BRANCH   5  26
ATOM     26  O   UNL     1      -0.802  -7.612   5.085  0.00  0.00    -0.491 OA
ATOM     27  C   UNL     1      -1.834  -6.713   5.500  0.00  0.00    +0.277 C 
ENDBRANCH   5  26
BRANCH   4  28
ATOM     28  O   UNL     1       1.228  -9.243   4.188  0.00  0.00    -0.419 OA
BRANCH  28  29
ATOM     29  C   UNL     1       0.414 -10.246   3.808  0.00  0.00    +0.345 C 
ATOM     30  O   UNL     1      -0.506 -10.026   3.045  0.00  0.00    -0.245 OA
BRANCH  29  31
ATOM     31  C   UNL     1       0.639 -11.614   4.317  0.00  0.00    +0.062 A 
ATOM     32  C   UNL     1       1.691 -11.870   5.198  0.00  0.00    +0.015 A 
ATOM     33  C   UNL     1       1.896 -13.150   5.670  0.00  0.00    +0.003 A 
ATOM     34  C   UNL     1       1.060 -14.179   5.273  0.00  0.00    +0.033 A 
ATOM     35  C   UNL     1       0.016 -13.933   4.400  0.00  0.00    +0.127 A 
ATOM     36  C   UNL     1      -0.204 -12.656   3.925  0.00  0.00    +0.047 A 
BRANCH  35  37
ATOM     37  N   UNL     1      -0.872 -15.040   3.979  0.00  0.00    +0.056 N 
ATOM     38  O   UNL     1      -0.667 -16.258   4.437  0.00  0.00    -0.126 OA
ATOM     39  O   UNL     1      -1.867 -14.807   3.148  0.00  0.00    -0.126 OA
ENDBRANCH  35  37
ENDBRANCH  29  31
ENDBRANCH  28  29
ENDBRANCH   4  28
TORSDOF 8
