REMARK  Name = ZINC36527390
REMARK  13 active torsions:
REMARK  status: ('A' for Active; 'I' for Inactive)
REMARK    1  A    between atoms: C_1  and  C_2
REMARK    2  A    between atoms: C_2  and  C_3
REMARK    3  A    between atoms: C_3  and  C_5
REMARK    4  A    between atoms: C_3  and  C_11
REMARK    5  A    between atoms: N_13  and  C_14
REMARK    6  A    between atoms: N_13  and  C_15
REMARK    7  A    between atoms: C_15  and  C_17
REMARK    8  A    between atoms: C_15  and  C_24
REMARK    9  A    between atoms: C_22  and  O_23
REMARK   10  A    between atoms: N_26  and  C_27
REMARK   11  A    between atoms: C_27  and  S_28
REMARK   12  A    between atoms: S_28  and  C_31
REMARK   13  A    between atoms: C_34  and  C_37
REMARK                            x       y       z     vdW  Elec       q    Type
REMARK                         _______ _______ _______ _____ _____    ______ ____
ROOT
ATOM      1  C   UNL     1      -0.816  -3.850  -1.248  0.00  0.00    +0.195 C 
ENDROOT
BRANCH   1   2
ATOM      2  C   UNL     1      -1.413  -4.389  -2.522  0.00  0.00    +0.023 A 
ATOM      3  C   UNL     1      -2.523  -3.782  -3.077  0.00  0.00    +0.009 A 
ATOM      4  C   UNL     1      -3.072  -4.277  -4.245  0.00  0.00    +0.001 A 
ATOM      5  C   UNL     1      -2.510  -5.380  -4.862  0.00  0.00    +0.004 A 
ATOM      6  C   UNL     1      -1.400  -5.990  -4.312  0.00  0.00    +0.046 A 
ATOM      7  C   UNL     1      -0.845  -5.492  -3.143  0.00  0.00    +0.122 A 
BRANCH   7   8
ATOM      8  O   UNL     1       0.251  -6.087  -2.602  0.00  0.00    -0.506 OA
ATOM      9  H   UNL     1       0.049  -6.843  -2.034  0.00  0.00    +0.292 HD
ENDBRANCH   7   8
ENDBRANCH   1   2
BRANCH   1  12
ATOM     10  C   UNL     1       0.555  -1.838  -1.354  0.00  0.00    +0.224 C 
ATOM     11  O   UNL     1       0.672  -0.631  -1.364  0.00  0.00    -0.275 OA
ATOM     12  N   UNL     1      -0.672  -2.396  -1.354  0.00  0.00    -0.288 N 
ATOM     13  C   UNL     1      -1.862  -1.548  -1.458  0.00  0.00    +0.133 C 
BRANCH  10  14
ATOM     14  C   UNL     1       1.781  -2.714  -1.343  0.00  0.00    +0.105 C 
BRANCH  14  15
ATOM     15  C   UNL     1       2.993  -1.878  -1.020  0.00  0.00    -0.036 A 
ATOM     16  C   UNL     1       3.340  -0.820  -1.839  0.00  0.00    +0.004 A 
ATOM     17  C   UNL     1       4.452  -0.054  -1.544  0.00  0.00    +0.000 A 
ATOM     18  C   UNL     1       5.216  -0.345  -0.429  0.00  0.00    +0.000 A 
ATOM     19  C   UNL     1       4.867  -1.402   0.391  0.00  0.00    +0.000 A 
ATOM     20  C   UNL     1       3.753  -2.166   0.097  0.00  0.00    +0.004 A 
ENDBRANCH  14  15
BRANCH  14  22
ATOM     21  C   UNL     1       3.136  -4.337  -2.674  0.00  0.00    +0.005 C 
ATOM     22  C   UNL     1       1.958  -3.361  -2.718  0.00  0.00    +0.014 C 
ENDBRANCH  14  22
ENDBRANCH  10  14
ENDBRANCH   1  12
BRANCH   1  23
ATOM     23  C   UNL     1      -1.720  -4.182  -0.089  0.00  0.00    +0.239 C 
ATOM     24  O   UNL     1      -2.292  -3.295   0.508  0.00  0.00    -0.273 OA
ATOM     25  N   UNL     1      -1.893  -5.466   0.283  0.00  0.00    -0.294 N 
ATOM     26  H   UNL     1      -1.381  -6.169  -0.146  0.00  0.00    +0.150 HD
BRANCH  25  27
ATOM     27  C   UNL     1      -2.854  -5.799   1.337  0.00  0.00    +0.278 C 
BRANCH  27  28
ATOM     28  S   UNL     1      -4.441  -6.257   0.586  0.00  0.00    +0.013 S 
ATOM     29  O   UNL     1      -5.366  -6.644   1.593  0.00  0.00    -0.168 OA
ATOM     30  O   UNL     1      -4.805  -5.306  -0.405  0.00  0.00    -0.168 OA
BRANCH  28  31
ATOM     31  C   UNL     1      -4.107  -7.736  -0.311  0.00  0.00    +0.090 A 
ATOM     32  C   UNL     1      -3.699  -7.668  -1.630  0.00  0.00    +0.027 A 
ATOM     33  C   UNL     1      -3.437  -8.829  -2.333  0.00  0.00    +0.005 A 
ATOM     34  C   UNL     1      -3.583 -10.058  -1.718  0.00  0.00    -0.050 A 
ATOM     35  C   UNL     1      -3.990 -10.126  -0.399  0.00  0.00    +0.005 A 
ATOM     36  C   UNL     1      -4.248  -8.965   0.306  0.00  0.00    +0.027 A 
ATOM     37  C   UNL     1      -3.299 -11.323  -2.486  0.00  0.00    +0.044 C 
ENDBRANCH  28  31
ENDBRANCH  27  28
ENDBRANCH  25  27
ENDBRANCH   1  23
TORSDOF 10
