REMARK  Name = ZINC63281219
REMARK  9 active torsions:
REMARK  status: ('A' for Active; 'I' for Inactive)
REMARK    1  A    between atoms: C_1  and  O_2
REMARK    2  A    between atoms: O_2  and  C_3
REMARK    3  A    between atoms: C_9  and  C_12
REMARK    4  A    between atoms: C_12  and  C_13
REMARK    5  A    between atoms: C_13  and  N_14
REMARK    6  A    between atoms: N_14  and  C_15
REMARK    7  A    between atoms: N_25  and  C_28
REMARK    8  A    between atoms: C_33  and  O_34
REMARK    9  A    between atoms: O_34  and  C_35
REMARK                            x       y       z     vdW  Elec       q    Type
REMARK                         _______ _______ _______ _____ _____    ______ ____
ROOT
ATOM      1  C   UNL     1      -0.405  -7.394   2.603  0.00  0.00    +0.081 C 
ATOM      2  C   UNL     1       0.373  -8.530   2.588  0.00  0.00    +0.059 C 
ATOM      3  C   UNL     1       0.675  -9.261   3.836  0.00  0.00    +0.000 A 
ATOM      4  C   UNL     1       0.190  -8.838   5.068  0.00  0.00    +0.009 A 
ATOM      5  C   UNL     1       0.499  -9.556   6.205  0.00  0.00    +0.001 A 
ATOM      6  C   UNL     1       1.289 -10.694   6.127  0.00  0.00    +0.001 A 
ATOM      7  C   UNL     1       1.779 -11.129   4.915  0.00  0.00    +0.014 A 
ATOM      8  C   UNL     1       1.478 -10.418   3.753  0.00  0.00    +0.046 A 
ATOM      9  C   UNL     1       1.979 -10.847   2.441  0.00  0.00    +0.258 C 
ATOM     10  O   UNL     1       2.672 -11.844   2.363  0.00  0.00    -0.269 OA
ATOM     11  N   UNL     1       1.685 -10.158   1.326  0.00  0.00    -0.199 N 
ATOM     12  C   UNL     1       0.922  -9.053   1.332  0.00  0.00    +0.259 C 
ATOM     13  O   UNL     1       0.688  -8.477   0.286  0.00  0.00    -0.269 OA
ENDROOT
BRANCH  11  14
ATOM     14  C   UNL     1       2.192 -10.617   0.102  0.00  0.00    +0.086 A 
ATOM     15  C   UNL     1       1.458 -11.511  -0.664  0.00  0.00    +0.027 A 
ATOM     16  C   UNL     1       1.959 -11.961  -1.871  0.00  0.00    +0.002 A 
ATOM     17  C   UNL     1       3.192 -11.522  -2.318  0.00  0.00    +0.004 A 
ATOM     18  C   UNL     1       3.929 -10.631  -1.560  0.00  0.00    +0.047 A 
ATOM     19  C   UNL     1       3.431 -10.171  -0.352  0.00  0.00    +0.142 A 
BRANCH  19  20
ATOM     20  O   UNL     1       4.153  -9.290   0.391  0.00  0.00    -0.493 OA
ATOM     21  C   UNL     1       5.415  -8.877  -0.136  0.00  0.00    +0.277 C 
ENDBRANCH  19  20
ENDBRANCH  11  14
BRANCH   1  22
ATOM     22  N   UNL     1      -0.825  -6.843   1.434  0.00  0.00    -0.349 N 
ATOM     23  H   UNL     1      -0.647  -7.293   0.594  0.00  0.00    +0.146 HD
BRANCH  22  24
ATOM     24  C   UNL     1      -1.547  -5.568   1.442  0.00  0.00    +0.105 C 
BRANCH  24  25
ATOM     25  C   UNL     1      -1.902  -5.173   0.008  0.00  0.00    +0.052 C 
BRANCH  25  32
ATOM     26  C   UNL     1      -0.520  -0.828  -0.539  0.00  0.00    +0.121 A 
ATOM     27  C   UNL     1      -1.550   0.126  -0.460  0.00  0.00    +0.047 A 
ATOM     28  C   UNL     1      -2.839  -0.212  -0.240  0.00  0.00    +0.029 A 
ATOM     29  C   UNL     1      -3.203  -1.623  -0.076  0.00  0.00    +0.043 A 
ATOM     30  N   UNL     1      -4.353  -2.211   0.143  0.00  0.00    -0.380 N 
ATOM     31  C   UNL     1      -4.129  -3.659   0.223  0.00  0.00    +0.144 C 
ATOM     32  C   UNL     1      -2.645  -3.862   0.017  0.00  0.00    -0.040 C 
ATOM     33  C   UNL     1      -2.119  -2.629  -0.159  0.00  0.00    +0.002 A 
ATOM     34  C   UNL     1      -0.752  -2.155  -0.406  0.00  0.00    +0.055 A 
ATOM     35  H   UNL     1      -5.208  -1.764   0.237  0.00  0.00    +0.160 HD
BRANCH  26  37
ATOM     36  C   UNL     1       0.951   1.006  -0.897  0.00  0.00    +0.277 C 
ATOM     37  O   UNL     1       0.752  -0.403  -0.763  0.00  0.00    -0.495 OA
ENDBRANCH  26  37
ENDBRANCH  25  32
ENDBRANCH  24  25
ENDBRANCH  22  24
ENDBRANCH   1  22
TORSDOF 7
