REMARK  Name = ZINC35760639
REMARK  11 active torsions:
REMARK  status: ('A' for Active; 'I' for Inactive)
REMARK    1  A    between atoms: C_1  and  C_2
REMARK    2  A    between atoms: C_2  and  C_3
REMARK    3  A    between atoms: C_3  and  C_5
REMARK    4  A    between atoms: C_3  and  C_6
REMARK    5  A    between atoms: C_6  and  N_7
REMARK    6  A    between atoms: C_8  and  C_10
REMARK    7  A    between atoms: C_10  and  N_11
REMARK    8  A    between atoms: N_13  and  C_33
REMARK    9  A    between atoms: N_24  and  C_25
REMARK   10  A    between atoms: C_26  and  C_32
REMARK   11  A    between atoms: C_30  and  C_31
REMARK                            x       y       z     vdW  Elec       q    Type
REMARK                         _______ _______ _______ _____ _____    ______ ____
ROOT
ATOM      1  N   UNL     1       2.707  -5.456  -4.174  0.00  0.00    -0.275 N 
ATOM      2  C   UNL     1       3.220  -6.163  -3.001  0.00  0.00    +0.217 C 
ATOM      3  N   UNL     1       2.852  -7.579  -3.126  0.00  0.00    -0.300 N 
ATOM      4  C   UNL     1       2.115  -7.692  -4.391  0.00  0.00    +0.115 C 
ATOM      5  C   UNL     1       2.063  -6.309  -4.987  0.00  0.00    +0.241 C 
ATOM      6  O   UNL     1       1.527  -6.014  -6.034  0.00  0.00    -0.273 OA
ATOM      7  C   UNL     1       0.697  -8.197  -4.125  0.00  0.00    +0.054 C 
ATOM      8  C   UNL     1       0.766  -9.578  -3.466  0.00  0.00    +0.112 C 
ATOM      9  N   UNL     1       1.580 -10.464  -4.309  0.00  0.00    -0.285 N 
ATOM     10  C   UNL     1       2.933 -10.033  -4.687  0.00  0.00    +0.112 C 
ATOM     11  C   UNL     1       2.846  -8.648  -5.335  0.00  0.00    +0.054 C 
ATOM     12  C   UNL     1       1.096 -11.650  -4.726  0.00  0.00    +0.306 C 
ATOM     13  O   UNL     1      -0.055 -11.956  -4.484  0.00  0.00    -0.252 OA
ATOM     14  N   UNL     1       1.888 -12.497  -5.414  0.00  0.00    -0.269 N 
ATOM     15  H   UNL     1       2.777 -12.219  -5.684  0.00  0.00    +0.156 HD
ENDROOT
BRANCH  14  16
ATOM     16  C   UNL     1       1.428 -13.779  -5.737  0.00  0.00    +0.041 A 
ATOM     17  C   UNL     1       1.610 -14.281  -7.019  0.00  0.00    -0.029 A 
ATOM     18  C   UNL     1       1.155 -15.546  -7.334  0.00  0.00    +0.005 A 
ATOM     19  C   UNL     1       0.519 -16.313  -6.375  0.00  0.00    +0.001 A 
ATOM     20  C   UNL     1       0.336 -15.816  -5.098  0.00  0.00    +0.005 A 
ATOM     21  C   UNL     1       0.794 -14.554  -4.774  0.00  0.00    -0.029 A 
ATOM     22  C   UNL     1       0.600 -14.015  -3.380  0.00  0.00    +0.045 C 
ATOM     23  C   UNL     1       2.302 -13.445  -8.065  0.00  0.00    +0.045 C 
ENDBRANCH  14  16
BRANCH   3  24
ATOM     24  C   UNL     1       3.143  -8.607  -2.227  0.00  0.00    +0.032 A 
ATOM     25  C   UNL     1       3.919  -8.351  -1.104  0.00  0.00    +0.023 A 
ATOM     26  C   UNL     1       4.204  -9.370  -0.216  0.00  0.00    +0.002 A 
ATOM     27  C   UNL     1       3.719 -10.645  -0.445  0.00  0.00    +0.000 A 
ATOM     28  C   UNL     1       2.945 -10.903  -1.562  0.00  0.00    +0.002 A 
ATOM     29  C   UNL     1       2.651  -9.887  -2.450  0.00  0.00    +0.023 A 
ENDBRANCH   3  24
BRANCH   1  30
ATOM     30  C   UNL     1       2.868  -4.021  -4.423  0.00  0.00    +0.205 C 
BRANCH  30  32
ATOM     31  N   UNL     1       1.644  -1.931  -3.922  0.00  0.00    -0.314 N 
ATOM     32  C   UNL     1       1.709  -3.273  -3.817  0.00  0.00    +0.230 C 
ATOM     33  O   UNL     1       0.835  -3.879  -3.233  0.00  0.00    -0.274 OA
ATOM     34  H   UNL     1       2.343  -1.447  -4.388  0.00  0.00    +0.149 HD
BRANCH  31  35
ATOM     35  C   UNL     1       0.517  -1.204  -3.332  0.00  0.00    +0.107 C 
BRANCH  35  36
ATOM     36  C   UNL     1       0.685   0.295  -3.593  0.00  0.00    +0.003 C 
ATOM     37  C   UNL     1       0.598   0.564  -5.096  0.00  0.00    +0.009 C 
BRANCH  36  39
ATOM     38  C   UNL     1      -0.185   2.568  -3.029  0.00  0.00    +0.004 C 
ATOM     39  C   UNL     1      -0.423   1.065  -2.872  0.00  0.00    +0.001 C 
ENDBRANCH  36  39
ENDBRANCH  35  36
ENDBRANCH  31  35
ENDBRANCH  30  32
ENDBRANCH   1  30
TORSDOF 7
