REMARK  Name = ZINC20555939
REMARK  5 active torsions:
REMARK  status: ('A' for Active; 'I' for Inactive)
REMARK    1  A    between atoms: N_10  and  C_13
REMARK    2  A    between atoms: C_13  and  C_14
REMARK    3  A    between atoms: C_22  and  C_24
REMARK    4  A    between atoms: C_24  and  C_25
REMARK    5  A    between atoms: N_27  and  C_28
REMARK                            x       y       z     vdW  Elec       q    Type
REMARK                         _______ _______ _______ _____ _____    ______ ____
ROOT
ATOM      1  C   UNL     1      -0.245  -6.122  -1.327  0.00  0.00    +0.230 C 
ATOM      2  O   UNL     1      -0.909  -6.160  -0.312  0.00  0.00    -0.274 OA
ATOM      3  N   UNL     1      -0.291  -7.147  -2.201  0.00  0.00    -0.287 N 
ATOM      4  C   UNL     1       0.576  -7.179  -3.391  0.00  0.00    +0.127 C 
ATOM      5  C   UNL     1       1.478  -8.411  -3.290  0.00  0.00    +0.123 C 
ATOM      6  N   UNL     1       0.704  -9.589  -2.924  0.00  0.00    -0.312 N 
ATOM      7  C   UNL     1      -0.480  -9.557  -2.312  0.00  0.00    +0.234 C 
ATOM      8  O   UNL     1      -0.992 -10.607  -1.987  0.00  0.00    -0.274 OA
ATOM      9  C   UNL     1      -1.206  -8.281  -2.003  0.00  0.00    +0.171 C 
ATOM     10  H   UNL     1       1.076 -10.458  -3.141  0.00  0.00    +0.149 HD
ENDROOT
BRANCH   1  11
ATOM     11  C   UNL     1       0.631  -4.929  -1.610  0.00  0.00    +0.180 C 
BRANCH  11  21
ATOM     12  C   UNL     1      -1.761   1.595   1.212  0.00  0.00    +0.005 A 
ATOM     13  C   UNL     1      -0.685   2.464   1.339  0.00  0.00    +0.018 A 
ATOM     14  C   UNL     1       0.599   1.962   1.283  0.00  0.00    +0.084 A 
ATOM     15  N   UNL     1       0.815   0.672   1.111  0.00  0.00    -0.350 N 
ATOM     16  C   UNL     1      -0.183  -0.188   0.985  0.00  0.00    +0.099 A 
ATOM     17  C   UNL     1      -1.504   0.248   1.033  0.00  0.00    +0.042 A 
ATOM     18  N   UNL     1       0.090  -1.539   0.805  0.00  0.00    -0.314 N 
ATOM     19  C   UNL     1       1.470  -2.012   0.616  0.00  0.00    +0.122 C 
ATOM     20  C   UNL     1       1.515  -2.897  -0.634  0.00  0.00    +0.104 C 
ATOM     21  N   UNL     1       0.506  -3.958  -0.515  0.00  0.00    -0.291 NA
ATOM     22  C   UNL     1      -0.852  -3.399  -0.460  0.00  0.00    +0.104 C 
ATOM     23  C   UNL     1      -0.993  -2.535   0.803  0.00  0.00    +0.122 C 
ATOM     24  H   UNL     1       1.728   0.346   1.075  0.00  0.00    +0.166 HD
ENDBRANCH  11  21
ENDBRANCH   1  11
BRANCH   9  25
ATOM     25  C   UNL     1      -1.686  -8.304  -0.550  0.00  0.00    +0.128 C 
BRANCH  25  26
ATOM     26  C   UNL     1      -0.498  -8.426   0.369  0.00  0.00    +0.219 C 
ATOM     27  O   UNL     1       0.612  -8.589  -0.092  0.00  0.00    -0.275 OA
ATOM     28  N   UNL     1      -0.669  -8.354   1.704  0.00  0.00    -0.285 N 
ATOM     29  H   UNL     1      -1.563  -8.296   2.076  0.00  0.00    +0.155 HD
BRANCH  28  30
ATOM     30  C   UNL     1       0.444  -8.361   2.554  0.00  0.00    +0.034 A 
ATOM     31  C   UNL     1       0.431  -7.614   3.724  0.00  0.00    +0.026 A 
ATOM     32  C   UNL     1       1.530  -7.623   4.561  0.00  0.00    +0.040 A 
ATOM     33  C   UNL     1       2.644  -8.376   4.233  0.00  0.00    +0.124 A 
ATOM     34  C   UNL     1       2.660  -9.122   3.066  0.00  0.00    +0.040 A 
ATOM     35  C   UNL     1       1.561  -9.120   2.230  0.00  0.00    +0.026 A 
ATOM     36  F   UNL     1       3.719  -8.383   5.052  0.00  0.00    -0.205 F 
ENDBRANCH  28  30
ENDBRANCH  25  26
ENDBRANCH   9  25
TORSDOF 5
