REMARK  Name = ZINC59212627
REMARK  8 active torsions:
REMARK  status: ('A' for Active; 'I' for Inactive)
REMARK    1  A    between atoms: C_1  and  C_2
REMARK    2  A    between atoms: C_2  and  C_3
REMARK    3  A    between atoms: C_2  and  C_4
REMARK    4  A    between atoms: C_2  and  C_5
REMARK    5  A    between atoms: C_11  and  C_13
REMARK    6  A    between atoms: C_13  and  S_14
REMARK    7  A    between atoms: S_14  and  C_15
REMARK    8  A    between atoms: C_18  and  C_20
REMARK                            x       y       z     vdW  Elec       q    Type
REMARK                         _______ _______ _______ _____ _____    ______ ____
ROOT
ATOM      1  C   UNL     1       0.328  -2.944  -6.753  0.00  0.00    +0.175 C 
ENDROOT
BRANCH   1   8
ATOM      2  C   UNL     1       0.707  -0.490  -1.238  0.00  0.00    +0.056 A 
ATOM      3  C   UNL     1       2.057  -0.430  -1.354  0.00  0.00    +0.072 A 
ATOM      4  S   UNL     1       2.282  -1.127  -2.983  0.00  0.00    -0.060 S 
ATOM      5  C   UNL     1       0.662  -1.416  -3.337  0.00  0.00    +0.165 A 
ATOM      6  N   UNL     1       0.039  -0.999  -2.257  0.00  0.00    -0.229 NA
ATOM      7  N   UNL     1       0.116  -1.968  -4.490  0.00  0.00    -0.264 N 
ATOM      8  C   UNL     1       0.920  -2.346  -5.503  0.00  0.00    +0.229 C 
ATOM      9  O   UNL     1       2.121  -2.206  -5.409  0.00  0.00    -0.275 OA
ATOM     10  H   UNL     1      -0.845  -2.080  -4.566  0.00  0.00    +0.157 HD
BRANCH   2  12
ATOM     11  C   UNL     1      -0.019   1.526   0.010  0.00  0.00    +0.017 C 
ATOM     12  C   UNL     1       0.002  -0.004   0.002  0.00  0.00    +0.005 C 
ATOM     13  C   UNL     1       0.742  -0.511   1.242  0.00  0.00    +0.017 C 
ATOM     14  C   UNL     1      -1.433  -0.534   0.013  0.00  0.00    +0.017 C 
ENDBRANCH   2  12
ENDBRANCH   1   8
BRANCH   1  15
ATOM     15  S   UNL     1       1.657  -3.347  -7.920  0.00  0.00    -0.056 S 
BRANCH  15  16
ATOM     16  C   UNL     1       0.814  -4.027  -9.309  0.00  0.00    +0.278 A 
ATOM     17  N   UNL     1      -0.484  -4.181  -9.431  0.00  0.00    -0.101 NA
ATOM     18  N   UNL     1      -0.748  -4.707 -10.575  0.00  0.00    -0.106 NA
ATOM     19  C   UNL     1       0.370  -4.910 -11.229  0.00  0.00    +0.252 A 
ATOM     20  O   UNL     1       1.382  -4.479 -10.444  0.00  0.00    -0.411 OA
BRANCH  19  21
ATOM     21  C   UNL     1       0.499  -5.497 -12.578  0.00  0.00    +0.074 A 
ATOM     22  C   UNL     1       1.761  -5.662 -13.154  0.00  0.00    +0.016 A 
ATOM     23  C   UNL     1       1.875  -6.210 -14.414  0.00  0.00    +0.001 A 
ATOM     24  C   UNL     1       0.743  -6.599 -15.109  0.00  0.00    +0.003 A 
ATOM     25  C   UNL     1      -0.511  -6.439 -14.547  0.00  0.00    +0.039 A 
ATOM     26  C   UNL     1      -0.640  -5.896 -13.283  0.00  0.00    +0.136 A 
ATOM     27  F   UNL     1      -1.865  -5.747 -12.732  0.00  0.00    -0.205 F 
ENDBRANCH  19  21
ENDBRANCH  15  16
ENDBRANCH   1  15
TORSDOF 5
