REMARK  Name = ZINC20357444
REMARK  17 active torsions:
REMARK  status: ('A' for Active; 'I' for Inactive)
REMARK    1  A    between atoms: C_1  and  C_2
REMARK    2  A    between atoms: C_2  and  N_3
REMARK    3  A    between atoms: N_3  and  C_4
REMARK    4  A    between atoms: N_3  and  C_6
REMARK    5  A    between atoms: C_4  and  C_5
REMARK    6  A    between atoms: C_6  and  C_7
REMARK    7  A    between atoms: C_7  and  N_8
REMARK    8  A    between atoms: C_9  and  C_29
REMARK    9  A    between atoms: C_11  and  C_16
REMARK   10  A    between atoms: C_16  and  C_18
REMARK   11  A    between atoms: C_25  and  C_28
REMARK   12  A    between atoms: C_33  and  O_35
REMARK   13  A    between atoms: O_35  and  C_36
REMARK   14  A    between atoms: C_36  and  C_37
REMARK   15  A    between atoms: C_37  and  C_38
REMARK   16  A    between atoms: C_38  and  C_39
REMARK   17  A    between atoms: C_38  and  C_40
REMARK                            x       y       z     vdW  Elec       q    Type
REMARK                         _______ _______ _______ _____ _____    ______ ____
ROOT
ATOM      1  N   UNL     1      -1.998  -2.720  -0.144  0.00  0.00    -0.285 N 
ATOM      2  C   UNL     1      -1.442  -1.363  -0.071  0.00  0.00    +0.145 C 
ATOM      3  C   UNL     1      -2.625  -0.423  -0.059  0.00  0.00    +0.076 C 
ATOM      4  C   UNL     1      -3.736  -1.193  -0.129  0.00  0.00    +0.249 C 
ATOM      5  C   UNL     1      -3.338  -2.616  -0.181  0.00  0.00    +0.288 C 
ATOM      6  O   UNL     1      -4.109  -3.553  -0.248  0.00  0.00    -0.266 OA
ATOM      7  O   UNL     1      -5.008  -0.734  -0.147  0.00  0.00    -0.282 OA
ENDROOT
BRANCH   2   8
ATOM      8  C   UNL     1      -0.640  -1.202   1.195  0.00  0.00    -0.019 A 
ATOM      9  C   UNL     1      -1.034  -1.853   2.349  0.00  0.00    +0.006 A 
ATOM     10  C   UNL     1      -0.300  -1.708   3.512  0.00  0.00    +0.004 A 
ATOM     11  C   UNL     1       0.828  -0.911   3.523  0.00  0.00    +0.045 A 
ATOM     12  C   UNL     1       1.226  -0.257   2.366  0.00  0.00    +0.121 A 
ATOM     13  C   UNL     1       0.491  -0.409   1.199  0.00  0.00    +0.051 A 
BRANCH  12  14
ATOM     14  O   UNL     1       2.336   0.527   2.374  0.00  0.00    -0.492 OA
BRANCH  14  15
ATOM     15  C   UNL     1       3.046   0.632   3.609  0.00  0.00    +0.229 C 
BRANCH  15  16
ATOM     16  C   UNL     1       4.257   1.549   3.424  0.00  0.00    +0.044 C 
BRANCH  16  17
ATOM     17  C   UNL     1       5.018   1.663   4.747  0.00  0.00    -0.014 C 
ATOM     18  C   UNL     1       6.295   2.477   4.533  0.00  0.00    +0.007 C 
ATOM     19  C   UNL     1       4.136   2.361   5.784  0.00  0.00    +0.007 C 
ENDBRANCH  16  17
ENDBRANCH  15  16
ENDBRANCH  14  15
ENDBRANCH  12  14
ENDBRANCH   2   8
BRANCH   3  20
ATOM     20  C   UNL     1      -2.579   1.041   0.008  0.00  0.00    +0.195 C 
ATOM     21  O   UNL     1      -3.001   1.618   0.993  0.00  0.00    -0.287 OA
BRANCH  20  22
ATOM     22  C   UNL     1      -2.021   1.814  -1.119  0.00  0.00    +0.023 A 
ATOM     23  C   UNL     1      -1.461   1.155  -2.218  0.00  0.00    +0.015 A 
ATOM     24  C   UNL     1      -0.950   1.876  -3.269  0.00  0.00    +0.046 A 
ATOM     25  C   UNL     1      -0.977   3.272  -3.249  0.00  0.00    +0.124 A 
ATOM     26  C   UNL     1      -1.525   3.923  -2.148  0.00  0.00    -0.002 A 
ATOM     27  C   UNL     1      -2.042   3.213  -1.093  0.00  0.00    +0.019 A 
ATOM     28  C   UNL     1      -1.401   5.413  -2.406  0.00  0.00    +0.083 C 
ATOM     29  C   UNL     1      -0.375   5.451  -3.563  0.00  0.00    +0.175 C 
ATOM     30  O   UNL     1      -0.540   4.163  -4.179  0.00  0.00    -0.488 OA
ATOM     31  C   UNL     1      -0.712   6.571  -4.549  0.00  0.00    +0.052 C 
ENDBRANCH  20  22
ENDBRANCH   3  20
BRANCH   1  32
ATOM     32  C   UNL     1      -1.228  -3.966  -0.178  0.00  0.00    +0.090 C 
BRANCH  32  33
ATOM     33  C   UNL     1      -0.916  -4.334  -1.629  0.00  0.00    -0.060 C 
BRANCH  33  34
ATOM     34  N   UNL     1      -0.144  -5.583  -1.663  0.00  0.00    +0.380 N 
ATOM     35  H   UNL     1       0.715  -5.468  -0.985  0.00  0.00    -0.082 HD
BRANCH  34  37
ATOM     36  C   UNL     1      -2.121  -6.947  -2.137  0.00  0.00    -0.017 C 
ATOM     37  C   UNL     1      -0.950  -6.713  -1.181  0.00  0.00    -0.082 C 
ENDBRANCH  34  37
BRANCH  34  38
ATOM     38  C   UNL     1       0.377  -5.845  -3.011  0.00  0.00    -0.082 C 
ATOM     39  C   UNL     1       1.464  -6.919  -2.939  0.00  0.00    -0.017 C 
ENDBRANCH  34  38
ENDBRANCH  33  34
ENDBRANCH  32  33
ENDBRANCH   1  32
TORSDOF 12
