REMARK  Name = ZINC09958881
REMARK  9 active torsions:
REMARK  status: ('A' for Active; 'I' for Inactive)
REMARK    1  A    between atoms: C_1  and  N_45
REMARK    2  A    between atoms: C_2  and  C_3
REMARK    3  A    between atoms: C_2  and  N_45
REMARK    4  A    between atoms: C_6  and  S_9
REMARK    5  A    between atoms: S_9  and  C_10
REMARK    6  A    between atoms: C_11  and  C_12
REMARK    7  A    between atoms: C_11  and  N_45
REMARK    8  A    between atoms: C_14  and  C_17
REMARK    9  A    between atoms: C_21  and  C_23
REMARK                            x       y       z     vdW  Elec       q    Type
REMARK                         _______ _______ _______ _____ _____    ______ ____
ROOT
ATOM      1  C   UNL     1      -0.720   7.346   0.048  0.00  0.00    +0.211 A 
ATOM      2  N   UNL     1      -1.169   6.116   0.039  0.00  0.00    -0.193 NA
ATOM      3  C   UNL     1      -0.070   5.328   0.030  0.00  0.00    +0.202 A 
ATOM      4  N   UNL     1       0.971   6.119   0.025  0.00  0.00    -0.056 NA
ATOM      5  O   UNL     1       0.615   7.278   0.034  0.00  0.00    -0.340 OA
ENDROOT
BRANCH   3   6
ATOM      6  C   UNL     1      -0.050   3.844   0.022  0.00  0.00    +0.023 A 
ATOM      7  C   UNL     1      -1.246   3.128   0.030  0.00  0.00    +0.012 A 
ATOM      8  C   UNL     1      -1.221   1.749   0.017  0.00  0.00    +0.001 A 
ATOM      9  C   UNL     1      -0.013   1.076   0.008  0.00  0.00    +0.012 A 
ATOM     10  C   UNL     1       1.177   1.781   0.000  0.00  0.00    +0.055 A 
ATOM     11  C   UNL     1       1.164   3.161   0.007  0.00  0.00    +0.024 A 
BRANCH  10  12
ATOM     12  C   UNL     1       2.490   1.041  -0.016  0.00  0.00    +0.417 C 
ATOM     13  F   UNL     1       2.249  -0.337  -0.021  0.00  0.00    -0.166 F 
ATOM     14  F   UNL     1       3.209   1.393  -1.163  0.00  0.00    -0.166 F 
ATOM     15  F   UNL     1       3.231   1.381   1.121  0.00  0.00    -0.166 F 
ENDBRANCH  10  12
ENDBRANCH   3   6
BRANCH   1  16
ATOM     16  C   UNL     1      -1.552   8.603   0.062  0.00  0.00    +0.022 C 
BRANCH  16  18
ATOM     17  C   UNL     1      -2.654   8.017   2.137  0.00  0.00    -0.095 C 
ATOM     18  N   UNL     1      -1.783   9.005   1.466  0.00  0.00    +0.386 N 
ATOM     19  H   UNL     1      -0.881   9.042   1.955  0.00  0.00    -0.081 HD
BRANCH  18  20
ATOM     20  C   UNL     1      -2.409  10.343   1.511  0.00  0.00    -0.043 C 
BRANCH  20  21
ATOM     21  C   UNL     1      -2.431  10.821   2.940  0.00  0.00    -0.064 A 
ATOM     22  C   UNL     1      -3.527  10.553   3.740  0.00  0.00    +0.003 A 
ATOM     23  C   UNL     1      -3.549  10.984   5.051  0.00  0.00    +0.015 A 
ATOM     24  C   UNL     1      -2.473  11.699   5.564  0.00  0.00    +0.008 A 
ATOM     25  C   UNL     1      -1.376  11.972   4.755  0.00  0.00    +0.015 A 
ATOM     26  C   UNL     1      -1.359  11.532   3.446  0.00  0.00    +0.003 A 
BRANCH  24  27
ATOM     27  S   UNL     1      -2.499  12.257   7.235  0.00  0.00    -0.129 S 
ATOM     28  C   UNL     1      -4.095  11.674   7.868  0.00  0.00    +0.090 C 
ENDBRANCH  24  27
ENDBRANCH  20  21
ENDBRANCH  18  20
ENDBRANCH  16  18
ENDBRANCH   1  16
TORSDOF 7
