REMARK  Name = ZINC21252744
REMARK  12 active torsions:
REMARK  status: ('A' for Active; 'I' for Inactive)
REMARK    1  A    between atoms: C_1  and  C_2
REMARK    2  A    between atoms: C_2  and  O_3
REMARK    3  A    between atoms: O_3  and  C_4
REMARK    4  A    between atoms: C_7  and  C_13
REMARK    5  A    between atoms: C_9  and  O_10
REMARK    6  A    between atoms: O_10  and  C_11
REMARK    7  A    between atoms: C_11  and  C_12
REMARK    8  A    between atoms: C_18  and  C_23
REMARK    9  A    between atoms: C_25  and  O_31
REMARK   10  A    between atoms: C_28  and  O_29
REMARK   11  A    between atoms: O_29  and  C_30
REMARK   12  A    between atoms: O_31  and  C_32
REMARK                            x       y       z     vdW  Elec       q    Type
REMARK                         _______ _______ _______ _____ _____    ______ ____
ROOT
ATOM      1  C   UNL     1       0.002  -0.004   0.002  0.00  0.00    +0.136 C 
ATOM      2  C   UNL     1       0.018   1.506   0.023  0.00  0.00    +0.036 C 
ATOM      3  C   UNL     1       1.113   2.284   0.014  0.00  0.00    +0.017 C 
ATOM      4  C   UNL     1       0.981   3.797   0.077  0.00  0.00    +0.060 C 
ATOM      5  C   UNL     1      -0.290   4.239  -0.646  0.00  0.00    +0.036 C 
ATOM      6  C   UNL     1      -1.480   3.574   0.055  0.00  0.00    +0.088 C 
ATOM      7  C   UNL     1      -1.271   2.090   0.048  0.00  0.00    +0.163 C 
ATOM      8  O   UNL     1      -2.244   1.361   0.066  0.00  0.00    -0.292 OA
ATOM      9  N   UNL     1       2.390   1.827  -0.035  0.00  0.00    -0.316 N 
ATOM     10  C   UNL     1       2.895   0.801   0.756  0.00  0.00    +0.052 A 
ATOM     11  C   UNL     1       3.930   1.002   1.653  0.00  0.00    +0.025 A 
ATOM     12  C   UNL     1       4.460  -0.082   2.331  0.00  0.00    +0.002 A 
ATOM     13  C   UNL     1       3.959  -1.353   2.115  0.00  0.00    +0.002 A 
ATOM     14  C   UNL     1       2.911  -1.552   1.234  0.00  0.00    +0.025 A 
ATOM     15  C   UNL     1       2.367  -0.467   0.566  0.00  0.00    +0.049 A 
ATOM     16  N   UNL     1       1.282  -0.612  -0.297  0.00  0.00    -0.331 N 
ATOM     17  H   UNL     1       3.107   2.275  -0.738  0.00  0.00    +0.152 HD
ATOM     18  H   UNL     1       1.410  -1.199  -1.218  0.00  0.00    +0.147 HD
ENDROOT
BRANCH   1  22
ATOM     19  C   UNL     1      -1.297  -1.397   3.831  0.00  0.00    +0.162 A 
ATOM     20  C   UNL     1      -0.117  -0.679   3.715  0.00  0.00    +0.050 A 
ATOM     21  C   UNL     1       0.303  -0.235   2.475  0.00  0.00    +0.009 A 
ATOM     22  C   UNL     1      -0.458  -0.496   1.350  0.00  0.00    -0.019 A 
ATOM     23  C   UNL     1      -1.635  -1.211   1.459  0.00  0.00    +0.055 A 
ATOM     24  C   UNL     1      -2.059  -1.664   2.698  0.00  0.00    +0.162 A 
BRANCH  19  25
ATOM     25  O   UNL     1      -1.709  -1.840   5.049  0.00  0.00    -0.489 OA
BRANCH  25  27
ATOM     26  C   UNL     1      -1.497  -2.104   7.442  0.00  0.00    +0.048 C 
ATOM     27  C   UNL     1      -0.876  -1.528   6.168  0.00  0.00    +0.226 C 
ENDBRANCH  25  27
ENDBRANCH  19  25
BRANCH  24  28
ATOM     28  O   UNL     1      -3.217  -2.369   2.806  0.00  0.00    -0.489 OA
BRANCH  28  29
ATOM     29  C   UNL     1      -3.948  -2.606   1.601  0.00  0.00    +0.226 C 
ATOM     30  C   UNL     1      -5.211  -3.407   1.920  0.00  0.00    +0.048 C 
ENDBRANCH  28  29
ENDBRANCH  24  28
ENDBRANCH   1  22
BRANCH   5  31
ATOM     31  C   UNL     1      -0.425   5.738  -0.571  0.00  0.00    +0.002 A 
ATOM     32  C   UNL     1      -0.517   6.363   0.658  0.00  0.00    +0.053 A 
ATOM     33  C   UNL     1      -0.636   7.742   0.727  0.00  0.00    +0.121 A 
ATOM     34  C   UNL     1      -0.674   8.495  -0.438  0.00  0.00    +0.049 A 
ATOM     35  C   UNL     1      -0.588   7.870  -1.667  0.00  0.00    +0.049 A 
ATOM     36  C   UNL     1      -0.463   6.490  -1.736  0.00  0.00    +0.124 A 
BRANCH  36  37
ATOM     37  O   UNL     1      -0.377   5.874  -2.945  0.00  0.00    -0.495 OA
ATOM     38  C   UNL     1      -0.423   6.710  -4.103  0.00  0.00    +0.277 C 
ENDBRANCH  36  37
BRANCH  33  39
ATOM     39  O   UNL     1      -0.721   8.358   1.936  0.00  0.00    -0.495 OA
ATOM     40  C   UNL     1      -0.849   9.781   1.933  0.00  0.00    +0.277 C 
ENDBRANCH  33  39
ENDBRANCH   5  31
TORSDOF 8
