REMARK  Name = ZINC38811800
REMARK  7 active torsions:
REMARK  status: ('A' for Active; 'I' for Inactive)
REMARK    1  A    between atoms: C_4  and  C_7
REMARK    2  A    between atoms: N_15  and  C_24
REMARK    3  A    between atoms: C_16  and  C_18
REMARK    4  A    between atoms: C_24  and  C_25
REMARK    5  A    between atoms: C_25  and  C_26
REMARK    6  A    between atoms: N_28  and  N_29
REMARK    7  A    between atoms: C_30  and  C_31
REMARK                            x       y       z     vdW  Elec       q    Type
REMARK                         _______ _______ _______ _____ _____    ______ ____
ROOT
ATOM      1  C   UNL     1       3.711  -0.707  -0.038  0.00  0.00    +0.076 C 
ATOM      2  C   UNL     1       3.807  -1.646   1.144  0.00  0.00    -0.017 A 
ATOM      3  C   UNL     1       3.788  -1.396   2.503  0.00  0.00    +0.006 A 
ATOM      4  C   UNL     1       3.892  -2.441   3.402  0.00  0.00    +0.000 A 
ATOM      5  C   UNL     1       4.016  -3.738   2.938  0.00  0.00    +0.002 A 
ATOM      6  C   UNL     1       4.037  -3.992   1.584  0.00  0.00    +0.023 A 
ATOM      7  C   UNL     1       3.930  -2.942   0.669  0.00  0.00    +0.034 A 
ATOM      8  N   UNL     1       3.929  -2.981  -0.726  0.00  0.00    -0.321 N 
ATOM      9  C   UNL     1       3.797  -1.623  -1.269  0.00  0.00    +0.115 C 
ENDROOT
BRANCH   1  13
ATOM     10  C   UNL     1      -0.017   1.378   0.010  0.00  0.00    +0.000 A 
ATOM     11  C   UNL     1       1.171   2.086   0.002  0.00  0.00    +0.000 A 
ATOM     12  C   UNL     1       2.377   1.411  -0.013  0.00  0.00    +0.004 A 
ATOM     13  C   UNL     1       2.396   0.029  -0.020  0.00  0.00    -0.038 A 
ATOM     14  C   UNL     1       1.208  -0.679  -0.012  0.00  0.00    +0.004 A 
ATOM     15  C   UNL     1       0.002  -0.004   0.002  0.00  0.00    +0.000 A 
ENDBRANCH   1  13
BRANCH   9  16
ATOM     16  C   UNL     1       5.004  -1.270  -2.100  0.00  0.00    -0.026 A 
ATOM     17  C   UNL     1       6.255  -1.731  -1.733  0.00  0.00    +0.005 A 
ATOM     18  C   UNL     1       7.361  -1.407  -2.495  0.00  0.00    +0.000 A 
ATOM     19  C   UNL     1       7.218  -0.623  -3.625  0.00  0.00    +0.000 A 
ATOM     20  C   UNL     1       5.967  -0.164  -3.993  0.00  0.00    +0.000 A 
ATOM     21  C   UNL     1       4.859  -0.491  -3.233  0.00  0.00    +0.005 A 
ENDBRANCH   9  16
BRANCH   8  22
ATOM     22  C   UNL     1       4.045  -4.199  -1.532  0.00  0.00    +0.115 C 
BRANCH  22  23
ATOM     23  C   UNL     1       2.649  -4.762  -1.808  0.00  0.00    +0.116 C 
BRANCH  23  24
ATOM     24  C   UNL     1       2.768  -6.015  -2.636  0.00  0.00    +0.234 C 
ATOM     25  O   UNL     1       3.860  -6.418  -2.973  0.00  0.00    -0.274 OA
ATOM     26  N   UNL     1       1.659  -6.688  -3.003  0.00  0.00    -0.207 N 
ATOM     27  H   UNL     1       0.784  -6.365  -2.734  0.00  0.00    +0.177 HD
BRANCH  26  28
ATOM     28  N   UNL     1       1.769  -7.853  -3.774  0.00  0.00    -0.188 NA
ATOM     29  C   UNL     1       0.692  -8.506  -4.130  0.00  0.00    +0.136 C 
BRANCH  29  30
ATOM     30  C   UNL     1       0.802  -9.672  -4.901  0.00  0.00    +0.000 C 
ATOM     31  C   UNL     1      -0.236 -10.476  -5.365  0.00  0.00    +0.004 A 
ATOM     32  C   UNL     1      -1.639 -10.397  -5.228  0.00  0.00    +0.010 A 
ATOM     33  C   UNL     1      -2.426 -11.343  -5.799  0.00  0.00    +0.001 A 
ATOM     34  C   UNL     1      -1.883 -12.405  -6.529  0.00  0.00    +0.002 A 
ATOM     35  C   UNL     1      -0.547 -12.544  -6.702  0.00  0.00    +0.026 A 
ATOM     36  C   UNL     1       0.342 -11.594  -6.133  0.00  0.00    +0.043 A 
ATOM     37  N   UNL     1       1.655 -11.506  -6.155  0.00  0.00    -0.380 N 
ATOM     38  C   UNL     1       2.074 -10.316  -5.409  0.00  0.00    +0.150 C 
ATOM     39  H   UNL     1       2.251 -12.129  -6.599  0.00  0.00    +0.160 HD
ENDBRANCH  29  30
ENDBRANCH  26  28
ENDBRANCH  23  24
ENDBRANCH  22  23
ENDBRANCH   8  22
TORSDOF 7
