REMARK  Name = ZINC13871195
REMARK  10 active torsions:
REMARK  status: ('A' for Active; 'I' for Inactive)
REMARK    1  A    between atoms: C_1  and  C_2
REMARK    2  A    between atoms: C_2  and  C_3
REMARK    3  A    between atoms: C_6  and  O_9
REMARK    4  A    between atoms: O_9  and  C_10
REMARK    5  A    between atoms: C_10  and  C_12
REMARK    6  A    between atoms: C_10  and  C_13
REMARK    7  A    between atoms: C_16  and  S_19
REMARK    8  A    between atoms: N_17  and  C_18
REMARK    9  A    between atoms: S_19  and  C_20
REMARK   10  A    between atoms: C_20  and  C_21
REMARK                            x       y       z     vdW  Elec       q    Type
REMARK                         _______ _______ _______ _____ _____    ______ ____
ROOT
ATOM      1  C   UNL     1       4.538  -2.942  -5.571  0.00  0.00    +0.174 A 
ATOM      2  N   UNL     1       4.143  -3.055  -6.808  0.00  0.00    -0.130 NA
ATOM      3  N   UNL     1       4.752  -4.033  -7.378  0.00  0.00    -0.122 NA
ATOM      4  C   UNL     1       5.576  -4.601  -6.529  0.00  0.00    +0.192 A 
ATOM      5  N   UNL     1       5.469  -3.920  -5.351  0.00  0.00    -0.306 N 
ATOM      6  C   UNL     1       6.198  -4.182  -4.107  0.00  0.00    +0.153 C 
ENDROOT
BRANCH   1   7
ATOM      7  C   UNL     1       4.062  -1.920  -4.571  0.00  0.00    +0.238 C 
ATOM      8  C   UNL     1       4.682  -0.560  -4.899  0.00  0.00    +0.060 C 
BRANCH   7   9
ATOM      9  O   UNL     1       2.638  -1.822  -4.632  0.00  0.00    -0.481 OA
BRANCH   9  13
ATOM     10  C   UNL     1       0.708  -0.484  -1.240  0.00  0.00    -0.047 A 
ATOM     11  C   UNL     1       2.090  -0.496  -1.288  0.00  0.00    +0.007 A 
ATOM     12  C   UNL     1       2.739  -0.944  -2.423  0.00  0.00    +0.046 A 
ATOM     13  C   UNL     1       2.002  -1.381  -3.514  0.00  0.00    +0.122 A 
ATOM     14  C   UNL     1       0.616  -1.369  -3.463  0.00  0.00    +0.046 A 
ATOM     15  C   UNL     1      -0.028  -0.925  -2.324  0.00  0.00    +0.007 A 
BRANCH  10  17
ATOM     16  C   UNL     1      -0.223  -1.168   0.954  0.00  0.00    +0.009 C 
ATOM     17  C   UNL     1       0.003   0.005  -0.001  0.00  0.00    +0.032 C 
ENDBRANCH  10  17
ENDBRANCH   9  13
ENDBRANCH   7   9
ENDBRANCH   1   7
BRANCH   4  18
ATOM     18  S   UNL     1       6.627  -5.978  -6.851  0.00  0.00    -0.081 S 
BRANCH  18  19
ATOM     19  C   UNL     1       6.291  -6.391  -8.585  0.00  0.00    +0.112 C 
BRANCH  19  20
ATOM     20  C   UNL     1       7.136  -7.569  -8.994  0.00  0.00    -0.037 A 
ATOM     21  C   UNL     1       8.397  -7.364  -9.523  0.00  0.00    +0.007 A 
ATOM     22  C   UNL     1       9.174  -8.444  -9.898  0.00  0.00    +0.038 A 
ATOM     23  C   UNL     1       8.688  -9.732  -9.744  0.00  0.00    +0.123 A 
ATOM     24  C   UNL     1       7.425  -9.936  -9.215  0.00  0.00    +0.038 A 
ATOM     25  C   UNL     1       6.653  -8.855  -8.836  0.00  0.00    +0.007 A 
ATOM     26  F   UNL     1       9.447 -10.788 -10.111  0.00  0.00    -0.205 F 
ENDBRANCH  19  20
ENDBRANCH  18  19
ENDBRANCH   4  18
TORSDOF 7
