REMARK  Name = ZINC08880283
REMARK  8 active torsions:
REMARK  status: ('A' for Active; 'I' for Inactive)
REMARK    1  A    between atoms: C_1  and  C_2
REMARK    2  A    between atoms: C_5  and  C_8
REMARK    3  A    between atoms: C_8  and  C_10
REMARK    4  A    between atoms: C_8  and  N_16
REMARK    5  A    between atoms: C_10  and  N_63
REMARK    6  A    between atoms: C_17  and  C_19
REMARK    7  A    between atoms: C_19  and  N_20
REMARK    8  A    between atoms: C_28  and  C_30
REMARK                            x       y       z     vdW  Elec       q    Type
REMARK                         _______ _______ _______ _____ _____    ______ ____
ROOT
ATOM      1  N   UNL     1       3.624  -5.890   1.538  0.00  0.00    -0.309 N 
ATOM      2  C   UNL     1       3.072  -4.666   1.416  0.00  0.00    +0.233 C 
ATOM      3  O   UNL     1       2.785  -4.029   2.408  0.00  0.00    -0.274 OA
ATOM      4  H   UNL     1       3.909  -6.374   0.748  0.00  0.00    +0.149 HD
ENDROOT
BRANCH   1   5
ATOM      5  C   UNL     1       3.792  -6.488   2.865  0.00  0.00    +0.087 C 
BRANCH   5  10
ATOM      6  C   UNL     1       3.797 -12.248   2.393  0.00  0.00    +0.044 C 
ATOM      7  C   UNL     1       3.796 -10.746   2.516  0.00  0.00    -0.050 A 
ATOM      8  C   UNL     1       3.143 -10.139   3.573  0.00  0.00    +0.004 A 
ATOM      9  C   UNL     1       3.142  -8.762   3.686  0.00  0.00    +0.005 A 
ATOM     10  C   UNL     1       3.794  -7.990   2.742  0.00  0.00    -0.029 A 
ATOM     11  C   UNL     1       4.442  -8.596   1.682  0.00  0.00    +0.005 A 
ATOM     12  C   UNL     1       4.447  -9.974   1.571  0.00  0.00    +0.004 A 
ENDBRANCH   5  10
BRANCH   5  13
ATOM     13  C   UNL     1       5.120  -6.025   3.469  0.00  0.00    -0.051 C 
BRANCH  13  19
ATOM     14  C   UNL     1       4.324  -5.794   5.745  0.00  0.00    -0.050 C 
ATOM     15  C   UNL     1       4.429  -6.383   7.154  0.00  0.00    +0.141 C 
ATOM     16  O   UNL     1       5.789  -6.322   7.591  0.00  0.00    -0.383 OA
ATOM     17  C   UNL     1       6.700  -7.021   6.739  0.00  0.00    +0.141 C 
ATOM     18  C   UNL     1       6.619  -6.439   5.326  0.00  0.00    -0.050 C 
ATOM     19  N   UNL     1       5.224  -6.549   4.848  0.00  0.00    +0.384 N 
ATOM     20  H   UNL     1       4.947  -7.537   4.851  0.00  0.00    -0.082 HD
ENDBRANCH  13  19
ENDBRANCH   5  13
ENDBRANCH   1   5
BRANCH   2  21
ATOM     21  C   UNL     1       2.813  -4.089   0.048  0.00  0.00    +0.222 C 
BRANCH  21  22
ATOM     22  N   UNL     1       2.332  -2.712   0.182  0.00  0.00    -0.290 N 
ATOM     23  C   UNL     1       3.232  -1.701   0.282  0.00  0.00    +0.203 A 
ATOM     24  N   UNL     1       2.843  -0.459   0.403  0.00  0.00    -0.230 NA
ATOM     25  C   UNL     1       1.553  -0.146   0.432  0.00  0.00    +0.116 A 
ATOM     26  C   UNL     1       0.543  -1.125   0.335  0.00  0.00    +0.073 A 
ATOM     27  C   UNL     1       1.007  -2.477   0.204  0.00  0.00    +0.263 A 
ATOM     28  O   UNL     1       0.214  -3.397   0.114  0.00  0.00    -0.267 OA
ATOM     29  C   UNL     1      -0.776  -0.646   0.380  0.00  0.00    +0.031 A 
ATOM     30  C   UNL     1      -1.008   0.686   0.509  0.00  0.00    +0.022 A 
ATOM     31  S   UNL     1       0.639   1.369   0.578  0.00  0.00    -0.068 S 
BRANCH  30  32
ATOM     32  C   UNL     1      -2.304   1.394   0.571  0.00  0.00    -0.011 A 
ATOM     33  C   UNL     1      -3.499   0.678   0.488  0.00  0.00    +0.009 A 
ATOM     34  C   UNL     1      -4.705   1.345   0.552  0.00  0.00    +0.001 A 
ATOM     35  C   UNL     1      -4.731   2.722   0.687  0.00  0.00    +0.000 A 
ATOM     36  C   UNL     1      -3.550   3.438   0.764  0.00  0.00    +0.001 A 
ATOM     37  C   UNL     1      -2.337   2.783   0.707  0.00  0.00    +0.009 A 
ENDBRANCH  30  32
ENDBRANCH  21  22
ENDBRANCH   2  21
TORSDOF 7
