REMARK  Name = ZINC34954626
REMARK  11 active torsions:
REMARK  status: ('A' for Active; 'I' for Inactive)
REMARK    1  A    between atoms: C_1  and  C_2
REMARK    2  A    between atoms: C_2  and  C_3
REMARK    3  A    between atoms: C_3  and  C_4
REMARK    4  A    between atoms: C_9  and  C_24
REMARK    5  A    between atoms: C_14  and  C_22
REMARK    6  A    between atoms: C_15  and  N_21
REMARK    7  A    between atoms: C_16  and  C_17
REMARK    8  A    between atoms: C_16  and  C_19
REMARK    9  A    between atoms: C_24  and  C_25
REMARK   10  A    between atoms: C_24  and  C_26
REMARK   11  A    between atoms: C_24  and  C_27
REMARK                            x       y       z     vdW  Elec       q    Type
REMARK                         _______ _______ _______ _____ _____    ______ ____
ROOT
ATOM      1  C   UNL     1       0.441  -0.876  -0.459  0.00  0.00    +0.036 C 
ATOM      2  C   UNL     1       0.993  -1.900  -1.453  0.00  0.00    +0.026 C 
ATOM      3  C   UNL     1       2.503  -1.946  -1.434  0.00  0.00    +0.013 C 
ATOM      4  C   UNL     1       3.111  -1.134  -2.576  0.00  0.00    -0.001 C 
ATOM      5  C   UNL     1       2.594  -1.703  -3.904  0.00  0.00    +0.031 C 
ATOM      6  C   UNL     1       1.095  -1.552  -3.915  0.00  0.00    -0.021 C 
ATOM      7  C   UNL     1       0.413  -1.605  -2.804  0.00  0.00    -0.029 C 
ATOM      8  C   UNL     1      -1.046  -1.324  -2.864  0.00  0.00    +0.074 C 
ATOM      9  C   UNL     1      -1.718  -1.056  -1.716  0.00  0.00    +0.054 C 
ATOM     10  C   UNL     1      -1.075  -1.046  -0.359  0.00  0.00    +0.184 C 
ENDROOT
BRANCH   4  11
ATOM     11  C   UNL     1       2.694   0.333  -2.445  0.00  0.00    -0.035 C 
ATOM     12  C   UNL     1       2.941   0.807  -1.011  0.00  0.00    +0.011 C 
ATOM     13  C   UNL     1       3.517   1.185  -3.413  0.00  0.00    +0.011 C 
ATOM     14  C   UNL     1       1.208   0.471  -2.779  0.00  0.00    +0.011 C 
ENDBRANCH   4  11
BRANCH   9  15
ATOM     15  N   UNL     1      -3.054  -0.779  -1.800  0.00  0.00    -0.358 N 
ATOM     16  H   UNL     1      -3.496  -0.777  -2.663  0.00  0.00    +0.142 HD
ATOM     17  H   UNL     1      -3.560  -0.583  -0.995  0.00  0.00    +0.142 HD
ENDBRANCH   9  15
BRANCH  10  18
ATOM     18  C   UNL     1      -1.632   0.063   0.432  0.00  0.00    +0.091 C 
ATOM     19  N   UNL     1      -2.062   0.919   1.042  0.00  0.00    -0.195 NA
ENDBRANCH  10  18
BRANCH  10  20
ATOM     20  C   UNL     1      -1.373  -2.317   0.322  0.00  0.00    +0.091 C 
ATOM     21  N   UNL     1      -1.602  -3.297   0.848  0.00  0.00    -0.195 NA
ENDBRANCH  10  20
BRANCH   8  22
ATOM     22  C   UNL     1      -1.734  -1.337  -4.119  0.00  0.00    +0.101 C 
ATOM     23  N   UNL     1      -2.280  -1.347  -5.115  0.00  0.00    -0.191 NA
ENDBRANCH   8  22
BRANCH   1  24
ATOM     24  C   UNL     1       0.767   0.537  -0.945  0.00  0.00    +0.007 C 
BRANCH  24  26
ATOM     25  C   UNL     1       0.824   2.928  -0.222  0.00  0.00    +0.004 C 
ATOM     26  C   UNL     1       0.879   1.477   0.258  0.00  0.00    -0.003 C 
ENDBRANCH  24  26
ENDBRANCH   1  24
TORSDOF 7
