REMARK  Name = ZINC39608784
REMARK  10 active torsions:
REMARK  status: ('A' for Active; 'I' for Inactive)
REMARK    1  A    between atoms: C_1  and  C_2
REMARK    2  A    between atoms: C_16  and  C_17
REMARK    3  A    between atoms: C_17  and  O_19
REMARK    4  A    between atoms: O_19  and  C_20
REMARK    5  A    between atoms: C_20  and  C_22
REMARK    6  A    between atoms: C_20  and  C_23
REMARK    7  A    between atoms: N_25  and  C_26
REMARK    8  A    between atoms: N_30  and  C_31
REMARK    9  A    between atoms: C_31  and  C_32
REMARK   10  A    between atoms: C_31  and  C_33
REMARK                            x       y       z     vdW  Elec       q    Type
REMARK                         _______ _______ _______ _____ _____    ______ ____
ROOT
ATOM      1  C   UNL     1       0.028  -0.170   2.547  0.00  0.00    +0.347 C 
ATOM      2  O   UNL     1       0.012   1.031   2.737  0.00  0.00    -0.244 OA
ENDROOT
BRANCH   1  18
ATOM      3  C   UNL     1      -0.018   1.503   0.010  0.00  0.00    +0.046 C 
ATOM      4  C   UNL     1       0.002  -0.004   0.002  0.00  0.00    -0.015 A 
ATOM      5  C   UNL     1       0.005  -0.697  -1.210  0.00  0.00    +0.076 A 
ATOM      6  C   UNL     1       0.025  -2.108  -1.113  0.00  0.00    +0.116 A 
ATOM      7  N   UNL     1       0.025  -2.884  -2.188  0.00  0.00    -0.226 NA
ATOM      8  C   UNL     1       0.004  -2.387  -3.393  0.00  0.00    +0.114 A 
ATOM      9  N   UNL     1      -0.013  -1.041  -3.612  0.00  0.00    -0.296 N 
ATOM     10  C   UNL     1      -0.008  -0.165  -2.592  0.00  0.00    +0.263 A 
ATOM     11  O   UNL     1      -0.014   1.035  -2.799  0.00  0.00    -0.267 OA
ATOM     12  C   UNL     1      -0.040  -0.564  -5.001  0.00  0.00    +0.126 C 
ATOM     13  C   UNL     1      -1.432  -0.794  -5.583  0.00  0.00    +0.022 C 
ATOM     14  C   UNL     1      -1.537  -2.164  -6.231  0.00  0.00    +0.002 C 
ATOM     15  C   UNL     1      -1.402  -3.288  -5.218  0.00  0.00    +0.008 C 
ATOM     16  C   UNL     1      -0.008  -3.303  -4.595  0.00  0.00    +0.074 C 
ATOM     17  S   UNL     1       0.040  -2.396   0.639  0.00  0.00    -0.062 S 
ATOM     18  C   UNL     1       0.023  -0.695   1.179  0.00  0.00    +0.102 A 
ENDBRANCH   1  18
BRANCH   1  19
ATOM     19  O   UNL     1       0.050  -1.019   3.595  0.00  0.00    -0.448 OA
BRANCH  19  20
ATOM     20  C   UNL     1       0.054  -0.438   4.900  0.00  0.00    +0.259 C 
ATOM     21  C   UNL     1       1.498  -0.210   5.353  0.00  0.00    +0.062 C 
BRANCH  20  22
ATOM     22  C   UNL     1      -0.634  -1.368   5.866  0.00  0.00    +0.259 C 
ATOM     23  O   UNL     1      -1.002  -2.463   5.495  0.00  0.00    -0.271 OA
ATOM     24  N   UNL     1      -0.840  -0.984   7.141  0.00  0.00    -0.268 N 
ATOM     25  H   UNL     1      -0.545  -0.109   7.438  0.00  0.00    +0.156 HD
BRANCH  24  26
ATOM     26  C   UNL     1      -1.476  -1.845   8.035  0.00  0.00    +0.123 A 
ATOM     27  C   UNL     1      -1.934  -3.096   7.758  0.00  0.00    +0.065 A 
ATOM     28  C   UNL     1      -2.502  -3.612   8.926  0.00  0.00    +0.136 A 
ATOM     29  N   UNL     1      -2.393  -2.712   9.869  0.00  0.00    -0.178 NA
ATOM     30  N   UNL     1      -1.746  -1.590   9.336  0.00  0.00    -0.248 N 
BRANCH  30  31
ATOM     31  C   UNL     1      -1.421  -0.357  10.058  0.00  0.00    +0.103 C 
ATOM     32  C   UNL     1      -2.709   0.280  10.585  0.00  0.00    +0.032 C 
ATOM     33  C   UNL     1      -0.496  -0.683  11.232  0.00  0.00    +0.032 C 
ENDBRANCH  30  31
ENDBRANCH  24  26
ENDBRANCH  20  22
ENDBRANCH  19  20
ENDBRANCH   1  19
TORSDOF 6
