REMARK  Name = ZINC62617527
REMARK  6 active torsions:
REMARK  status: ('A' for Active; 'I' for Inactive)
REMARK    1  A    between atoms: C_1  and  C_2
REMARK    2  A    between atoms: C_2  and  C_3
REMARK    3  A    between atoms: C_2  and  O_4
REMARK    4  A    between atoms: O_4  and  C_5
REMARK    5  A    between atoms: C_8  and  S_11
REMARK    6  A    between atoms: S_11  and  N_14
REMARK                            x       y       z     vdW  Elec       q    Type
REMARK                         _______ _______ _______ _____ _____    ______ ____
ROOT
ATOM      1  N   UNL     1      -2.051  -6.954  -0.984  0.00  0.00    -0.172 NA
ATOM      2  C   UNL     1      -0.749  -7.548  -0.641  0.00  0.00    +0.114 C 
ATOM      3  C   UNL     1      -0.372  -7.078   0.763  0.00  0.00    +0.052 C 
ATOM      4  C   UNL     1      -1.531  -7.239   1.712  0.00  0.00    -0.038 A 
ATOM      5  C   UNL     1      -1.249  -7.270   3.072  0.00  0.00    +0.053 A 
ATOM      6  C   UNL     1      -2.265  -7.405   4.001  0.00  0.00    +0.162 A 
ATOM      7  C   UNL     1      -3.583  -7.508   3.568  0.00  0.00    +0.162 A 
ATOM      8  C   UNL     1      -3.860  -7.482   2.213  0.00  0.00    +0.054 A 
ATOM      9  C   UNL     1      -2.835  -7.353   1.284  0.00  0.00    -0.025 A 
ATOM     10  C   UNL     1      -3.207  -7.353  -0.173  0.00  0.00    +0.145 C 
ATOM     11  O   UNL     1      -4.602  -7.629   4.462  0.00  0.00    -0.485 OA
ATOM     12  C   UNL     1      -4.249  -8.026   5.791  0.00  0.00    +0.270 C 
ATOM     13  C   UNL     1      -3.042  -7.190   6.238  0.00  0.00    +0.270 C 
ATOM     14  O   UNL     1      -1.964  -7.436   5.328  0.00  0.00    -0.485 OA
ENDROOT
BRANCH   1  15
ATOM     15  S   UNL     1      -2.204  -5.873  -2.229  0.00  0.00    +0.061 S 
ATOM     16  O   UNL     1      -3.561  -5.925  -2.647  0.00  0.00    -0.153 OA
ATOM     17  O   UNL     1      -1.123  -6.122  -3.118  0.00  0.00    -0.153 OA
BRANCH  15  21
ATOM     18  C   UNL     1      -1.538  -1.739  -0.505  0.00  0.00    +0.121 A 
ATOM     19  C   UNL     1      -0.465  -2.468  -0.997  0.00  0.00    +0.047 A 
ATOM     20  C   UNL     1      -0.671  -3.729  -1.522  0.00  0.00    +0.032 A 
ATOM     21  C   UNL     1      -1.945  -4.265  -1.558  0.00  0.00    +0.106 A 
ATOM     22  C   UNL     1      -3.017  -3.540  -1.070  0.00  0.00    +0.032 A 
ATOM     23  C   UNL     1      -2.815  -2.281  -0.538  0.00  0.00    +0.047 A 
BRANCH  18  24
ATOM     24  O   UNL     1      -1.339  -0.499   0.012  0.00  0.00    -0.489 OA
BRANCH  24  26
ATOM     25  C   UNL     1      -1.982   1.168   1.640  0.00  0.00    +0.051 C 
ATOM     26  C   UNL     1      -2.466   0.143   0.612  0.00  0.00    +0.167 C 
ATOM     27  C   UNL     1      -3.283   0.853  -0.469  0.00  0.00    +0.051 C 
ENDBRANCH  24  26
ENDBRANCH  18  24
ENDBRANCH  15  21
ENDBRANCH   1  15
TORSDOF 4
