REMARK  Name = ZINC41021544
REMARK  10 active torsions:
REMARK  status: ('A' for Active; 'I' for Inactive)
REMARK    1  A    between atoms: C_1  and  C_2
REMARK    2  A    between atoms: C_2  and  S_3
REMARK    3  A    between atoms: S_3  and  C_4
REMARK    4  A    between atoms: C_9  and  C_26
REMARK    5  A    between atoms: C_11  and  C_15
REMARK    6  A    between atoms: C_12  and  C_14
REMARK    7  A    between atoms: N_17  and  C_18
REMARK    8  A    between atoms: C_22  and  C_25
REMARK    9  A    between atoms: C_23  and  C_24
REMARK   10  A    between atoms: C_27  and  C_28
REMARK                            x       y       z     vdW  Elec       q    Type
REMARK                         _______ _______ _______ _____ _____    ______ ____
ROOT
ATOM      1  C   UNL     1       0.995  -2.366   1.159  0.00  0.00    +0.210 A 
ATOM      2  N   UNL     1       0.375  -3.056   0.190  0.00  0.00    -0.187 NA
ATOM      3  C   UNL     1       0.485  -4.335   0.427  0.00  0.00    +0.219 A 
ATOM      4  N   UNL     1       1.187  -4.492   1.576  0.00  0.00    -0.220 N 
ATOM      5  N   UNL     1       1.511  -3.212   2.024  0.00  0.00    -0.141 NA
ATOM      6  C   UNL     1       1.498  -5.793   2.161  0.00  0.00    +0.170 C 
ATOM      7  C   UNL     1       1.194  -6.878   1.163  0.00  0.00    +0.060 C 
ATOM      8  C   UNL     1       0.496  -6.662   0.038  0.00  0.00    +0.018 C 
ATOM      9  N   UNL     1       0.012  -5.421  -0.296  0.00  0.00    -0.287 N 
ATOM     10  C   UNL     1       0.235  -7.820  -0.891  0.00  0.00    +0.061 C 
ATOM     11  H   UNL     1      -0.635  -5.308  -1.010  0.00  0.00    +0.155 HD
ENDROOT
BRANCH   7  12
ATOM     12  C   UNL     1       1.666  -8.186   1.423  0.00  0.00    +0.248 C 
ATOM     13  O   UNL     1       2.826  -8.472   1.188  0.00  0.00    -0.270 OA
ATOM     14  N   UNL     1       0.831  -9.115   1.930  0.00  0.00    -0.281 N 
ATOM     15  H   UNL     1      -0.107  -8.906   2.057  0.00  0.00    +0.155 HD
BRANCH  14  16
ATOM     16  C   UNL     1       1.319 -10.379   2.274  0.00  0.00    +0.037 A 
ATOM     17  C   UNL     1       2.333 -10.962   1.524  0.00  0.00    +0.023 A 
ATOM     18  C   UNL     1       2.812 -12.211   1.867  0.00  0.00    +0.002 A 
ATOM     19  C   UNL     1       2.285 -12.881   2.955  0.00  0.00    +0.004 A 
ATOM     20  C   UNL     1       1.276 -12.304   3.704  0.00  0.00    -0.046 A 
ATOM     21  C   UNL     1       0.796 -11.053   3.370  0.00  0.00    -0.026 A 
ATOM     22  C   UNL     1      -0.300 -10.421   4.191  0.00  0.00    +0.046 C 
ATOM     23  C   UNL     1       0.704 -13.038   4.889  0.00  0.00    +0.044 C 
ENDBRANCH  14  16
ENDBRANCH   7  12
BRANCH   6  24
ATOM     24  C   UNL     1       0.663  -6.001   3.399  0.00  0.00    +0.005 C 
ATOM     25  C   UNL     1       1.252  -6.188   4.572  0.00  0.00    +0.006 C 
BRANCH  25  26
ATOM     26  C   UNL     1       0.433  -6.391   5.785  0.00  0.00    -0.025 A 
ATOM     27  C   UNL     1      -0.959  -6.393   5.699  0.00  0.00    +0.008 A 
ATOM     28  C   UNL     1      -1.718  -6.583   6.836  0.00  0.00    +0.001 A 
ATOM     29  C   UNL     1      -1.101  -6.772   8.059  0.00  0.00    +0.000 A 
ATOM     30  C   UNL     1       0.280  -6.771   8.152  0.00  0.00    +0.001 A 
ATOM     31  C   UNL     1       1.050  -6.589   7.021  0.00  0.00    +0.008 A 
ENDBRANCH  25  26
ENDBRANCH   6  24
BRANCH   1  32
ATOM     32  S   UNL     1       1.108  -0.610   1.254  0.00  0.00    -0.085 S 
BRANCH  32  34
ATOM     33  C   UNL     1       0.228   1.496  -0.254  0.00  0.00    +0.016 C 
ATOM     34  C   UNL     1       0.208  -0.033  -0.212  0.00  0.00    +0.074 C 
ENDBRANCH  32  34
ENDBRANCH   1  32
TORSDOF 6
