REMARK  Name = ZINC17719160
REMARK  8 active torsions:
REMARK  status: ('A' for Active; 'I' for Inactive)
REMARK    1  A    between atoms: C_1  and  C_2
REMARK    2  A    between atoms: C_2  and  C_4
REMARK    3  A    between atoms: C_2  and  O_14
REMARK    4  A    between atoms: C_7  and  C_9
REMARK    5  A    between atoms: O_14  and  C_15
REMARK    6  A    between atoms: C_15  and  C_17
REMARK    7  A    between atoms: C_21  and  N_22
REMARK    8  A    between atoms: C_23  and  C_25
REMARK                            x       y       z     vdW  Elec       q    Type
REMARK                         _______ _______ _______ _____ _____    ______ ____
ROOT
ATOM      1  C   UNL     1      -2.502   1.116   0.020  0.00  0.00    +0.091 A 
ATOM      2  C   UNL     1      -3.621   2.058   0.031  0.00  0.00    -0.021 A 
ATOM      3  C   UNL     1      -3.274   3.357   0.035  0.00  0.00    -0.004 A 
ATOM      4  S   UNL     1      -1.498   3.351   0.035  0.00  0.00    -0.077 S 
ATOM      5  C   UNL     1      -1.221   1.643   0.017  0.00  0.00    +0.086 A 
ATOM      6  C   UNL     1      -4.476   4.263   0.043  0.00  0.00    +0.043 C 
ATOM      7  C   UNL     1      -5.649   3.356  -0.392  0.00  0.00    +0.010 C 
ATOM      8  C   UNL     1      -5.147   1.964   0.043  0.00  0.00    +0.037 C 
ENDROOT
BRANCH   5   9
ATOM      9  N   UNL     1      -0.011   0.966   0.007  0.00  0.00    -0.279 N 
ATOM     10  C   UNL     1       1.147   1.655   0.000  0.00  0.00    +0.221 C 
ATOM     11  O   UNL     1       1.130   2.868   0.007  0.00  0.00    -0.275 OA
ATOM     12  H   UNL     1       0.002  -0.004   0.002  0.00  0.00    +0.155 HD
BRANCH  10  13
ATOM     13  C   UNL     1       2.462   0.920  -0.017  0.00  0.00    +0.075 C 
ATOM     14  C   UNL     1       2.567   0.035   1.227  0.00  0.00    +0.013 C 
ATOM     15  C   UNL     1       3.902  -0.712   1.210  0.00  0.00    +0.001 C 
ATOM     16  C   UNL     1       5.051   0.298   1.205  0.00  0.00    +0.000 C 
ATOM     17  C   UNL     1       4.946   1.183  -0.039  0.00  0.00    +0.001 C 
ATOM     18  C   UNL     1       3.611   1.930  -0.022  0.00  0.00    +0.013 C 
ENDBRANCH  10  13
ENDBRANCH   5   9
BRANCH   1  19
ATOM     19  C   UNL     1      -2.728  -0.331   0.012  0.00  0.00    +0.343 C 
ATOM     20  O   UNL     1      -2.817  -0.939   1.062  0.00  0.00    -0.245 OA
BRANCH  19  21
ATOM     21  O   UNL     1      -2.837  -0.990  -1.159  0.00  0.00    -0.448 OA
BRANCH  21  23
ATOM     22  C   UNL     1      -1.714  -3.149  -1.075  0.00  0.00    +0.062 C 
ATOM     23  C   UNL     1      -3.061  -2.423  -1.091  0.00  0.00    +0.261 C 
BRANCH  23  24
ATOM     24  C   UNL     1      -3.856  -2.866  -2.293  0.00  0.00    +0.258 A 
ATOM     25  N   UNL     1      -3.650  -2.502  -3.527  0.00  0.00    -0.108 NA
ATOM     26  N   UNL     1      -4.512  -3.072  -4.294  0.00  0.00    -0.107 NA
ATOM     27  C   UNL     1      -5.311  -3.821  -3.566  0.00  0.00    +0.255 A 
ATOM     28  O   UNL     1      -4.909  -3.703  -2.284  0.00  0.00    -0.416 OA
BRANCH  27  29
ATOM     29  C   UNL     1      -6.434  -4.633  -4.058  0.00  0.00    +0.076 A 
ATOM     30  C   UNL     1      -6.893  -4.794  -5.352  0.00  0.00    +0.021 A 
ATOM     31  C   UNL     1      -7.973  -5.617  -5.566  0.00  0.00    +0.008 A 
ATOM     32  C   UNL     1      -8.553  -6.242  -4.508  0.00  0.00    +0.046 A 
ATOM     33  S   UNL     1      -7.555  -5.676  -3.140  0.00  0.00    -0.092 S 
ENDBRANCH  27  29
ENDBRANCH  23  24
ENDBRANCH  21  23
ENDBRANCH  19  21
ENDBRANCH   1  19
TORSDOF 7
