REMARK  Name = ZINC43225524
REMARK  8 active torsions:
REMARK  status: ('A' for Active; 'I' for Inactive)
REMARK    1  A    between atoms: C_1  and  C_2
REMARK    2  A    between atoms: C_2  and  C_3
REMARK    3  A    between atoms: C_3  and  C_4
REMARK    4  A    between atoms: C_5  and  C_21
REMARK    5  A    between atoms: C_6  and  C_18
REMARK    6  A    between atoms: C_7  and  C_17
REMARK    7  A    between atoms: N_8  and  C_9
REMARK    8  A    between atoms: C_24  and  C_27
REMARK                            x       y       z     vdW  Elec       q    Type
REMARK                         _______ _______ _______ _____ _____    ______ ____
ROOT
ATOM      1  C   UNL     1      -1.491  -2.044   0.000  0.00  0.00    +0.028 A 
ATOM      2  C   UNL     1      -1.662  -2.849  -1.079  0.00  0.00    +0.015 A 
ATOM      3  C   UNL     1      -1.450  -4.226  -0.597  0.00  0.00    +0.065 A 
ATOM      4  C   UNL     1      -1.170  -4.121   0.736  0.00  0.00    +0.029 A 
ATOM      5  N   UNL     1      -1.190  -2.819   1.079  0.00  0.00    -0.344 N 
ATOM      6  C   UNL     1      -0.879  -5.271   1.665  0.00  0.00    +0.064 C 
ENDROOT
BRANCH   5   7
ATOM      7  C   UNL     1      -0.930  -2.308   2.428  0.00  0.00    +0.087 C 
ATOM      8  C   UNL     1       0.419  -2.833   2.921  0.00  0.00    +0.025 C 
ATOM      9  C   UNL     1       0.878  -2.009   4.126  0.00  0.00    +0.002 C 
ATOM     10  C   UNL     1       0.642  -0.523   3.848  0.00  0.00    +0.000 C 
ATOM     11  C   UNL     1      -0.443   0.006   4.788  0.00  0.00    +0.000 C 
ATOM     12  C   UNL     1      -1.814  -0.468   4.300  0.00  0.00    +0.000 C 
ATOM     13  C   UNL     1      -2.000  -1.944   4.656  0.00  0.00    +0.002 C 
ATOM     14  C   UNL     1      -2.037  -2.778   3.374  0.00  0.00    +0.025 C 
ENDBRANCH   5   7
BRANCH   2  15
ATOM     15  C   UNL     1      -1.995  -2.429  -2.462  0.00  0.00    -0.015 A 
ATOM     16  C   UNL     1      -3.221  -1.823  -2.732  0.00  0.00    +0.009 A 
ATOM     17  C   UNL     1      -3.525  -1.434  -4.021  0.00  0.00    +0.013 A 
ATOM     18  C   UNL     1      -2.618  -1.646  -5.043  0.00  0.00    +0.055 A 
ATOM     19  C   UNL     1      -1.400  -2.248  -4.780  0.00  0.00    +0.013 A 
ATOM     20  C   UNL     1      -1.082  -2.635  -3.494  0.00  0.00    +0.009 A 
BRANCH  18  21
ATOM     21  C   UNL     1      -2.957  -1.220  -6.448  0.00  0.00    +0.417 C 
ATOM     22  F   UNL     1      -2.527   0.096  -6.653  0.00  0.00    -0.166 F 
ATOM     23  F   UNL     1      -2.317  -2.067  -7.359  0.00  0.00    -0.166 F 
ATOM     24  F   UNL     1      -4.341  -1.292  -6.636  0.00  0.00    -0.166 F 
ENDBRANCH  18  21
ENDBRANCH   2  15
BRANCH   3  25
ATOM     25  C   UNL     1      -1.527  -5.463  -1.391  0.00  0.00    +0.244 C 
ATOM     26  O   UNL     1      -0.532  -5.894  -1.942  0.00  0.00    -0.270 OA
ATOM     27  N   UNL     1      -2.699  -6.118  -1.507  0.00  0.00    -0.325 N 
ATOM     28  H   UNL     1      -3.493  -5.774  -1.068  0.00  0.00    +0.145 HD
ATOM     29  H   UNL     1      -2.750  -6.933  -2.030  0.00  0.00    +0.145 HD
ENDBRANCH   3  25
BRANCH   1  30
ATOM     30  C   UNL     1      -1.607  -0.542   0.003  0.00  0.00    +0.054 C 
BRANCH  30  32
ATOM     31  C   UNL     1      -0.361   1.602  -0.306  0.00  0.00    +0.004 C 
ATOM     32  C   UNL     1      -0.243   0.076  -0.309  0.00  0.00    +0.003 C 
ENDBRANCH  30  32
ENDBRANCH   1  30
TORSDOF 6
