REMARK  Name = ZINC04798310
REMARK  8 active torsions:
REMARK  status: ('A' for Active; 'I' for Inactive)
REMARK    1  A    between atoms: C_1  and  C_2
REMARK    2  A    between atoms: C_4  and  N_24
REMARK    3  A    between atoms: C_7  and  N_8
REMARK    4  A    between atoms: N_8  and  C_9
REMARK    5  A    between atoms: C_11  and  O_23
REMARK    6  A    between atoms: C_13  and  O_22
REMARK    7  A    between atoms: C_15  and  O_21
REMARK    8  A    between atoms: C_17  and  C_20
REMARK                            x       y       z     vdW  Elec       q    Type
REMARK                         _______ _______ _______ _____ _____    ______ ____
ROOT
ATOM      1  C   UNL     1      -0.083   1.106   2.405  0.00  0.00    +0.235 C 
ATOM      2  C   UNL     1       1.351   1.637   2.491  0.00  0.00    +0.192 C 
ATOM      3  C   UNL     1       2.140   1.154   1.270  0.00  0.00    +0.178 C 
ATOM      4  C   UNL     1       1.423   1.616  -0.003  0.00  0.00    +0.174 C 
ATOM      5  C   UNL     1      -0.013   1.086   0.008  0.00  0.00    +0.149 C 
ATOM      6  O   UNL     1      -0.680   1.547   1.184  0.00  0.00    -0.351 OA
ATOM      7  C   UNL     1      -0.753   1.593  -1.231  0.00  0.00    +0.041 C 
ENDROOT
BRANCH   1   8
ATOM      8  N   UNL     1      -0.064  -0.358   2.440  0.00  0.00    -0.317 N 
ATOM      9  H   UNL     1       0.661  -0.844   2.017  0.00  0.00    +0.149 HD
BRANCH   8  16
ATOM     10  C   UNL     1       0.045  -3.201   2.448  0.00  0.00    +0.046 C 
ATOM     11  C   UNL     1      -1.077  -2.443   3.110  0.00  0.00    -0.027 A 
ATOM     12  C   UNL     1      -2.091  -3.129   3.750  0.00  0.00    +0.038 A 
ATOM     13  C   UNL     1      -3.124  -2.435   4.352  0.00  0.00    +0.127 A 
ATOM     14  C   UNL     1      -3.144  -1.052   4.321  0.00  0.00    +0.034 A 
ATOM     15  C   UNL     1      -2.130  -0.360   3.687  0.00  0.00    +0.025 A 
ATOM     16  C   UNL     1      -1.091  -1.055   3.081  0.00  0.00    +0.032 A 
BRANCH  13  17
ATOM     17  N   UNL     1      -4.212  -3.173   5.032  0.00  0.00    +0.056 N 
ATOM     18  O   UNL     1      -5.123  -2.563   5.564  0.00  0.00    -0.126 OA
ATOM     19  O   UNL     1      -4.197  -4.391   5.061  0.00  0.00    -0.126 OA
ENDBRANCH  13  17
ENDBRANCH   8  16
ENDBRANCH   1   8
BRANCH   4  20
ATOM     20  O   UNL     1       1.405   3.044  -0.049  0.00  0.00    -0.387 OA
ATOM     21  H   UNL     1       0.962   3.407  -0.828  0.00  0.00    +0.210 HD
ENDBRANCH   4  20
BRANCH   3  22
ATOM     22  O   UNL     1       3.458   1.705   1.304  0.00  0.00    -0.386 OA
ATOM     23  H   UNL     1       3.970   1.453   2.084  0.00  0.00    +0.210 HD
ENDBRANCH   3  22
BRANCH   2  24
ATOM     24  O   UNL     1       1.970   1.150   3.683  0.00  0.00    -0.385 OA
ATOM     25  H   UNL     1       1.522   1.419   4.497  0.00  0.00    +0.210 HD
ENDBRANCH   2  24
TORSDOF 6
