REMARK  Name = ZINC09222744
REMARK  6 active torsions:
REMARK  status: ('A' for Active; 'I' for Inactive)
REMARK    1  A    between atoms: C_1  and  C_2
REMARK    2  A    between atoms: C_9  and  C_11
REMARK    3  A    between atoms: C_11  and  O_13
REMARK    4  A    between atoms: O_13  and  C_14
REMARK    5  A    between atoms: C_14  and  C_15
REMARK    6  A    between atoms: N_17  and  C_18
REMARK                            x       y       z     vdW  Elec       q    Type
REMARK                         _______ _______ _______ _____ _____    ______ ____
ROOT
ATOM      1  C   UNL     1       2.354   5.231  -0.095  0.00  0.00    +0.255 C 
ATOM      2  O   UNL     1       1.299   5.830  -0.082  0.00  0.00    -0.272 OA
ATOM      3  N   UNL     1       2.365   3.886  -0.000  0.00  0.00    -0.282 N 
ATOM      4  H   UNL     1       3.209   3.412   0.070  0.00  0.00    +0.155 HD
ENDROOT
BRANCH   3   5
ATOM      5  C   UNL     1       1.159   3.173  -0.003  0.00  0.00    +0.050 A 
ATOM      6  C   UNL     1       0.033   3.721  -0.599  0.00  0.00    +0.052 A 
ATOM      7  C   UNL     1      -1.159   3.014  -0.600  0.00  0.00    +0.069 A 
ATOM      8  C   UNL     1      -1.220   1.750  -0.008  0.00  0.00    +0.068 A 
ATOM      9  C   UNL     1      -0.092   1.210   0.590  0.00  0.00    +0.045 A 
ATOM     10  C   UNL     1       1.094   1.917   0.591  0.00  0.00    +0.041 A 
ATOM     11 BR   UNL     1       2.633   1.177   1.401  0.00  0.00    -0.048 Br
ATOM     12  N   UNL     1      -2.530   1.297  -0.162  0.00  0.00    -0.306 N 
ATOM     13  H   UNL     1      -2.877   0.447   0.151  0.00  0.00    +0.170 HD
ATOM     14  C   UNL     1      -3.229   2.238  -0.825  0.00  0.00    +0.325 A 
ATOM     15  O   UNL     1      -4.405   2.155  -1.127  0.00  0.00    -0.247 OA
ATOM     16  N   UNL     1      -2.430   3.285  -1.103  0.00  0.00    -0.306 N 
ATOM     17  H   UNL     1      -2.694   4.092  -1.573  0.00  0.00    +0.170 HD
ENDBRANCH   3   5
BRANCH   1  18
ATOM     18  C   UNL     1       3.650   5.989  -0.217  0.00  0.00    +0.328 C 
BRANCH  18  19
ATOM     19  O   UNL     1       3.373   7.411  -0.303  0.00  0.00    -0.451 OA
BRANCH  19  20
ATOM     20  C   UNL     1       4.434   8.236  -0.418  0.00  0.00    +0.346 C 
ATOM     21  O   UNL     1       5.561   7.778  -0.444  0.00  0.00    -0.244 OA
BRANCH  20  29
ATOM     22  C   UNL     1       5.762  15.639  -1.313  0.00  0.00    +0.008 C 
ATOM     23  C   UNL     1       4.871  14.395  -1.340  0.00  0.00    -0.009 C 
ATOM     24  C   UNL     1       3.648  14.626  -0.448  0.00  0.00    +0.009 C 
ATOM     25  C   UNL     1       2.638  13.496  -0.693  0.00  0.00    +0.043 C 
ATOM     26  C   UNL     1       3.369  12.190  -0.641  0.00  0.00    -0.006 A 
ATOM     27  C   UNL     1       4.721  11.999  -0.699  0.00  0.00    -0.036 A 
ATOM     28  C   UNL     1       5.170  10.691  -0.625  0.00  0.00    +0.026 A 
ATOM     29  C   UNL     1       4.230   9.683  -0.510  0.00  0.00    +0.097 A 
ATOM     30  S   UNL     1       2.703  10.608  -0.495  0.00  0.00    -0.086 S 
ATOM     31  C   UNL     1       5.666  13.191  -0.833  0.00  0.00    +0.039 C 
ENDBRANCH  20  29
ENDBRANCH  19  20
ENDBRANCH  18  19
ENDBRANCH   1  18
TORSDOF 5
