REMARK  Name = ZINC59828412
REMARK  9 active torsions:
REMARK  status: ('A' for Active; 'I' for Inactive)
REMARK    1  A    between atoms: C_1  and  C_2
REMARK    2  A    between atoms: C_6  and  C_8
REMARK    3  A    between atoms: N_10  and  C_11
REMARK    4  A    between atoms: C_11  and  C_12
REMARK    5  A    between atoms: C_12  and  N_13
REMARK    6  A    between atoms: C_14  and  C_16
REMARK    7  A    between atoms: C_16  and  N_17
REMARK    8  A    between atoms: C_20  and  C_24
REMARK    9  A    between atoms: C_20  and  C_25
REMARK                            x       y       z     vdW  Elec       q    Type
REMARK                         _______ _______ _______ _____ _____    ______ ____
ROOT
ATOM      1  N   UNL     1       0.171 -10.733   5.679  0.00  0.00    -0.215 N 
ATOM      2  C   UNL     1      -0.934 -11.490   5.534  0.00  0.00    +0.251 C 
ATOM      3  O   UNL     1      -2.087 -11.124   5.608  0.00  0.00    -0.272 OA
ATOM      4  C   UNL     1      -0.436 -12.895   5.257  0.00  0.00    +0.135 C 
ATOM      5  N   UNL     1       1.030 -12.753   5.281  0.00  0.00    -0.281 N 
ATOM      6  C   UNL     1       1.287 -11.456   5.530  0.00  0.00    +0.310 C 
ATOM      7  O   UNL     1       2.408 -10.994   5.612  0.00  0.00    -0.252 OA
ATOM      8  C   UNL     1      -0.908 -13.373   3.883  0.00  0.00    +0.047 C 
ATOM      9  H   UNL     1       1.683 -13.457   5.142  0.00  0.00    +0.152 HD
ENDROOT
BRANCH   4  10
ATOM     10  C   UNL     1      -0.895 -13.842   6.336  0.00  0.00    -0.015 A 
ATOM     11  C   UNL     1      -2.100 -13.602   6.994  0.00  0.00    +0.007 A 
ATOM     12  C   UNL     1      -2.543 -14.437   7.972  0.00  0.00    +0.009 A 
ATOM     13  C   UNL     1      -1.776 -15.560   8.327  0.00  0.00    -0.018 A 
ATOM     14  C   UNL     1      -2.201 -16.446   9.332  0.00  0.00    +0.008 A 
ATOM     15  C   UNL     1      -1.433 -17.524   9.649  0.00  0.00    +0.001 A 
ATOM     16  C   UNL     1      -0.229 -17.765   8.990  0.00  0.00    +0.001 A 
ATOM     17  C   UNL     1       0.215 -16.929   8.012  0.00  0.00    +0.008 A 
ATOM     18  C   UNL     1      -0.551 -15.805   7.658  0.00  0.00    -0.018 A 
ATOM     19  C   UNL     1      -0.129 -14.923   6.649  0.00  0.00    +0.014 A 
ENDBRANCH   4  10
BRANCH   1  20
ATOM     20  C   UNL     1       0.154  -9.296   5.960  0.00  0.00    +0.213 C 
BRANCH  20  22
ATOM     21  N   UNL     1       0.120  -7.183   4.675  0.00  0.00    -0.313 N 
ATOM     22  C   UNL     1       0.138  -8.530   4.662  0.00  0.00    +0.231 C 
ATOM     23  O   UNL     1       0.141  -9.127   3.607  0.00  0.00    -0.274 OA
ATOM     24  H   UNL     1       0.117  -6.706   5.520  0.00  0.00    +0.149 HD
BRANCH  21  25
ATOM     25  C   UNL     1       0.104  -6.439   3.413  0.00  0.00    +0.123 C 
BRANCH  25  26
ATOM     26  C   UNL     1       0.086  -4.937   3.707  0.00  0.00    +0.123 C 
BRANCH  26  29
ATOM     27  C   UNL     1       0.052  -2.845   2.458  0.00  0.00    +0.244 C 
ATOM     28  O   UNL     1       0.049  -2.248   3.516  0.00  0.00    -0.270 OA
ATOM     29  N   UNL     1       0.070  -4.193   2.445  0.00  0.00    -0.310 N 
ATOM     30  H   UNL     1       0.072  -4.670   1.601  0.00  0.00    +0.149 HD
BRANCH  27  36
ATOM     31  C   UNL     1      -0.018   1.503   0.010  0.00  0.00    +0.044 C 
ATOM     32  C   UNL     1       0.002  -0.004   0.002  0.00  0.00    -0.050 A 
ATOM     33  C   UNL     1       0.006  -0.688  -1.201  0.00  0.00    +0.003 A 
ATOM     34  C   UNL     1       0.025  -2.071  -1.218  0.00  0.00    +0.001 A 
ATOM     35  C   UNL     1       0.040  -2.778  -0.033  0.00  0.00    +0.013 A 
ATOM     36  C   UNL     1       0.036  -2.095   1.184  0.00  0.00    +0.037 A 
ATOM     37  C   UNL     1       0.023  -0.699   1.194  0.00  0.00    +0.016 A 
ENDBRANCH  27  36
ENDBRANCH  26  29
ENDBRANCH  25  26
ENDBRANCH  21  25
ENDBRANCH  20  22
ENDBRANCH   1  20
TORSDOF 7
