REMARK  Name = ZINC62986142
REMARK  4 active torsions:
REMARK  status: ('A' for Active; 'I' for Inactive)
REMARK    1  A    between atoms: C_1  and  C_2
REMARK    2  A    between atoms: N_6  and  C_9
REMARK    3  A    between atoms: C_9  and  C_10
REMARK    4  A    between atoms: C_10  and  C_12
REMARK                            x       y       z     vdW  Elec       q    Type
REMARK                         _______ _______ _______ _____ _____    ______ ____
ROOT
ATOM      1  C   UNL     1       1.479  -3.038   2.888  0.00  0.00    +0.217 C 
ATOM      2  O   UNL     1       2.393  -2.628   2.203  0.00  0.00    -0.287 OA
ENDROOT
BRANCH   1   3
ATOM      3  C   UNL     1       1.754  -3.737   4.091  0.00  0.00    +0.173 A 
ATOM      4  C   UNL     1       2.996  -4.002   4.580  0.00  0.00    +0.061 A 
ATOM      5  C   UNL     1       2.817  -4.714   5.793  0.00  0.00    +0.021 A 
ATOM      6  C   UNL     1       3.697  -5.253   6.739  0.00  0.00    +0.011 A 
ATOM      7  C   UNL     1       3.201  -5.901   7.834  0.00  0.00    +0.001 A 
ATOM      8  C   UNL     1       1.831  -6.031   8.016  0.00  0.00    +0.004 A 
ATOM      9  C   UNL     1       0.947  -5.509   7.097  0.00  0.00    +0.047 A 
ATOM     10  C   UNL     1       1.427  -4.844   5.975  0.00  0.00    +0.136 A 
ATOM     11  O   UNL     1       0.823  -4.238   4.933  0.00  0.00    -0.452 OA
ENDBRANCH   1   3
BRANCH   1  12
ATOM     12  C   UNL     1       0.053  -2.805   2.461  0.00  0.00    +0.207 C 
BRANCH  12  18
ATOM     13  C   UNL     1      -0.018   1.503   0.010  0.00  0.00    +0.049 C 
ATOM     14  C   UNL     1       0.002  -0.004   0.002  0.00  0.00    +0.014 A 
ATOM     15  C   UNL     1       0.006  -0.687  -1.179  0.00  0.00    +0.010 A 
ATOM     16  C   UNL     1       0.025  -2.088  -1.160  0.00  0.00    +0.018 A 
ATOM     17  C   UNL     1       0.040  -2.748   0.022  0.00  0.00    +0.089 A 
ATOM     18  N   UNL     1       0.037  -2.067   1.196  0.00  0.00    -0.307 N 
ATOM     19  C   UNL     1       0.023  -0.721   1.211  0.00  0.00    +0.255 A 
ATOM     20  O   UNL     1       0.025  -0.122   2.275  0.00  0.00    -0.267 OA
ENDBRANCH  12  18
ENDBRANCH   1  12
TORSDOF 3
