REMARK  Name = ZINC26728633
REMARK  9 active torsions:
REMARK  status: ('A' for Active; 'I' for Inactive)
REMARK    1  A    between atoms: C_1  and  C_2
REMARK    2  A    between atoms: C_5  and  N_9
REMARK    3  A    between atoms: C_13  and  S_14
REMARK    4  A    between atoms: S_14  and  C_15
REMARK    5  A    between atoms: C_15  and  C_16
REMARK    6  A    between atoms: N_18  and  C_19
REMARK    7  A    between atoms: C_22  and  N_25
REMARK    8  A    between atoms: N_25  and  S_26
REMARK    9  A    between atoms: S_26  and  C_29
REMARK                            x       y       z     vdW  Elec       q    Type
REMARK                         _______ _______ _______ _____ _____    ______ ____
ROOT
ATOM      1  C   UNL     1      -5.471   2.277  -3.769  0.00  0.00    +0.227 C 
ATOM      2  O   UNL     1      -4.705   1.424  -4.165  0.00  0.00    -0.275 OA
ATOM      3  N   UNL     1      -6.659   2.454  -4.383  0.00  0.00    -0.285 N 
ATOM      4  H   UNL     1      -7.385   3.174  -3.977  0.00  0.00    +0.155 HD
ENDROOT
BRANCH   3   5
ATOM      5  C   UNL     1      -6.967   1.721  -5.536  0.00  0.00    +0.034 A 
ATOM      6  C   UNL     1      -7.720   2.302  -6.548  0.00  0.00    +0.025 A 
ATOM      7  C   UNL     1      -8.020   1.582  -7.686  0.00  0.00    +0.026 A 
ATOM      8  C   UNL     1      -7.578   0.272  -7.816  0.00  0.00    +0.048 A 
ATOM      9  C   UNL     1      -6.829  -0.312  -6.802  0.00  0.00    +0.026 A 
ATOM     10  C   UNL     1      -6.525   0.411  -5.665  0.00  0.00    +0.025 A 
BRANCH   8  11
ATOM     11  N   UNL     1      -7.886  -0.460  -8.968  0.00  0.00    -0.221 N 
ATOM     12  H   UNL     1      -7.356  -0.252  -9.909  0.00  0.00    +0.173 HD
BRANCH  11  13
ATOM     13  S   UNL     1      -9.047  -1.639  -8.914  0.00  0.00    +0.040 S 
ATOM     14  O   UNL     1      -9.108  -2.149 -10.239  0.00  0.00    -0.155 OA
ATOM     15  O   UNL     1      -8.662  -2.478  -7.833  0.00  0.00    -0.155 OA
ATOM     16  C   UNL     1     -10.583  -0.763  -8.510  0.00  0.00    +0.218 C 
ENDBRANCH  11  13
ENDBRANCH   8  11
ENDBRANCH   3   5
BRANCH   1  17
ATOM     17  C   UNL     1      -5.096   3.140  -2.592  0.00  0.00    +0.173 C 
BRANCH  17  18
ATOM     18  S   UNL     1      -3.455   2.663  -1.994  0.00  0.00    -0.076 S 
BRANCH  18  23
ATOM     19  N   UNL     1      -2.200   3.902   0.182  0.00  0.00    -0.277 N 
ATOM     20  C   UNL     1      -2.507   4.915   1.050  0.00  0.00    +0.230 A 
ATOM     21  N   UNL     1      -3.690   5.357   0.728  0.00  0.00    -0.137 NA
ATOM     22  N   UNL     1      -4.149   4.700  -0.276  0.00  0.00    -0.122 NA
ATOM     23  C   UNL     1      -3.275   3.797  -0.657  0.00  0.00    +0.196 A 
BRANCH  19  28
ATOM     24  C   UNL     1       2.555   0.803   0.071  0.00  0.00    +0.045 C 
ATOM     25  C   UNL     1       1.293   1.625   0.100  0.00  0.00    -0.032 A 
ATOM     26  C   UNL     1       1.369   3.005   0.143  0.00  0.00    +0.007 A 
ATOM     27  C   UNL     1       0.214   3.762   0.170  0.00  0.00    +0.026 A 
ATOM     28  C   UNL     1      -1.026   3.136   0.154  0.00  0.00    +0.051 A 
ATOM     29  C   UNL     1      -1.100   1.751   0.105  0.00  0.00    +0.046 A 
ATOM     30  C   UNL     1       0.059   0.998   0.084  0.00  0.00    +0.046 A 
ATOM     31 CL   UNL     1      -0.032  -0.735   0.031  0.00  0.00    -0.083 Cl
ENDBRANCH  19  28
ENDBRANCH  18  23
ENDBRANCH  17  18
ENDBRANCH   1  17
TORSDOF 7
