REMARK  Name = ZINC51279803
REMARK  10 active torsions:
REMARK  status: ('A' for Active; 'I' for Inactive)
REMARK    1  A    between atoms: C_1  and  C_2
REMARK    2  A    between atoms: C_2  and  C_3
REMARK    3  A    between atoms: C_3  and  C_4
REMARK    4  A    between atoms: C_4  and  C_6
REMARK    5  A    between atoms: C_4  and  N_7
REMARK    6  A    between atoms: C_8  and  C_10
REMARK    7  A    between atoms: N_19  and  C_20
REMARK    8  A    between atoms: C_20  and  C_21
REMARK    9  A    between atoms: C_21  and  C_22
REMARK   10  A    between atoms: C_25  and  N_28
REMARK                            x       y       z     vdW  Elec       q    Type
REMARK                         _______ _______ _______ _____ _____    ______ ____
ROOT
ATOM      1  C   UNL     1      -2.345  -4.284  -1.029  0.00  0.00    +0.092 C 
ATOM      2  C   UNL     1      -2.419  -5.691  -0.432  0.00  0.00    +0.016 C 
ATOM      3  C   UNL     1      -3.843  -6.233  -0.575  0.00  0.00    +0.020 C 
ATOM      4  C   UNL     1      -4.809  -5.329   0.197  0.00  0.00    +0.109 C 
ATOM      5  N   UNL     1      -4.640  -3.947  -0.272  0.00  0.00    -0.285 N 
ATOM      6  C   UNL     1      -3.295  -3.357  -0.263  0.00  0.00    +0.122 C 
ATOM      7  C   UNL     1      -5.699  -3.234  -0.703  0.00  0.00    +0.302 C 
ATOM      8  O   UNL     1      -5.563  -2.063  -1.002  0.00  0.00    -0.253 OA
ATOM      9  N   UNL     1      -6.910  -3.818  -0.802  0.00  0.00    -0.299 N 
ATOM     10  H   UNL     1      -7.035  -4.729  -0.495  0.00  0.00    +0.150 HD
ENDROOT
BRANCH   1  12
ATOM     11  N   UNL     1      -0.632  -2.534  -1.379  0.00  0.00    -0.312 N 
ATOM     12  C   UNL     1      -0.935  -3.763  -0.917  0.00  0.00    +0.218 C 
ATOM     13  O   UNL     1      -0.073  -4.450  -0.410  0.00  0.00    -0.275 OA
ATOM     14  H   UNL     1      -1.321  -1.984  -1.784  0.00  0.00    +0.149 HD
BRANCH  11  15
ATOM     15  C   UNL     1       0.739  -2.028  -1.270  0.00  0.00    +0.070 C 
ATOM     16  C   UNL     1       1.560  -2.519  -2.463  0.00  0.00    +0.028 C 
BRANCH  15  17
ATOM     17  C   UNL     1       0.718  -0.498  -1.261  0.00  0.00    +0.022 C 
BRANCH  17  19
ATOM     18  C   UNL     1      -0.018   1.525   0.009  0.00  0.00    +0.004 C 
ATOM     19  C   UNL     1       0.003  -0.005  -0.001  0.00  0.00    -0.002 C 
ENDBRANCH  17  19
ENDBRANCH  15  17
ENDBRANCH  11  15
ENDBRANCH   1  12
BRANCH   9  20
ATOM     20  C   UNL     1      -8.036  -3.076  -1.375  0.00  0.00    +0.110 C 
BRANCH  20  21
ATOM     21  C   UNL     1      -9.284  -3.962  -1.372  0.00  0.00    +0.054 C 
BRANCH  21  22
ATOM     22  C   UNL     1     -10.443  -3.199  -1.960  0.00  0.00    -0.046 A 
ATOM     23  C   UNL     1     -11.257  -2.438  -1.142  0.00  0.00    +0.006 A 
ATOM     24  C   UNL     1     -12.320  -1.739  -1.682  0.00  0.00    +0.033 A 
ATOM     25  C   UNL     1     -12.568  -1.800  -3.040  0.00  0.00    +0.126 A 
ATOM     26  C   UNL     1     -11.754  -2.560  -3.859  0.00  0.00    +0.033 A 
ATOM     27  C   UNL     1     -10.689  -3.256  -3.320  0.00  0.00    +0.006 A 
BRANCH  25  28
ATOM     28  N   UNL     1     -13.707  -1.051  -3.619  0.00  0.00    +0.056 N 
ATOM     29  O   UNL     1     -14.420  -0.387  -2.903  0.00  0.00    -0.126 OA
ATOM     30  O   UNL     1     -13.925  -1.104  -4.806  0.00  0.00    -0.126 OA
ENDBRANCH  25  28
ENDBRANCH  21  22
ENDBRANCH  20  21
ENDBRANCH   9  20
TORSDOF 8
