REMARK  Name = ZINC39637160
REMARK  6 active torsions:
REMARK  status: ('A' for Active; 'I' for Inactive)
REMARK    1  A    between atoms: C_1  and  C_2
REMARK    2  A    between atoms: C_7  and  N_12
REMARK    3  A    between atoms: C_9  and  C_11
REMARK    4  A    between atoms: C_13  and  C_15
REMARK    5  A    between atoms: C_26  and  C_28
REMARK    6  A    between atoms: C_31  and  C_34
REMARK                            x       y       z     vdW  Elec       q    Type
REMARK                         _______ _______ _______ _____ _____    ______ ____
ROOT
ATOM      1  C   UNL     1       2.094  -4.484   3.539  0.00  0.00    +0.100 C 
ATOM      2  C   UNL     1       3.637  -4.573   3.538  0.00  0.00    +0.121 C 
ATOM      3  N   UNL     1       3.943  -5.776   4.347  0.00  0.00    -0.296 N 
ATOM      4  C   UNL     1       2.903  -6.758   3.956  0.00  0.00    +0.115 C 
ATOM      5  C   UNL     1       1.616  -5.920   3.813  0.00  0.00    -0.004 C 
ATOM      6  C   UNL     1       0.782  -6.431   2.642  0.00  0.00    -0.010 C 
ATOM      7  C   UNL     1       0.270  -7.838   2.962  0.00  0.00    -0.082 C 
ATOM      8  N   UNL     1      -0.540  -7.799   4.186  0.00  0.00    +0.379 N 
ATOM      9  C   UNL     1       0.293  -7.396   5.325  0.00  0.00    -0.082 C 
ATOM     10  C   UNL     1       0.807  -5.970   5.105  0.00  0.00    -0.010 C 
ATOM     11  C   UNL     1       4.942  -5.941   5.237  0.00  0.00    +0.247 C 
ATOM     12  O   UNL     1       5.654  -5.002   5.533  0.00  0.00    -0.270 OA
ATOM     13  H   UNL     1      -1.292  -7.137   4.070  0.00  0.00    -0.086 HD
ATOM     14  H   UNL     1      -0.926  -8.715   4.361  0.00  0.00    -0.086 HD
ENDROOT
BRANCH  11  15
ATOM     15  C   UNL     1       5.172  -7.266   5.852  0.00  0.00    +0.037 A 
ATOM     16  C   UNL     1       4.697  -8.421   5.229  0.00  0.00    +0.013 A 
ATOM     17  C   UNL     1       4.915  -9.653   5.809  0.00  0.00    +0.013 A 
ATOM     18  C   UNL     1       5.602  -9.746   7.006  0.00  0.00    +0.055 A 
ATOM     19  C   UNL     1       6.075  -8.605   7.629  0.00  0.00    +0.013 A 
ATOM     20  C   UNL     1       5.869  -7.367   7.057  0.00  0.00    +0.013 A 
BRANCH  18  21
ATOM     21  C   UNL     1       5.837 -11.096   7.633  0.00  0.00    +0.417 C 
ATOM     22  F   UNL     1       7.045 -11.624   7.167  0.00  0.00    -0.166 F 
ATOM     23  F   UNL     1       5.893 -10.960   9.025  0.00  0.00    -0.166 F 
ATOM     24  F   UNL     1       4.788 -11.958   7.292  0.00  0.00    -0.166 F 
ENDBRANCH  18  21
ENDBRANCH  11  15
BRANCH   1  26
ATOM     25  N   UNL     1       0.442  -3.319   2.114  0.00  0.00    -0.312 N 
ATOM     26  C   UNL     1       1.595  -4.011   2.198  0.00  0.00    +0.218 C 
ATOM     27  O   UNL     1       2.231  -4.255   1.194  0.00  0.00    -0.275 OA
ATOM     28  H   UNL     1      -0.067  -3.124   2.917  0.00  0.00    +0.149 HD
BRANCH  25  34
ATOM     29  C   UNL     1      -3.587  -2.024  -0.442  0.00  0.00    +0.008 C 
ATOM     30  C   UNL     1      -2.069  -2.202  -0.496  0.00  0.00    -0.009 C 
ATOM     31  C   UNL     1      -1.411  -0.865  -0.843  0.00  0.00    +0.003 C 
ATOM     32  C   UNL     1       0.108  -1.042  -0.898  0.00  0.00    +0.002 C 
ATOM     33  C   UNL     1       0.615  -1.522   0.464  0.00  0.00    +0.022 C 
ATOM     34  C   UNL     1      -0.043  -2.859   0.810  0.00  0.00    +0.076 C 
ATOM     35  C   UNL     1      -1.562  -2.682   0.865  0.00  0.00    +0.009 C 
ATOM     36  C   UNL     1      -2.220  -4.019   1.212  0.00  0.00    +0.009 C 
ENDBRANCH  25  34
ENDBRANCH   1  26
TORSDOF 4
