REMARK  Name = ZINC36660305
REMARK  12 active torsions:
REMARK  status: ('A' for Active; 'I' for Inactive)
REMARK    1  A    between atoms: C_1  and  C_2
REMARK    2  A    between atoms: C_5  and  S_8
REMARK    3  A    between atoms: S_8  and  N_11
REMARK    4  A    between atoms: C_15  and  C_17
REMARK    5  A    between atoms: N_19  and  C_20
REMARK    6  A    between atoms: C_20  and  C_21
REMARK    7  A    between atoms: C_21  and  C_22
REMARK    8  A    between atoms: C_22  and  N_23
REMARK    9  A    between atoms: N_23  and  C_24
REMARK   10  A    between atoms: N_23  and  C_25
REMARK   11  A    between atoms: C_30  and  C_36
REMARK   12  A    between atoms: C_32  and  C_35
REMARK                            x       y       z     vdW  Elec       q    Type
REMARK                         _______ _______ _______ _____ _____    ______ ____
ROOT
ATOM      1  C   UNL     1       2.696  -4.129   1.821  0.00  0.00    +0.240 C 
ATOM      2  O   UNL     1       2.045  -3.123   1.639  0.00  0.00    -0.273 OA
ATOM      3  N   UNL     1       3.545  -4.203   2.865  0.00  0.00    -0.249 N 
ATOM      4  C   UNL     1       3.758  -3.091   3.664  0.00  0.00    +0.168 A 
ATOM      5  N   UNL     1       4.542  -2.967   4.710  0.00  0.00    -0.224 NA
ATOM      6  C   UNL     1       4.653  -1.812   5.401  0.00  0.00    +0.081 A 
ATOM      7  C   UNL     1       5.454  -1.546   6.536  0.00  0.00    +0.032 A 
ATOM      8  C   UNL     1       5.449  -0.308   7.122  0.00  0.00    -0.048 A 
ATOM      9  C   UNL     1       4.665   0.725   6.628  0.00  0.00    +0.008 A 
ATOM     10  C   UNL     1       3.870   0.501   5.519  0.00  0.00    -0.034 A 
ATOM     11  C   UNL     1       3.868  -0.736   4.926  0.00  0.00    +0.044 A 
ATOM     12  S   UNL     1       3.042  -1.459   3.529  0.00  0.00    -0.052 S 
ATOM     13  C   UNL     1       3.011   1.609   4.966  0.00  0.00    +0.045 C 
ATOM     14  C   UNL     1       6.315  -0.062   8.331  0.00  0.00    +0.044 C 
ENDROOT
BRANCH   1  19
ATOM     15  N   UNL     1       1.234  -5.268   0.238  0.00  0.00    -0.165 NA
ATOM     16  C   UNL     1       1.420  -5.175  -1.221  0.00  0.00    +0.110 C 
ATOM     17  C   UNL     1       2.823  -4.546  -1.404  0.00  0.00    +0.019 C 
ATOM     18  C   UNL     1       3.613  -5.203  -0.240  0.00  0.00    +0.031 C 
ATOM     19  C   UNL     1       2.556  -5.298   0.880  0.00  0.00    +0.166 C 
BRANCH  15  20
ATOM     20  S   UNL     1      -0.222  -5.321   1.025  0.00  0.00    +0.062 S 
ATOM     21  O   UNL     1       0.040  -5.812   2.332  0.00  0.00    -0.153 OA
ATOM     22  O   UNL     1      -1.137  -5.956   0.142  0.00  0.00    -0.153 OA
BRANCH  20  27
ATOM     23  C   UNL     1      -2.116   0.372   1.667  0.00  0.00    +0.044 C 
ATOM     24  C   UNL     1      -1.643  -1.050   1.507  0.00  0.00    -0.050 A 
ATOM     25  C   UNL     1      -1.891  -1.733   0.330  0.00  0.00    +0.005 A 
ATOM     26  C   UNL     1      -1.457  -3.037   0.183  0.00  0.00    +0.029 A 
ATOM     27  C   UNL     1      -0.774  -3.658   1.212  0.00  0.00    +0.106 A 
ATOM     28  C   UNL     1      -0.525  -2.976   2.388  0.00  0.00    +0.029 A 
ATOM     29  C   UNL     1      -0.956  -1.670   2.534  0.00  0.00    +0.005 A 
ENDBRANCH  20  27
ENDBRANCH  15  20
ENDBRANCH   1  19
BRANCH   3  30
ATOM     30  C   UNL     1       4.243  -5.458   3.156  0.00  0.00    +0.114 C 
BRANCH  30  31
ATOM     31  C   UNL     1       5.610  -5.452   2.469  0.00  0.00    +0.001 C 
BRANCH  31  32
ATOM     32  C   UNL     1       6.289  -6.808   2.673  0.00  0.00    -0.078 C 
BRANCH  32  33
ATOM     33  N   UNL     1       7.602  -6.802   2.014  0.00  0.00    +0.376 N 
ATOM     34  C   UNL     1       8.478  -5.825   2.675  0.00  0.00    -0.097 C 
ATOM     35  C   UNL     1       8.202  -8.140   2.106  0.00  0.00    -0.097 C 
ATOM     36  H   UNL     1       7.490  -6.550   1.043  0.00  0.00    -0.083 HD
ENDBRANCH  32  33
ENDBRANCH  31  32
ENDBRANCH  30  31
ENDBRANCH   3  30
TORSDOF 7
