REMARK  Name = ZINC36607444
REMARK  16 active torsions:
REMARK  status: ('A' for Active; 'I' for Inactive)
REMARK    1  A    between atoms: C_1  and  C_2
REMARK    2  A    between atoms: C_2  and  C_3
REMARK    3  A    between atoms: C_3  and  C_5
REMARK    4  A    between atoms: C_3  and  C_11
REMARK    5  A    between atoms: N_13  and  C_14
REMARK    6  A    between atoms: N_13  and  C_20
REMARK    7  A    between atoms: C_20  and  C_22
REMARK    8  A    between atoms: C_20  and  C_31
REMARK    9  A    between atoms: N_33  and  C_34
REMARK   10  A    between atoms: C_34  and  C_35
REMARK   11  A    between atoms: C_34  and  C_36
REMARK   12  A    between atoms: C_34  and  C_37
REMARK   13  A    between atoms: C_37  and  C_38
REMARK   14  A    between atoms: C_38  and  C_39
REMARK   15  A    between atoms: C_38  and  C_40
REMARK   16  A    between atoms: C_38  and  C_41
REMARK                            x       y       z     vdW  Elec       q    Type
REMARK                         _______ _______ _______ _____ _____    ______ ____
ROOT
ATOM      1  C   UNL     1       1.952  -6.072  -0.327  0.00  0.00    +0.197 C 
ENDROOT
BRANCH   1   2
ATOM      2  C   UNL     1       2.049  -5.269  -1.598  0.00  0.00    -0.014 A 
ATOM      3  C   UNL     1       1.737  -3.922  -1.588  0.00  0.00    +0.010 A 
ATOM      4  C   UNL     1       1.825  -3.180  -2.752  0.00  0.00    +0.050 A 
ATOM      5  C   UNL     1       2.226  -3.786  -3.931  0.00  0.00    +0.166 A 
ATOM      6  C   UNL     1       2.540  -5.143  -3.941  0.00  0.00    +0.167 A 
ATOM      7  C   UNL     1       2.455  -5.878  -2.770  0.00  0.00    +0.055 A 
ATOM      8  O   UNL     1       2.903  -5.497  -5.208  0.00  0.00    -0.453 OA
ATOM      9  C   UNL     1       2.416  -4.441  -6.057  0.00  0.00    +0.466 C 
ATOM     10  O   UNL     1       2.392  -3.290  -5.192  0.00  0.00    -0.453 OA
ENDBRANCH   1   2
BRANCH   1  11
ATOM     11  C   UNL     1       0.509  -6.411  -0.056  0.00  0.00    +0.239 C 
ATOM     12  O   UNL     1      -0.172  -5.668   0.619  0.00  0.00    -0.273 OA
ATOM     13  N   UNL     1      -0.025  -7.539  -0.564  0.00  0.00    -0.308 N 
ATOM     14  H   UNL     1       0.519  -8.134  -1.103  0.00  0.00    +0.149 HD
BRANCH  13  15
ATOM     15  C   UNL     1      -1.429  -7.869  -0.300  0.00  0.00    +0.030 C 
ATOM     16  C   UNL     1      -1.612  -8.165   1.190  0.00  0.00    +0.031 C 
ATOM     17  C   UNL     1      -2.313  -6.685  -0.697  0.00  0.00    +0.031 C 
BRANCH  15  18
ATOM     18  C   UNL     1      -1.826  -9.100  -1.117  0.00  0.00    +0.031 C 
BRANCH  18  19
ATOM     19  C   UNL     1      -1.814  -8.748  -2.606  0.00  0.00    -0.036 C 
ATOM     20  C   UNL     1      -0.566  -7.923  -2.926  0.00  0.00    +0.010 C 
ATOM     21  C   UNL     1      -1.801 -10.035  -3.434  0.00  0.00    +0.010 C 
ATOM     22  C   UNL     1      -3.065  -7.935  -2.948  0.00  0.00    +0.010 C 
ENDBRANCH  18  19
ENDBRANCH  15  18
ENDBRANCH  13  15
ENDBRANCH   1  11
BRANCH   1  25
ATOM     23  C   UNL     1       3.771  -4.877   0.769  0.00  0.00    +0.228 C 
ATOM     24  O   UNL     1       4.460  -5.087  -0.207  0.00  0.00    -0.275 OA
ATOM     25  N   UNL     1       2.487  -5.288   0.789  0.00  0.00    -0.255 N 
BRANCH  25  26
ATOM     26  C   UNL     1       1.666  -4.966   1.875  0.00  0.00    +0.037 A 
ATOM     27  C   UNL     1       1.205  -5.967   2.720  0.00  0.00    +0.023 A 
ATOM     28  C   UNL     1       0.395  -5.645   3.791  0.00  0.00    +0.002 A 
ATOM     29  C   UNL     1       0.043  -4.328   4.023  0.00  0.00    +0.000 A 
ATOM     30  C   UNL     1       0.499  -3.329   3.183  0.00  0.00    +0.002 A 
ATOM     31  C   UNL     1       1.315  -3.643   2.113  0.00  0.00    +0.023 A 
ENDBRANCH  25  26
BRANCH  23  32
ATOM     32  C   UNL     1       4.350  -4.156   1.959  0.00  0.00    +0.105 C 
BRANCH  32  33
ATOM     33  C   UNL     1       5.666  -3.530   1.576  0.00  0.00    -0.036 A 
ATOM     34  C   UNL     1       6.703  -4.324   1.123  0.00  0.00    +0.004 A 
ATOM     35  C   UNL     1       7.910  -3.751   0.772  0.00  0.00    +0.000 A 
ATOM     36  C   UNL     1       8.081  -2.382   0.872  0.00  0.00    +0.000 A 
ATOM     37  C   UNL     1       7.043  -1.588   1.323  0.00  0.00    +0.000 A 
ATOM     38  C   UNL     1       5.834  -2.162   1.671  0.00  0.00    +0.004 A 
ENDBRANCH  32  33
BRANCH  32  40
ATOM     39  C   UNL     1       4.840  -4.387   4.398  0.00  0.00    +0.005 C 
ATOM     40  C   UNL     1       4.571  -5.151   3.100  0.00  0.00    +0.014 C 
ENDBRANCH  32  40
ENDBRANCH  23  32
ENDBRANCH   1  25
TORSDOF 10
