REMARK  Name = ZINC42015729
REMARK  3 active torsions:
REMARK  status: ('A' for Active; 'I' for Inactive)
REMARK    1  A    between atoms: C_4  and  N_20
REMARK    2  A    between atoms: C_6  and  C_7
REMARK    3  A    between atoms: N_11  and  C_12
REMARK                            x       y       z     vdW  Elec       q    Type
REMARK                         _______ _______ _______ _____ _____    ______ ____
ROOT
ATOM      1  C   UNL     1      -1.284  -0.747   0.132  0.00  0.00    +0.187 A 
ATOM      2  N   UNL     1      -1.415  -2.051   0.264  0.00  0.00    -0.108 NA
ATOM      3  N   UNL     1      -2.634  -2.404   0.068  0.00  0.00    -0.022 NA
ATOM      4  N   UNL     1      -3.365  -1.377  -0.200  0.00  0.00    -0.039 NA
ATOM      5  N   UNL     1      -2.521  -0.253  -0.165  0.00  0.00    -0.190 N 
ENDROOT
BRANCH   5   6
ATOM      6  C   UNL     1      -2.872   1.086  -0.389  0.00  0.00    +0.105 A 
ATOM      7  C   UNL     1      -2.233   1.816  -1.381  0.00  0.00    +0.033 A 
ATOM      8  C   UNL     1      -2.581   3.134  -1.601  0.00  0.00    +0.040 A 
ATOM      9  C   UNL     1      -3.567   3.729  -0.832  0.00  0.00    +0.126 A 
ATOM     10  C   UNL     1      -4.207   3.005   0.159  0.00  0.00    +0.078 A 
ATOM     11  C   UNL     1      -3.866   1.683   0.379  0.00  0.00    +0.152 A 
ATOM     12  F   UNL     1      -4.494   0.973   1.343  0.00  0.00    -0.203 F 
ATOM     13  F   UNL     1      -3.905   5.020  -1.048  0.00  0.00    -0.205 F 
ENDBRANCH   5   6
BRANCH   1  19
ATOM     14  C   UNL     1      -0.095   1.407   0.522  0.00  0.00    +0.013 A 
ATOM     15  C   UNL     1       1.071   2.133   0.663  0.00  0.00    +0.018 A 
ATOM     16  C   UNL     1       2.298   1.504   0.570  0.00  0.00    +0.039 A 
ATOM     17  C   UNL     1       2.366   0.135   0.333  0.00  0.00    +0.039 A 
ATOM     18  C   UNL     1       1.201  -0.603   0.190  0.00  0.00    +0.035 A 
ATOM     19  C   UNL     1      -0.036   0.033   0.284  0.00  0.00    +0.023 A 
ATOM     20 BR   UNL     1       3.889   2.507   0.764  0.00  0.00    -0.048 Br
BRANCH  17  21
ATOM     21  N   UNL     1       3.609  -0.497   0.239  0.00  0.00    -0.357 N 
ATOM     22  H   UNL     1       4.424   0.018   0.339  0.00  0.00    +0.142 HD
ATOM     23  H   UNL     1       3.656  -1.452   0.074  0.00  0.00    +0.142 HD
ENDBRANCH  17  21
ENDBRANCH   1  19
TORSDOF 3
