REMARK  Name = ZINC39754567
REMARK  9 active torsions:
REMARK  status: ('A' for Active; 'I' for Inactive)
REMARK    1  A    between atoms: C_1  and  O_2
REMARK    2  A    between atoms: O_2  and  C_3
REMARK    3  A    between atoms: C_7  and  C_9
REMARK    4  A    between atoms: C_16  and  O_20
REMARK    5  A    between atoms: O_20  and  C_21
REMARK    6  A    between atoms: C_21  and  C_22
REMARK    7  A    between atoms: C_22  and  O_24
REMARK    8  A    between atoms: O_24  and  C_25
REMARK    9  A    between atoms: C_25  and  C_26
REMARK                            x       y       z     vdW  Elec       q    Type
REMARK                         _______ _______ _______ _____ _____    ______ ____
ROOT
ATOM      1  C   UNL     1       1.335  -4.070  -2.305  0.00  0.00    +0.058 C 
ATOM      2  C   UNL     1       1.847  -4.665  -3.410  0.00  0.00    +0.176 C 
ATOM      3  C   UNL     1       1.872  -6.111  -3.689  0.00  0.00    +0.231 C 
ATOM      4  O   UNL     1       1.444  -7.012  -2.990  0.00  0.00    -0.283 OA
ATOM      5  C   UNL     1       2.530  -6.222  -5.003  0.00  0.00    +0.068 A 
ATOM      6  C   UNL     1       2.856  -7.308  -5.818  0.00  0.00    +0.019 A 
ATOM      7  C   UNL     1       3.480  -7.097  -7.014  0.00  0.00    +0.046 A 
ATOM      8  C   UNL     1       3.792  -5.803  -7.423  0.00  0.00    +0.125 A 
ATOM      9  C   UNL     1       3.474  -4.716  -6.624  0.00  0.00    +0.092 A 
ATOM     10  C   UNL     1       2.839  -4.913  -5.404  0.00  0.00    +0.143 A 
ATOM     11  O   UNL     1       2.425  -4.038  -4.462  0.00  0.00    -0.451 OA
ENDROOT
BRANCH   1  16
ATOM     12  C   UNL     1       1.792  -0.439  -3.134  0.00  0.00    +0.121 A 
ATOM     13  C   UNL     1       1.152   0.162  -2.057  0.00  0.00    +0.045 A 
ATOM     14  C   UNL     1       0.574  -0.612  -1.068  0.00  0.00    +0.004 A 
ATOM     15  C   UNL     1       0.630  -1.988  -1.141  0.00  0.00    +0.008 A 
ATOM     16  C   UNL     1       1.272  -2.604  -2.221  0.00  0.00    -0.018 A 
ATOM     17  C   UNL     1       1.850  -1.818  -3.224  0.00  0.00    +0.053 A 
BRANCH  12  19
ATOM     18  C   UNL     1       2.259   1.746  -3.946  0.00  0.00    +0.277 C 
ATOM     19  O   UNL     1       2.356   0.329  -4.103  0.00  0.00    -0.495 OA
ENDBRANCH  12  19
ENDBRANCH   1  16
BRANCH   8  20
ATOM     20  O   UNL     1       4.413  -5.604  -8.613  0.00  0.00    -0.481 OA
BRANCH  20  21
ATOM     21  C   UNL     1       4.714  -6.765  -9.389  0.00  0.00    +0.349 C 
BRANCH  21  22
ATOM     22  C   UNL     1       5.397  -6.351 -10.668  0.00  0.00    +0.345 C 
ATOM     23  O   UNL     1       5.605  -5.182 -10.891  0.00  0.00    -0.247 OA
BRANCH  22  24
ATOM     24  O   UNL     1       5.775  -7.282 -11.558  0.00  0.00    -0.458 OA
BRANCH  24  25
ATOM     25  C   UNL     1       6.417  -6.818 -12.748  0.00  0.00    +0.259 C 
BRANCH  25  26
ATOM     26  C   UNL     1       6.766  -7.995 -13.621  0.00  0.00    +0.006 C 
ATOM     27  C   UNL     1       6.521  -7.952 -14.908  0.00  0.00    +0.007 C 
ENDBRANCH  25  26
ENDBRANCH  24  25
ENDBRANCH  22  24
ENDBRANCH  21  22
ENDBRANCH  20  21
ENDBRANCH   8  20
TORSDOF 8
