REMARK  Name = ZINC02863462
REMARK  5 active torsions:
REMARK  status: ('A' for Active; 'I' for Inactive)
REMARK    1  A    between atoms: C_4  and  S_7
REMARK    2  A    between atoms: S_7  and  N_10
REMARK    3  A    between atoms: N_10  and  C_11
REMARK    4  A    between atoms: C_11  and  C_25
REMARK    5  A    between atoms: N_14  and  C_18
REMARK                            x       y       z     vdW  Elec       q    Type
REMARK                         _______ _______ _______ _____ _____    ______ ____
ROOT
ATOM      1  C   UNL     1      -3.602   3.161  -2.204  0.00  0.00    +0.280 C 
ATOM      2  C   UNL     1      -3.740   3.489  -3.677  0.00  0.00    +0.276 C 
ATOM      3  O   UNL     1      -4.479   4.309  -4.178  0.00  0.00    -0.271 OA
ATOM      4  N   UNL     1      -2.871   2.680  -4.314  0.00  0.00    -0.191 N 
ATOM      5  C   UNL     1      -2.209   1.894  -3.457  0.00  0.00    +0.315 C 
ATOM      6  O   UNL     1      -1.372   1.080  -3.794  0.00  0.00    -0.252 OA
ATOM      7  N   UNL     1      -2.574   2.106  -2.179  0.00  0.00    -0.265 N 
ATOM      8  H   UNL     1      -2.228   1.651  -1.395  0.00  0.00    +0.153 HD
ENDROOT
BRANCH   4   9
ATOM      9  C   UNL     1      -2.683   2.663  -5.704  0.00  0.00    +0.046 A 
ATOM     10  C   UNL     1      -3.392   3.541  -6.512  0.00  0.00    +0.025 A 
ATOM     11  C   UNL     1      -3.202   3.526  -7.880  0.00  0.00    +0.022 A 
ATOM     12  C   UNL     1      -2.313   2.629  -8.446  0.00  0.00    +0.041 A 
ATOM     13  C   UNL     1      -1.610   1.749  -7.643  0.00  0.00    +0.022 A 
ATOM     14  C   UNL     1      -1.792   1.764  -6.274  0.00  0.00    +0.025 A 
ATOM     15 CL   UNL     1      -2.082   2.608 -10.166  0.00  0.00    -0.084 Cl
ENDBRANCH   4   9
BRANCH   1  16
ATOM     16  C   UNL     1      -4.924   2.638  -1.639  0.00  0.00    +0.435 C 
ATOM     17  F   UNL     1      -5.870   3.668  -1.636  0.00  0.00    -0.166 F 
ATOM     18  F   UNL     1      -5.386   1.583  -2.433  0.00  0.00    -0.166 F 
ATOM     19  F   UNL     1      -4.725   2.184  -0.331  0.00  0.00    -0.166 F 
ENDBRANCH   1  16
BRANCH   1  20
ATOM     20  N   UNL     1      -3.151   4.336  -1.454  0.00  0.00    -0.151 NA
ATOM     21  H   UNL     1      -3.705   4.700  -0.745  0.00  0.00    +0.151 HD
BRANCH  20  22
ATOM     22  S   UNL     1      -1.698   5.043  -1.816  0.00  0.00    +0.061 S 
ATOM     23  O   UNL     1      -0.758   3.987  -1.961  0.00  0.00    -0.153 OA
ATOM     24  O   UNL     1      -1.518   6.100  -0.884  0.00  0.00    -0.153 OA
BRANCH  22  28
ATOM     25  C   UNL     1      -2.123   6.967  -5.891  0.00  0.00    +0.000 A 
ATOM     26  C   UNL     1      -1.532   5.723  -5.772  0.00  0.00    +0.002 A 
ATOM     27  C   UNL     1      -1.407   5.133  -4.529  0.00  0.00    +0.028 A 
ATOM     28  C   UNL     1      -1.864   5.792  -3.402  0.00  0.00    +0.105 A 
ATOM     29  C   UNL     1      -2.454   7.036  -3.521  0.00  0.00    +0.028 A 
ATOM     30  C   UNL     1      -2.583   7.624  -4.765  0.00  0.00    +0.002 A 
ENDBRANCH  22  28
ENDBRANCH  20  22
ENDBRANCH   1  20
TORSDOF 5
