REMARK  Name = ZINC49910550
REMARK  9 active torsions:
REMARK  status: ('A' for Active; 'I' for Inactive)
REMARK    1  A    between atoms: C_1  and  C_2
REMARK    2  A    between atoms: C_2  and  C_3
REMARK    3  A    between atoms: C_3  and  C_4
REMARK    4  A    between atoms: C_4  and  N_5
REMARK    5  A    between atoms: N_5  and  C_6
REMARK    6  A    between atoms: C_7  and  C_9
REMARK    7  A    between atoms: C_9  and  C_10
REMARK    8  A    between atoms: C_10  and  C_11
REMARK    9  A    between atoms: C_11  and  C_13
REMARK                            x       y       z     vdW  Elec       q    Type
REMARK                         _______ _______ _______ _____ _____    ______ ____
ROOT
ATOM      1  C   UNL     1      -6.700  -4.038   2.654  0.00  0.00    +0.164 C 
ATOM      2  O   UNL     1      -7.279  -4.242   1.609  0.00  0.00    -0.292 OA
ENDROOT
BRANCH   1   3
ATOM      3  C   UNL     1      -7.378  -4.299   3.934  0.00  0.00    +0.018 A 
ATOM      4  C   UNL     1      -6.719  -4.060   5.144  0.00  0.00    +0.011 A 
ATOM      5  C   UNL     1      -7.365  -4.313   6.331  0.00  0.00    +0.004 A 
ATOM      6  C   UNL     1      -8.668  -4.801   6.343  0.00  0.00    -0.044 A 
ATOM      7  C   UNL     1      -9.327  -5.034   5.155  0.00  0.00    -0.044 A 
ATOM      8  C   UNL     1      -8.688  -4.782   3.951  0.00  0.00    +0.015 A 
ATOM      9  C   UNL     1     -10.743  -5.546   5.099  0.00  0.00    +0.035 C 
ATOM     10  C   UNL     1     -11.143  -6.164   6.437  0.00  0.00    +0.005 C 
ATOM     11  C   UNL     1     -10.822  -5.159   7.549  0.00  0.00    +0.005 C 
ATOM     12  C   UNL     1      -9.304  -5.059   7.685  0.00  0.00    +0.035 C 
ENDBRANCH   1   3
BRANCH   1  13
ATOM     13  C   UNL     1      -5.287  -3.516   2.643  0.00  0.00    +0.089 C 
BRANCH  13  14
ATOM     14  C   UNL     1      -4.822  -3.332   1.198  0.00  0.00    +0.104 C 
BRANCH  14  17
ATOM     15  N   UNL     1      -2.787  -2.571   0.015  0.00  0.00    -0.305 N 
ATOM     16  C   UNL     1      -3.486  -2.817  -1.249  0.00  0.00    +0.132 C 
ATOM     17  C   UNL     1      -3.408  -2.810   1.187  0.00  0.00    +0.216 C 
ATOM     18  O   UNL     1      -2.829  -2.606   2.233  0.00  0.00    -0.276 OA
BRANCH  15  19
ATOM     19  C   UNL     1      -1.413  -2.063   0.004  0.00  0.00    +0.107 C 
BRANCH  19  20
ATOM     20  C   UNL     1      -1.433  -0.534   0.013  0.00  0.00    +0.019 C 
BRANCH  20  22
ATOM     21  C   UNL     1      -0.019   1.526   0.010  0.00  0.00    +0.004 C 
ATOM     22  C   UNL     1       0.002  -0.004   0.002  0.00  0.00    -0.002 C 
ENDBRANCH  20  22
ENDBRANCH  19  20
ENDBRANCH  15  19
ENDBRANCH  14  17
ENDBRANCH  13  14
ENDBRANCH   1  13
TORSDOF 7
