REMARK  Name = ZINC51267717
REMARK  10 active torsions:
REMARK  status: ('A' for Active; 'I' for Inactive)
REMARK    1  A    between atoms: C_1  and  C_2
REMARK    2  A    between atoms: C_2  and  C_3
REMARK    3  A    between atoms: C_3  and  C_4
REMARK    4  A    between atoms: C_4  and  N_5
REMARK    5  A    between atoms: C_6  and  C_8
REMARK    6  A    between atoms: N_17  and  C_18
REMARK    7  A    between atoms: C_20  and  C_26
REMARK    8  A    between atoms: C_20  and  C_27
REMARK    9  A    between atoms: C_22  and  C_24
REMARK   10  A    between atoms: C_22  and  C_25
REMARK                            x       y       z     vdW  Elec       q    Type
REMARK                         _______ _______ _______ _____ _____    ______ ____
ROOT
ATOM      1  C   UNL     1       2.809  -3.726  -4.145  0.00  0.00    +0.092 C 
ATOM      2  C   UNL     1       2.995  -5.243  -4.064  0.00  0.00    +0.016 C 
ATOM      3  C   UNL     1       3.679  -5.744  -5.338  0.00  0.00    +0.020 C 
ATOM      4  C   UNL     1       2.792  -5.429  -6.546  0.00  0.00    +0.109 C 
ATOM      5  N   UNL     1       2.489  -3.992  -6.549  0.00  0.00    -0.285 N 
ATOM      6  C   UNL     1       1.913  -3.388  -5.340  0.00  0.00    +0.122 C 
ATOM      7  C   UNL     1       2.735  -3.240  -7.641  0.00  0.00    +0.302 C 
ATOM      8  O   UNL     1       2.396  -2.073  -7.664  0.00  0.00    -0.253 OA
ATOM      9  N   UNL     1       3.358  -3.783  -8.706  0.00  0.00    -0.296 N 
ATOM     10  H   UNL     1       3.556  -4.732  -8.720  0.00  0.00    +0.151 HD
ENDROOT
BRANCH   9  11
ATOM     11  C   UNL     1       3.737  -2.936  -9.844  0.00  0.00    +0.072 C 
ATOM     12  C   UNL     1       2.557  -2.838 -10.812  0.00  0.00    +0.009 C 
ATOM     13  C   UNL     1       2.941  -1.970 -12.010  0.00  0.00    -0.072 C 
ATOM     14  N   UNL     1       4.157  -2.436 -12.659  0.00  0.00    +0.386 N 
ATOM     15  C   UNL     1       5.293  -2.761 -11.810  0.00  0.00    -0.072 C 
ATOM     16  C   UNL     1       4.911  -3.580 -10.582  0.00  0.00    +0.009 C 
ATOM     17  C   UNL     1       6.058  -1.506 -11.384  0.00  0.00    -0.010 C 
ATOM     18  C   UNL     1       6.268  -3.621 -12.650  0.00  0.00    -0.010 C 
ATOM     19  C   UNL     1       3.038  -0.503 -11.590  0.00  0.00    -0.010 C 
ATOM     20  C   UNL     1       1.792  -2.076 -13.040  0.00  0.00    -0.010 C 
ATOM     21  H   UNL     1       3.926  -3.261 -13.217  0.00  0.00    -0.084 HD
ATOM     22  H   UNL     1       4.452  -1.728 -13.335  0.00  0.00    -0.084 HD
ENDBRANCH   9  11
BRANCH   1  24
ATOM     23  N   UNL     1       1.902  -1.917  -2.723  0.00  0.00    -0.315 N 
ATOM     24  C   UNL     1       2.165  -3.229  -2.876  0.00  0.00    +0.218 C 
ATOM     25  O   UNL     1       1.883  -4.011  -1.993  0.00  0.00    -0.275 OA
ATOM     26  H   UNL     1       2.128  -1.291  -3.429  0.00  0.00    +0.149 HD
BRANCH  23  27
ATOM     27  C   UNL     1       1.276  -1.434  -1.490  0.00  0.00    +0.104 C 
BRANCH  27  28
ATOM     28  C   UNL     1       1.089   0.083  -1.572  0.00  0.00    +0.018 C 
BRANCH  28  30
ATOM     29  C   UNL     1       0.248   2.103  -0.367  0.00  0.00    +0.004 C 
ATOM     30  C   UNL     1       0.435   0.587  -0.284  0.00  0.00    -0.002 C 
ENDBRANCH  28  30
ENDBRANCH  27  28
ENDBRANCH  23  27
ENDBRANCH   1  24
TORSDOF 5
