REMARK  Name = ZINC48990006
REMARK  2 active torsions:
REMARK  status: ('A' for Active; 'I' for Inactive)
REMARK    1  A    between atoms: C_1  and  C_2
REMARK    2  A    between atoms: C_7  and  C_8
REMARK                            x       y       z     vdW  Elec       q    Type
REMARK                         _______ _______ _______ _____ _____    ______ ____
ROOT
ATOM      1  C   UNL     1       0.014   0.000   2.507  0.00  0.00    +0.016 A 
ATOM      2  C   UNL     1       1.081  -0.064   3.343  0.00  0.00    +0.056 A 
ATOM      3  S   UNL     1       0.675   0.906   4.651  0.00  0.00    -0.089 S 
ATOM      4  C   UNL     1      -0.934   1.442   4.146  0.00  0.00    +0.103 A 
ATOM      5  C   UNL     1      -1.119   0.821   2.902  0.00  0.00    +0.095 A 
ATOM      6  N   UNL     1      -2.295   1.062   2.262  0.00  0.00    -0.215 NA
ATOM      7  C   UNL     1      -3.210   1.839   2.779  0.00  0.00    +0.199 A 
ATOM      8  N   UNL     1      -3.056   2.460   3.984  0.00  0.00    -0.294 N 
ATOM      9  H   UNL     1      -3.758   3.030   4.334  0.00  0.00    +0.172 HD
ATOM     10  C   UNL     1      -1.918   2.266   4.693  0.00  0.00    +0.267 A 
ATOM     11  O   UNL     1      -1.752   2.808   5.773  0.00  0.00    -0.267 OA
ATOM     12  N   UNL     1      -4.375   2.041   2.079  0.00  0.00    -0.301 N 
ATOM     13  C   UNL     1      -5.479   2.809   2.668  0.00  0.00    +0.113 C 
ATOM     14  C   UNL     1      -6.755   1.963   2.611  0.00  0.00    +0.084 C 
ATOM     15  C   UNL     1      -6.998   1.511   1.170  0.00  0.00    +0.173 C 
ATOM     16  C   UNL     1      -5.824   0.657   0.686  0.00  0.00    +0.084 C 
ATOM     17  C   UNL     1      -4.537   1.496   0.724  0.00  0.00    +0.113 C 
ATOM     18  O   UNL     1      -8.208   0.746   1.104  0.00  0.00    -0.346 OA
ATOM     19  C   UNL     1      -9.096   1.427   0.194  0.00  0.00    +0.191 C 
ATOM     20  C   UNL     1      -8.131   2.292  -0.656  0.00  0.00    +0.191 C 
ATOM     21  O   UNL     1      -7.131   2.664   0.323  0.00  0.00    -0.346 OA
ENDROOT
BRANCH   1  28
ATOM     22  C   UNL     1      -0.025   1.458   0.009  0.00  0.00    +0.044 C 
ATOM     23  C   UNL     1      -0.013  -0.049   0.015  0.00  0.00    -0.043 A 
ATOM     24  C   UNL     1      -0.015  -0.745  -1.177  0.00  0.00    +0.004 A 
ATOM     25  C   UNL     1      -0.004  -2.128  -1.173  0.00  0.00    +0.000 A 
ATOM     26  C   UNL     1       0.009  -2.822   0.024  0.00  0.00    +0.001 A 
ATOM     27  C   UNL     1       0.011  -2.136   1.222  0.00  0.00    +0.009 A 
ATOM     28  C   UNL     1       0.006  -0.742   1.224  0.00  0.00    -0.012 A 
ENDBRANCH   1  28
TORSDOF 1
