REMARK  Name = ZINC15675641
REMARK  9 active torsions:
REMARK  status: ('A' for Active; 'I' for Inactive)
REMARK    1  A    between atoms: C_1  and  C_2
REMARK    2  A    between atoms: C_2  and  C_3
REMARK    3  A    between atoms: C_9  and  C_10
REMARK    4  A    between atoms: C_9  and  N_80
REMARK    5  A    between atoms: C_10  and  C_11
REMARK    6  A    between atoms: C_11  and  N_12
REMARK    7  A    between atoms: C_21  and  C_22
REMARK    8  A    between atoms: C_21  and  C_23
REMARK    9  A    between atoms: N_25  and  C_26
REMARK                            x       y       z     vdW  Elec       q    Type
REMARK                         _______ _______ _______ _____ _____    ______ ____
ROOT
ATOM      1  N   UNL     1      -7.230   2.463  -2.032  0.00  0.00    -0.281 N 
ATOM      2  C   UNL     1      -7.335   1.982  -3.293  0.00  0.00    +0.264 C 
ATOM      3  O   UNL     1      -7.022   0.840  -3.571  0.00  0.00    -0.268 OA
ATOM      4  C   UNL     1      -7.847   2.912  -4.307  0.00  0.00    +0.109 A 
ATOM      5  C   UNL     1      -8.230   2.698  -5.598  0.00  0.00    +0.079 A 
ATOM      6  C   UNL     1      -8.649   3.930  -6.123  0.00  0.00    +0.153 A 
ATOM      7  C   UNL     1      -8.492   4.890  -5.124  0.00  0.00    +0.088 A 
ATOM      8  N   UNL     1      -7.989   4.268  -4.021  0.00  0.00    -0.331 N 
ATOM      9  C   UNL     1      -7.614   4.821  -2.716  0.00  0.00    +0.157 C 
ATOM     10  C   UNL     1      -7.809   3.744  -1.644  0.00  0.00    +0.128 C 
ATOM     11  C   UNL     1      -7.147   4.213  -0.346  0.00  0.00    +0.043 C 
ATOM     12  C   UNL     1      -8.925   6.115  -5.685  0.00  0.00    +0.067 A 
ATOM     13  C   UNL     1      -9.307   5.862  -6.949  0.00  0.00    +0.198 A 
ATOM     14  O   UNL     1      -9.140   4.556  -7.214  0.00  0.00    -0.461 OA
ENDROOT
BRANCH  10  15
ATOM     15  C   UNL     1      -9.284   3.558  -1.396  0.00  0.00    +0.238 C 
ATOM     16  O   UNL     1      -9.837   4.194  -0.524  0.00  0.00    -0.273 OA
ATOM     17  N   UNL     1      -9.988   2.685  -2.144  0.00  0.00    -0.311 N 
ATOM     18  H   UNL     1      -9.545   2.177  -2.841  0.00  0.00    +0.149 HD
BRANCH  17  19
ATOM     19  C   UNL     1     -11.421   2.504  -1.903  0.00  0.00    +0.073 C 
ATOM     20  C   UNL     1     -11.625   1.483  -0.782  0.00  0.00    +0.022 C 
ATOM     21  C   UNL     1     -13.059   1.581  -0.259  0.00  0.00    +0.002 C 
ATOM     22  C   UNL     1     -13.443   3.052  -0.090  0.00  0.00    +0.000 C 
ATOM     23  C   UNL     1     -14.534   3.413  -1.101  0.00  0.00    +0.000 C 
ATOM     24  C   UNL     1     -13.911   3.568  -2.489  0.00  0.00    +0.000 C 
ATOM     25  C   UNL     1     -13.608   2.185  -3.069  0.00  0.00    +0.002 C 
ATOM     26  C   UNL     1     -12.093   1.999  -3.182  0.00  0.00    +0.022 C 
ENDBRANCH  17  19
ENDBRANCH  10  15
BRANCH   1  27
ATOM     27  C   UNL     1      -6.519   1.671  -1.026  0.00  0.00    +0.107 C 
BRANCH  27  28
ATOM     28  C   UNL     1      -5.038   2.052  -1.029  0.00  0.00    +0.000 C 
BRANCH  28  29
ATOM     29  C   UNL     1      -4.296   1.224   0.022  0.00  0.00    -0.077 C 
BRANCH  29  35
ATOM     30  C   UNL     1      -2.200   1.099   1.227  0.00  0.00    -0.069 C 
ATOM     31  C   UNL     1      -0.760   1.621   1.261  0.00  0.00    -0.015 C 
ATOM     32  C   UNL     1      -0.021   1.140   0.010  0.00  0.00    -0.003 C 
ATOM     33  C   UNL     1      -0.769   1.625  -1.235  0.00  0.00    -0.019 C 
ATOM     34  C   UNL     1      -2.207   1.103  -1.196  0.00  0.00    -0.078 C 
ATOM     35  N   UNL     1      -2.872   1.621   0.019  0.00  0.00    +0.382 N 
ATOM     36  H   UNL     1      -2.812   2.645   0.020  0.00  0.00    -0.081 HD
BRANCH  30  38
ATOM     37  C   UNL     1      -3.051   3.119   2.425  0.00  0.00    +0.002 C 
ATOM     38  C   UNL     1      -2.950   1.593   2.466  0.00  0.00    -0.019 C 
ENDBRANCH  30  38
ENDBRANCH  29  35
ENDBRANCH  28  29
ENDBRANCH  27  28
ENDBRANCH   1  27
TORSDOF 7
