REMARK  Name = ZINC07963987
REMARK  8 active torsions:
REMARK  status: ('A' for Active; 'I' for Inactive)
REMARK    1  A    between atoms: C_1  and  C_2
REMARK    2  A    between atoms: C_2  and  C_3
REMARK    3  A    between atoms: C_8  and  N_9
REMARK    4  A    between atoms: C_10  and  C_12
REMARK    5  A    between atoms: C_12  and  N_13
REMARK    6  A    between atoms: C_14  and  C_16
REMARK    7  A    between atoms: C_20  and  C_30
REMARK    8  A    between atoms: N_21  and  C_23
REMARK                            x       y       z     vdW  Elec       q    Type
REMARK                         _______ _______ _______ _____ _____    ______ ____
ROOT
ATOM      1  N   UNL     1       5.820   2.245   0.808  0.00  0.00    -0.301 N 
ATOM      2  C   UNL     1       6.085   3.555   0.629  0.00  0.00    +0.268 C 
ATOM      3  O   UNL     1       7.223   3.919   0.406  0.00  0.00    -0.268 OA
ATOM      4  H   UNL     1       4.912   1.954   0.987  0.00  0.00    +0.150 HD
ENDROOT
BRANCH   2   5
ATOM      5  C   UNL     1       4.994   4.546   0.704  0.00  0.00    +0.192 A 
ATOM      6  C   UNL     1       5.268   5.979   0.511  0.00  0.00    +0.213 A 
ATOM      7  O   UNL     1       6.397   6.386   0.285  0.00  0.00    -0.285 OA
ATOM      8  C   UNL     1       4.165   6.867   0.600  0.00  0.00    +0.076 A 
ATOM      9  C   UNL     1       2.944   6.337   0.849  0.00  0.00    +0.044 A 
ATOM     10  N   UNL     1       2.788   5.001   1.018  0.00  0.00    -0.233 N 
ATOM     11  N   UNL     1       3.757   4.165   0.946  0.00  0.00    -0.158 NA
ATOM     12  C   UNL     1       1.744   7.244   0.945  0.00  0.00    +0.066 C 
BRANCH  10  13
ATOM     13  C   UNL     1       1.504   4.509   1.278  0.00  0.00    +0.101 A 
ATOM     14  C   UNL     1       0.785   4.982   2.368  0.00  0.00    +0.031 A 
ATOM     15  C   UNL     1      -0.482   4.495   2.622  0.00  0.00    +0.002 A 
ATOM     16  C   UNL     1      -1.035   3.534   1.795  0.00  0.00    +0.003 A 
ATOM     17  C   UNL     1      -0.326   3.064   0.705  0.00  0.00    +0.040 A 
ATOM     18  C   UNL     1       0.944   3.546   0.444  0.00  0.00    +0.149 A 
ATOM     19  F   UNL     1       1.639   3.083  -0.618  0.00  0.00    -0.203 F 
ENDBRANCH  10  13
ENDBRANCH   2   5
BRANCH   1  20
ATOM     20  C   UNL     1       6.904   1.262   0.734  0.00  0.00    +0.200 C 
BRANCH  20  22
ATOM     21  N   UNL     1       7.164  -1.189   0.946  0.00  0.00    -0.284 N 
ATOM     22  C   UNL     1       6.346  -0.118   0.968  0.00  0.00    +0.234 C 
ATOM     23  O   UNL     1       5.160  -0.266   1.177  0.00  0.00    -0.274 OA
ATOM     24  H   UNL     1       8.121  -1.066   0.845  0.00  0.00    +0.155 HD
BRANCH  21  30
ATOM     25  C   UNL     1       7.299  -3.560   0.507  0.00  0.00    -0.026 A 
ATOM     26  C   UNL     1       6.772  -4.831   0.630  0.00  0.00    +0.005 A 
ATOM     27  C   UNL     1       5.585  -5.027   1.312  0.00  0.00    +0.000 A 
ATOM     28  C   UNL     1       4.921  -3.951   1.873  0.00  0.00    +0.002 A 
ATOM     29  C   UNL     1       5.445  -2.678   1.757  0.00  0.00    +0.023 A 
ATOM     30  C   UNL     1       6.634  -2.478   1.069  0.00  0.00    +0.037 A 
BRANCH  25  32
ATOM     31  C   UNL     1       9.755  -3.338   0.759  0.00  0.00    +0.009 C 
ATOM     32  C   UNL     1       8.593  -3.348  -0.235  0.00  0.00    +0.033 C 
ENDBRANCH  25  32
ENDBRANCH  21  30
ENDBRANCH  20  22
ENDBRANCH   1  20
TORSDOF 6
