REMARK  Name = ZINC35612808
REMARK  9 active torsions:
REMARK  status: ('A' for Active; 'I' for Inactive)
REMARK    1  A    between atoms: C_1  and  C_2
REMARK    2  A    between atoms: C_7  and  N_8
REMARK    3  A    between atoms: C_11  and  C_14
REMARK    4  A    between atoms: N_16  and  C_17
REMARK    5  A    between atoms: C_17  and  C_19
REMARK    6  A    between atoms: C_17  and  C_20
REMARK    7  A    between atoms: N_22  and  C_23
REMARK    8  A    between atoms: C_23  and  C_24
REMARK    9  A    between atoms: C_23  and  C_25
REMARK                            x       y       z     vdW  Elec       q    Type
REMARK                         _______ _______ _______ _____ _____    ______ ____
ROOT
ATOM      1  N   UNL     1       0.025  -0.015   2.416  0.00  0.00    -0.293 N 
ATOM      2  C   UNL     1      -0.059  -0.714   3.610  0.00  0.00    +0.163 A 
ATOM      3  N   UNL     1      -0.166  -0.251   4.839  0.00  0.00    -0.220 NA
ATOM      4  C   UNL     1      -0.235  -1.076   5.885  0.00  0.00    +0.135 A 
ATOM      5  C   UNL     1      -0.194  -2.431   5.668  0.00  0.00    +0.081 A 
ATOM      6  S   UNL     1      -0.058  -2.479   3.886  0.00  0.00    -0.060 S 
ATOM      7  H   UNL     1      -0.096   0.947   2.408  0.00  0.00    +0.154 HD
ENDROOT
BRANCH   1  14
ATOM      8  C   UNL     1      -1.114   0.999   0.015  0.00  0.00    +0.045 C 
ATOM      9  C   UNL     1      -0.252  -0.237   0.028  0.00  0.00    -0.029 A 
ATOM     10  C   UNL     1       0.010  -0.909  -1.149  0.00  0.00    +0.006 A 
ATOM     11  C   UNL     1       0.800  -2.044  -1.139  0.00  0.00    +0.020 A 
ATOM     12  C   UNL     1       1.331  -2.509   0.052  0.00  0.00    +0.043 A 
ATOM     13  C   UNL     1       1.073  -1.841   1.233  0.00  0.00    +0.043 A 
ATOM     14  C   UNL     1       0.284  -0.697   1.224  0.00  0.00    +0.037 A 
ATOM     15 CL   UNL     1       2.323  -3.934   0.061  0.00  0.00    -0.083 Cl
ENDBRANCH   1  14
BRANCH   4  16
ATOM     16  C   UNL     1      -0.354  -0.542   7.251  0.00  0.00    +0.264 C 
ATOM     17  O   UNL     1      -0.417  -1.303   8.198  0.00  0.00    -0.268 OA
ATOM     18  N   UNL     1      -0.394   0.790   7.453  0.00  0.00    -0.299 N 
ATOM     19  H   UNL     1      -0.344   1.396   6.698  0.00  0.00    +0.150 HD
BRANCH  18  20
ATOM     20  C   UNL     1      -0.512   1.321   8.813  0.00  0.00    +0.156 C 
ATOM     21  C   UNL     1       0.877   1.415   9.447  0.00  0.00    +0.038 C 
BRANCH  20  22
ATOM     22  C   UNL     1      -1.135   2.693   8.764  0.00  0.00    +0.233 C 
ATOM     23  O   UNL     1      -1.450   3.178   7.698  0.00  0.00    -0.274 OA
ATOM     24  N   UNL     1      -1.343   3.380   9.905  0.00  0.00    -0.311 N 
ATOM     25  H   UNL     1      -1.092   2.991  10.757  0.00  0.00    +0.149 HD
BRANCH  24  26
ATOM     26  C   UNL     1      -1.949   4.713   9.857  0.00  0.00    +0.067 C 
ATOM     27  C   UNL     1      -3.473   4.580   9.831  0.00  0.00    +0.027 C 
ATOM     28  C   UNL     1      -1.527   5.509  11.093  0.00  0.00    +0.027 C 
ENDBRANCH  24  26
ENDBRANCH  20  22
ENDBRANCH  18  20
ENDBRANCH   4  16
TORSDOF 5
