REMARK  Name = ZINC13059107
REMARK  15 active torsions:
REMARK  status: ('A' for Active; 'I' for Inactive)
REMARK    1  A    between atoms: C_1  and  C_2
REMARK    2  A    between atoms: C_2  and  O_3
REMARK    3  A    between atoms: O_3  and  C_4
REMARK    4  A    between atoms: C_4  and  C_6
REMARK    5  A    between atoms: C_7  and  C_28
REMARK    6  A    between atoms: C_10  and  N_11
REMARK    7  A    between atoms: C_12  and  C_14
REMARK    8  A    between atoms: C_14  and  N_66
REMARK    9  A    between atoms: C_15  and  N_66
REMARK   10  A    between atoms: C_16  and  C_17
REMARK   11  A    between atoms: C_16  and  N_66
REMARK   12  A    between atoms: N_19  and  C_20
REMARK   13  A    between atoms: C_24  and  C_27
REMARK   14  A    between atoms: C_25  and  C_26
REMARK   15  A    between atoms: C_31  and  C_34
REMARK                            x       y       z     vdW  Elec       q    Type
REMARK                         _______ _______ _______ _____ _____    ______ ____
ROOT
ATOM      1  N   UNL     1      -1.260  -2.354   2.491  0.00  0.00    -0.281 N 
ATOM      2  C   UNL     1      -1.269  -3.226   3.519  0.00  0.00    +0.201 C 
ATOM      3  O   UNL     1      -1.310  -4.418   3.303  0.00  0.00    -0.278 OA
ATOM      4  H   UNL     1      -1.227  -1.400   2.664  0.00  0.00    +0.155 HD
ENDROOT
BRANCH   1   9
ATOM      5  C   UNL     1      -1.296  -2.085   0.009  0.00  0.00    +0.095 A 
ATOM      6  C   UNL     1      -1.337  -2.837  -1.231  0.00  0.00    +0.005 A 
ATOM      7  C   UNL     1      -1.377  -4.189  -1.123  0.00  0.00    +0.056 A 
ATOM      8  S   UNL     1      -1.362  -4.461   0.636  0.00  0.00    -0.080 S 
ATOM      9  C   UNL     1      -1.298  -2.821   1.187  0.00  0.00    +0.086 A 
BRANCH   6  10
ATOM     10  C   UNL     1      -1.333  -2.161  -2.550  0.00  0.00    -0.017 A 
ATOM     11  C   UNL     1      -2.233  -1.128  -2.810  0.00  0.00    +0.009 A 
ATOM     12  C   UNL     1      -2.223  -0.500  -4.038  0.00  0.00    +0.004 A 
ATOM     13  C   UNL     1      -1.329  -0.901  -5.015  0.00  0.00    -0.050 A 
ATOM     14  C   UNL     1      -0.437  -1.928  -4.765  0.00  0.00    +0.004 A 
ATOM     15  C   UNL     1      -0.435  -2.561  -3.539  0.00  0.00    +0.009 A 
ATOM     16  C   UNL     1      -1.327  -0.215  -6.357  0.00  0.00    +0.044 C 
ENDBRANCH   6  10
BRANCH   5  17
ATOM     17  C   UNL     1      -1.250  -0.623   0.019  0.00  0.00    +0.342 C 
ATOM     18  O   UNL     1      -2.284   0.019   0.037  0.00  0.00    -0.245 OA
BRANCH  17  19
ATOM     19  O   UNL     1      -0.061   0.015   0.008  0.00  0.00    -0.461 OA
BRANCH  19  21
ATOM     20  C   UNL     1       1.340   2.006   0.004  0.00  0.00    +0.048 C 
ATOM     21  C   UNL     1      -0.091   1.466   0.018  0.00  0.00    +0.229 C 
ENDBRANCH  19  21
ENDBRANCH  17  19
ENDBRANCH   5  17
ENDBRANCH   1   9
BRANCH   2  22
ATOM     22  C   UNL     1      -1.228  -2.718   4.937  0.00  0.00    +0.019 C 
BRANCH  22  24
ATOM     23  C   UNL     1      -2.525  -4.577   5.789  0.00  0.00    -0.095 C 
ATOM     24  N   UNL     1      -1.226  -3.875   5.858  0.00  0.00    +0.389 N 
ATOM     25  H   UNL     1      -0.481  -4.523   5.577  0.00  0.00    -0.081 HD
BRANCH  24  26
ATOM     26  C   UNL     1      -0.970  -3.419   7.240  0.00  0.00    +0.019 C 
BRANCH  26  27
ATOM     27  C   UNL     1      -0.755  -4.626   8.117  0.00  0.00    +0.201 C 
ATOM     28  O   UNL     1      -0.825  -5.740   7.644  0.00  0.00    -0.278 OA
ATOM     29  N   UNL     1      -0.484  -4.466   9.428  0.00  0.00    -0.287 N 
ATOM     30  H   UNL     1      -0.349  -3.577   9.791  0.00  0.00    +0.155 HD
BRANCH  29  31
ATOM     31  C   UNL     1      -0.398  -5.584  10.265  0.00  0.00    +0.036 A 
ATOM     32  C   UNL     1      -1.064  -6.756   9.932  0.00  0.00    +0.023 A 
ATOM     33  C   UNL     1      -0.978  -7.858  10.761  0.00  0.00    +0.002 A 
ATOM     34  C   UNL     1      -0.229  -7.794  11.922  0.00  0.00    +0.004 A 
ATOM     35  C   UNL     1       0.435  -6.628  12.257  0.00  0.00    -0.046 A 
ATOM     36  C   UNL     1       0.357  -5.525  11.429  0.00  0.00    -0.026 A 
ATOM     37  C   UNL     1       1.086  -4.257  11.792  0.00  0.00    +0.046 C 
ATOM     38  C   UNL     1       1.250  -6.564  13.523  0.00  0.00    +0.044 C 
ENDBRANCH  29  31
ENDBRANCH  26  27
ENDBRANCH  24  26
ENDBRANCH  22  24
ENDBRANCH   2  22
TORSDOF 10
