REMARK  Name = ZINC34748037
REMARK  10 active torsions:
REMARK  status: ('A' for Active; 'I' for Inactive)
REMARK    1  A    between atoms: C_1  and  C_2
REMARK    2  A    between atoms: C_2  and  N_3
REMARK    3  A    between atoms: N_3  and  C_4
REMARK    4  A    between atoms: C_4  and  C_5
REMARK    5  A    between atoms: C_6  and  C_8
REMARK    6  A    between atoms: C_8  and  N_9
REMARK    7  A    between atoms: N_27  and  C_28
REMARK    8  A    between atoms: C_28  and  C_29
REMARK    9  A    between atoms: C_32  and  C_36
REMARK   10  A    between atoms: C_34  and  C_35
REMARK                            x       y       z     vdW  Elec       q    Type
REMARK                         _______ _______ _______ _____ _____    ______ ____
ROOT
ATOM      1  N   UNL     1      -1.286  -0.121  -5.545  0.00  0.00    +0.387 N 
ATOM      2  C   UNL     1      -2.279   0.094  -6.606  0.00  0.00    -0.059 C 
ATOM      3  C   UNL     1      -3.662  -0.337  -6.104  0.00  0.00    +0.089 C 
ATOM      4  N   UNL     1      -3.573  -1.726  -5.628  0.00  0.00    -0.304 N 
ATOM      5  C   UNL     1      -2.499  -2.068  -4.683  0.00  0.00    +0.089 C 
ATOM      6  C   UNL     1      -1.171  -1.556  -5.252  0.00  0.00    -0.059 C 
ATOM      7  C   UNL     1      -4.468  -2.676  -6.053  0.00  0.00    +0.202 A 
ATOM      8  N   UNL     1      -4.029  -3.858  -6.430  0.00  0.00    -0.208 NA
ATOM      9  C   UNL     1      -4.874  -4.796  -6.846  0.00  0.00    +0.117 A 
ATOM     10  C   UNL     1      -6.258  -4.579  -6.903  0.00  0.00    +0.076 A 
ATOM     11  C   UNL     1      -7.069  -5.709  -7.384  0.00  0.00    -0.023 A 
ATOM     12  C   UNL     1      -6.411  -6.831  -7.716  0.00  0.00    -0.004 A 
ATOM     13  S   UNL     1      -4.697  -6.464  -7.420  0.00  0.00    -0.073 S 
ATOM     14  C   UNL     1      -7.341  -7.917  -8.187  0.00  0.00    +0.043 C 
ATOM     15  C   UNL     1      -8.737  -7.470  -7.700  0.00  0.00    +0.010 C 
ATOM     16  C   UNL     1      -8.565  -5.941  -7.618  0.00  0.00    +0.037 C 
ATOM     17  C   UNL     1      -6.708  -3.287  -6.487  0.00  0.00    +0.264 A 
ATOM     18  O   UNL     1      -7.895  -3.009  -6.503  0.00  0.00    -0.267 OA
ATOM     19  N   UNL     1      -5.800  -2.383  -6.073  0.00  0.00    -0.276 N 
ATOM     20  H   UNL     1      -1.576   0.369  -4.712  0.00  0.00    -0.081 HD
ENDROOT
BRANCH   1  21
ATOM     21  C   UNL     1       0.017   0.393  -5.986  0.00  0.00    +0.019 C 
BRANCH  21  23
ATOM     22  N   UNL     1       1.016   2.578  -6.573  0.00  0.00    -0.304 N 
ATOM     23  C   UNL     1      -0.068   1.886  -6.170  0.00  0.00    +0.199 C 
ATOM     24  O   UNL     1      -1.111   2.465  -5.955  0.00  0.00    -0.278 OA
BRANCH  22  26
ATOM     25  C   UNL     1       3.106   1.827  -5.547  0.00  0.00    +0.024 C 
ATOM     26  C   UNL     1       2.277   1.878  -6.832  0.00  0.00    +0.104 C 
ENDBRANCH  22  26
BRANCH  22  27
ATOM     27  C   UNL     1       0.934   4.030  -6.752  0.00  0.00    +0.104 C 
ATOM     28  C   UNL     1       0.516   4.343  -8.190  0.00  0.00    +0.024 C 
ENDBRANCH  22  27
ENDBRANCH  21  23
ENDBRANCH   1  21
BRANCH  19  29
ATOM     29  C   UNL     1      -6.251  -1.058  -5.640  0.00  0.00    +0.163 C 
BRANCH  29  30
ATOM     30  C   UNL     1      -7.158  -1.201  -4.445  0.00  0.00    -0.025 A 
ATOM     31  C   UNL     1      -8.529  -1.124  -4.604  0.00  0.00    +0.006 A 
ATOM     32  C   UNL     1      -9.360  -1.256  -3.508  0.00  0.00    +0.004 A 
ATOM     33  C   UNL     1      -8.821  -1.465  -2.252  0.00  0.00    -0.050 A 
ATOM     34  C   UNL     1      -7.450  -1.543  -2.093  0.00  0.00    +0.007 A 
ATOM     35  C   UNL     1      -6.619  -1.416  -3.190  0.00  0.00    -0.045 A 
ATOM     36  C   UNL     1      -5.124  -1.506  -3.017  0.00  0.00    +0.044 C 
ATOM     37  C   UNL     1      -9.728  -1.608  -1.057  0.00  0.00    +0.044 C 
ENDBRANCH  29  30
ENDBRANCH  19  29
TORSDOF 6
