REMARK  Name = ZINC39573222
REMARK  12 active torsions:
REMARK  status: ('A' for Active; 'I' for Inactive)
REMARK    1  A    between atoms: C_1  and  C_2
REMARK    2  A    between atoms: C_2  and  C_4
REMARK    3  A    between atoms: C_2  and  S_16
REMARK    4  A    between atoms: N_6  and  C_7
REMARK    5  A    between atoms: C_10  and  N_13
REMARK    6  A    between atoms: N_13  and  C_14
REMARK    7  A    between atoms: N_13  and  C_15
REMARK    8  A    between atoms: S_16  and  C_17
REMARK    9  A    between atoms: C_20  and  C_29
REMARK   10  A    between atoms: N_21  and  C_22
REMARK   11  A    between atoms: C_22  and  C_23
REMARK   12  A    between atoms: C_29  and  N_30
REMARK                            x       y       z     vdW  Elec       q    Type
REMARK                         _______ _______ _______ _____ _____    ______ ____
ROOT
ATOM      1  C   UNL     1       2.461   0.072  -0.893  0.00  0.00    +0.193 A 
ATOM      2  N   UNL     1       2.776   0.703   0.214  0.00  0.00    -0.123 NA
ATOM      3  N   UNL     1       4.031   0.978   0.217  0.00  0.00    -0.135 NA
ATOM      4  C   UNL     1       4.588   0.543  -0.878  0.00  0.00    +0.118 A 
ATOM      5  N   UNL     1       3.609  -0.055  -1.622  0.00  0.00    -0.303 N 
ENDROOT
BRANCH   1   6
ATOM      6  S   UNL     1       0.861  -0.509  -1.350  0.00  0.00    -0.074 S 
BRANCH   6   8
ATOM      7  C   UNL     1      -0.258   1.506   0.124  0.00  0.00    +0.029 C 
ATOM      8  C   UNL     1      -0.196  -0.021   0.042  0.00  0.00    +0.137 C 
BRANCH   8   9
ATOM      9  C   UNL     1      -1.584  -0.569  -0.166  0.00  0.00    +0.230 C 
ATOM     10  O   UNL     1      -1.947  -0.899  -1.276  0.00  0.00    -0.274 OA
ATOM     11  N   UNL     1      -2.423  -0.694   0.881  0.00  0.00    -0.285 N 
ATOM     12  H   UNL     1      -2.111  -0.497   1.779  0.00  0.00    +0.155 HD
BRANCH  11  13
ATOM     13  C   UNL     1      -3.746  -1.107   0.674  0.00  0.00    +0.034 A 
ATOM     14  C   UNL     1      -4.768  -0.584   1.456  0.00  0.00    +0.025 A 
ATOM     15  C   UNL     1      -6.071  -0.991   1.252  0.00  0.00    +0.025 A 
ATOM     16  C   UNL     1      -6.361  -1.924   0.265  0.00  0.00    +0.029 A 
ATOM     17  C   UNL     1      -5.339  -2.448  -0.517  0.00  0.00    +0.025 A 
ATOM     18  C   UNL     1      -4.036  -2.037  -0.316  0.00  0.00    +0.025 A 
BRANCH  16  19
ATOM     19  N   UNL     1      -7.681  -2.337   0.058  0.00  0.00    -0.336 N 
ATOM     20  C   UNL     1      -8.772  -1.703   0.803  0.00  0.00    +0.129 C 
ATOM     21  C   UNL     1      -7.973  -3.402  -0.904  0.00  0.00    +0.129 C 
ENDBRANCH  16  19
ENDBRANCH  11  13
ENDBRANCH   8   9
ENDBRANCH   6   8
ENDBRANCH   1   6
BRANCH   5  22
ATOM     22  C   UNL     1       3.760  -0.696  -2.931  0.00  0.00    +0.160 C 
BRANCH  22  23
ATOM     23  C   UNL     1       3.631   0.341  -4.016  0.00  0.00    -0.028 A 
ATOM     24  C   UNL     1       2.390   0.631  -4.552  0.00  0.00    +0.005 A 
ATOM     25  C   UNL     1       2.273   1.583  -5.548  0.00  0.00    +0.000 A 
ATOM     26  C   UNL     1       3.396   2.245  -6.007  0.00  0.00    +0.000 A 
ATOM     27  C   UNL     1       4.636   1.957  -5.469  0.00  0.00    +0.000 A 
ATOM     28  C   UNL     1       4.753   1.008  -4.471  0.00  0.00    +0.005 A 
ENDBRANCH  22  23
ENDBRANCH   5  22
BRANCH   4  29
ATOM     29  C   UNL     1       6.042   0.670  -1.252  0.00  0.00    -0.001 C 
BRANCH  29  30
ATOM     30  N   UNL     1       6.283   1.994  -1.839  0.00  0.00    +0.384 N 
ATOM     31  C   UNL     1       6.152   3.047  -0.800  0.00  0.00    -0.078 C 
ATOM     32  C   UNL     1       6.954   4.232  -1.393  0.00  0.00    -0.020 C 
ATOM     33  C   UNL     1       8.146   3.531  -2.084  0.00  0.00    -0.020 C 
ATOM     34  C   UNL     1       7.674   2.087  -2.334  0.00  0.00    -0.078 C 
ATOM     35  H   UNL     1       5.633   2.164  -2.592  0.00  0.00    -0.081 HD
ENDBRANCH  29  30
ENDBRANCH   4  29
TORSDOF 9
