REMARK  Name = ZINC38547924
REMARK  11 active torsions:
REMARK  status: ('A' for Active; 'I' for Inactive)
REMARK    1  A    between atoms: C_1  and  C_2
REMARK    2  A    between atoms: C_2  and  C_3
REMARK    3  A    between atoms: C_5  and  C_16
REMARK    4  A    between atoms: C_6  and  N_8
REMARK    5  A    between atoms: C_9  and  C_11
REMARK    6  A    between atoms: C_16  and  C_18
REMARK    7  A    between atoms: C_16  and  N_28
REMARK    8  A    between atoms: C_22  and  O_26
REMARK    9  A    between atoms: C_23  and  O_24
REMARK   10  A    between atoms: O_24  and  C_25
REMARK   11  A    between atoms: O_26  and  C_27
REMARK                            x       y       z     vdW  Elec       q    Type
REMARK                         _______ _______ _______ _____ _____    ______ ____
ROOT
ATOM      1  C   UNL     1       0.660  -1.527   4.947  0.00  0.00    +0.138 C 
ENDROOT
BRANCH   1   2
ATOM      2  N   UNL     1      -0.770  -1.777   4.751  0.00  0.00    -0.319 N 
ATOM      3  C   UNL     1      -1.579  -0.790   4.198  0.00  0.00    +0.097 A 
ATOM      4  C   UNL     1      -1.000   0.359   3.669  0.00  0.00    +0.041 A 
ATOM      5  C   UNL     1      -1.816   1.333   3.122  0.00  0.00    +0.005 A 
ATOM      6  C   UNL     1      -3.189   1.124   3.124  0.00  0.00    +0.018 A 
ATOM      7  C   UNL     1      -3.695  -0.040   3.666  0.00  0.00    +0.084 A 
ATOM      8  N   UNL     1      -2.892  -0.955   4.176  0.00  0.00    -0.350 N 
ATOM      9  H   UNL     1      -1.153  -2.631   5.006  0.00  0.00    +0.148 HD
ATOM     10  H   UNL     1      -3.274  -1.765   4.547  0.00  0.00    +0.166 HD
ENDBRANCH   1   2
BRANCH   1  11
ATOM     11  C   UNL     1       0.842  -0.315   5.823  0.00  0.00    +0.022 A 
ATOM     12  C   UNL     1       1.292   0.873   5.276  0.00  0.00    +0.009 A 
ATOM     13  C   UNL     1       1.461   1.986   6.077  0.00  0.00    +0.004 A 
ATOM     14  C   UNL     1       1.181   1.918   7.429  0.00  0.00    +0.049 A 
ATOM     15  C   UNL     1       0.730   0.731   7.984  0.00  0.00    +0.162 A 
ATOM     16  C   UNL     1       0.554  -0.389   7.176  0.00  0.00    +0.167 A 
BRANCH  16  17
ATOM     17  O   UNL     1       0.107  -1.554   7.715  0.00  0.00    -0.491 OA
ATOM     18  C   UNL     1       1.084  -2.412   8.309  0.00  0.00    +0.277 C 
ENDBRANCH  16  17
BRANCH  15  19
ATOM     19  O   UNL     1       0.455   0.662   9.314  0.00  0.00    -0.491 OA
ATOM     20  C   UNL     1       0.652   1.852  10.080  0.00  0.00    +0.277 C 
ENDBRANCH  15  19
ENDBRANCH   1  11
BRANCH   1  23
ATOM     21  C   UNL     1       1.256  -1.319   1.253  0.00  0.00    -0.008 A 
ATOM     22  C   UNL     1       0.637  -1.548   2.436  0.00  0.00    +0.019 A 
ATOM     23  C   UNL     1       1.315  -1.285   3.612  0.00  0.00    +0.006 A 
ATOM     24  C   UNL     1       2.588  -0.802   3.541  0.00  0.00    +0.078 A 
ATOM     25  S   UNL     1       2.853  -0.719   1.778  0.00  0.00    -0.078 S 
BRANCH  24  26
ATOM     26  N   UNL     1       3.460  -0.466   4.578  0.00  0.00    -0.273 N 
ATOM     27  C   UNL     1       4.646   0.111   4.301  0.00  0.00    +0.284 C 
ATOM     28  O   UNL     1       4.919   0.422   3.156  0.00  0.00    -0.266 OA
ATOM     29  H   UNL     1       3.212  -0.647   5.498  0.00  0.00    +0.156 HD
BRANCH  27  30
ATOM     30  C   UNL     1       5.607   0.365   5.379  0.00  0.00    +0.189 A 
ATOM     31  C   UNL     1       6.836   0.945   5.238  0.00  0.00    +0.054 A 
ATOM     32  C   UNL     1       7.410   0.989   6.519  0.00  0.00    +0.042 A 
ATOM     33  C   UNL     1       6.518   0.442   7.373  0.00  0.00    +0.196 A 
ATOM     34  O   UNL     1       5.431   0.071   6.684  0.00  0.00    -0.458 OA
ENDBRANCH  27  30
ENDBRANCH  24  26
BRANCH  21  36
ATOM     35  C   UNL     1       0.050  -0.243  -0.628  0.00  0.00    +0.009 C 
ATOM     36  C   UNL     1       0.733  -1.525  -0.145  0.00  0.00    +0.039 C 
ENDBRANCH  21  36
ENDBRANCH   1  23
TORSDOF 8
