REMARK  Name = ZINC65182654
REMARK  10 active torsions:
REMARK  status: ('A' for Active; 'I' for Inactive)
REMARK    1  A    between atoms: C_1  and  C_2
REMARK    2  A    between atoms: C_7  and  C_13
REMARK    3  A    between atoms: C_9  and  C_12
REMARK    4  A    between atoms: C_16  and  C_19
REMARK    5  A    between atoms: C_19  and  C_20
REMARK    6  A    between atoms: C_20  and  N_21
REMARK    7  A    between atoms: N_21  and  C_22
REMARK    8  A    between atoms: C_23  and  C_25
REMARK    9  A    between atoms: C_30  and  O_31
REMARK   10  A    between atoms: O_31  and  C_32
REMARK                            x       y       z     vdW  Elec       q    Type
REMARK                         _______ _______ _______ _____ _____    ______ ____
ROOT
ATOM      1  C   UNL     1       1.821  -5.350   1.633  0.00  0.00    +0.318 C 
ATOM      2  N   UNL     1       2.050  -6.691   1.072  0.00  0.00    -0.291 N 
ATOM      3  C   UNL     1       1.698  -7.596   2.046  0.00  0.00    +0.139 C 
ATOM      4  N   UNL     1       1.291  -7.007   3.111  0.00  0.00    -0.072 NA
ATOM      5  O   UNL     1       1.329  -5.597   2.960  0.00  0.00    -0.367 OA
ATOM      6  H   UNL     1       2.385  -6.897   0.185  0.00  0.00    +0.151 HD
ENDROOT
BRANCH   1  13
ATOM      7  C   UNL     1       1.495   1.099  -1.224  0.00  0.00    +0.044 C 
ATOM      8  C   UNL     1       1.425  -0.399  -1.067  0.00  0.00    -0.050 A 
ATOM      9  C   UNL     1       1.756  -1.216  -2.156  0.00  0.00    +0.005 A 
ATOM     10  C   UNL     1       1.718  -2.564  -2.095  0.00  0.00    +0.026 A 
ATOM     11  C   UNL     1       1.331  -3.218  -0.893  0.00  0.00    +0.043 A 
ATOM     12  N   UNL     1       1.217  -4.488  -0.588  0.00  0.00    -0.373 N 
ATOM     13  C   UNL     1       0.777  -4.596   0.808  0.00  0.00    +0.168 C 
ATOM     14  C   UNL     1       0.639  -3.176   1.310  0.00  0.00    -0.036 C 
ATOM     15  C   UNL     1       0.977  -2.377   0.273  0.00  0.00    -0.001 A 
ATOM     16  C   UNL     1       1.050  -0.918   0.124  0.00  0.00    +0.013 A 
ATOM     17  C   UNL     1       0.211  -2.740   2.688  0.00  0.00    +0.042 C 
ATOM     18  H   UNL     1       1.394  -5.231  -1.185  0.00  0.00    +0.160 HD
ENDBRANCH   1  13
BRANCH   3  19
ATOM     19  C   UNL     1       1.780  -9.092   1.883  0.00  0.00    +0.094 C 
BRANCH  19  20
ATOM     20  C   UNL     1       1.308  -9.772   3.169  0.00  0.00    +0.115 C 
BRANCH  20  21
ATOM     21  N   UNL     1       1.388 -11.226   3.011  0.00  0.00    -0.300 N 
ATOM     22  C   UNL     1       2.615 -11.937   3.376  0.00  0.00    +0.132 C 
ATOM     23  C   UNL     1       0.331 -11.910   2.529  0.00  0.00    +0.250 C 
ATOM     24  O   UNL     1      -0.653 -11.312   2.137  0.00  0.00    -0.270 OA
BRANCH  23  25
ATOM     25  C   UNL     1       0.368 -13.384   2.477  0.00  0.00    +0.078 A 
ATOM     26  C   UNL     1       0.870 -14.113   3.559  0.00  0.00    +0.017 A 
ATOM     27  C   UNL     1       0.901 -15.489   3.504  0.00  0.00    +0.001 A 
ATOM     28  C   UNL     1       0.437 -16.155   2.382  0.00  0.00    +0.004 A 
ATOM     29  C   UNL     1      -0.061 -15.447   1.306  0.00  0.00    +0.046 A 
ATOM     30  C   UNL     1      -0.105 -14.062   1.346  0.00  0.00    +0.132 A 
BRANCH  30  31
ATOM     31  O   UNL     1      -0.600 -13.365   0.292  0.00  0.00    -0.494 OA
ATOM     32  C   UNL     1      -1.064 -14.124  -0.827  0.00  0.00    +0.277 C 
ENDBRANCH  30  31
ENDBRANCH  23  25
ENDBRANCH  20  21
ENDBRANCH  19  20
ENDBRANCH   3  19
TORSDOF 6
