REMARK  Name = ZINC01382302
REMARK  9 active torsions:
REMARK  status: ('A' for Active; 'I' for Inactive)
REMARK    1  A    between atoms: C_1  and  C_2
REMARK    2  A    between atoms: C_4  and  C_42
REMARK    3  A    between atoms: C_7  and  C_14
REMARK    4  A    between atoms: C_14  and  C_16
REMARK    5  A    between atoms: C_14  and  N_29
REMARK    6  A    between atoms: N_20  and  C_21
REMARK    7  A    between atoms: C_21  and  C_22
REMARK    8  A    between atoms: C_22  and  C_23
REMARK    9  A    between atoms: N_32  and  C_35
REMARK                            x       y       z     vdW  Elec       q    Type
REMARK                         _______ _______ _______ _____ _____    ______ ____
ROOT
ATOM      1  C   UNL     1       0.094  -6.406   1.186  0.00  0.00    +0.162 C 
ENDROOT
BRANCH   1   8
ATOM      2  C   UNL     1       0.966   1.522   1.272  0.00  0.00    +0.044 C 
ATOM      3  C   UNL     1       1.022   0.018   1.333  0.00  0.00    -0.048 A 
ATOM      4  C   UNL     1       2.184  -0.610   1.760  0.00  0.00    +0.007 A 
ATOM      5  C   UNL     1       2.256  -1.973   1.822  0.00  0.00    -0.041 A 
ATOM      6  C   UNL     1       1.147  -2.743   1.454  0.00  0.00    +0.002 A 
ATOM      7  C   UNL     1       1.189  -4.205   1.510  0.00  0.00    +0.021 A 
ATOM      8  C   UNL     1       0.084  -4.899   1.141  0.00  0.00    +0.042 A 
ATOM      9  C   UNL     1      -1.075  -4.216   0.714  0.00  0.00    +0.254 A 
ATOM     10  O   UNL     1      -2.057  -4.859   0.387  0.00  0.00    -0.268 OA
ATOM     11  N   UNL     1      -1.123  -2.873   0.660  0.00  0.00    -0.322 N 
ATOM     12  H   UNL     1      -1.935  -2.436   0.362  0.00  0.00    +0.169 HD
ATOM     13  C   UNL     1      -0.033  -2.110   1.021  0.00  0.00    +0.050 A 
ATOM     14  C   UNL     1      -0.084  -0.721   0.971  0.00  0.00    +0.029 A 
ATOM     15  C   UNL     1       3.523  -2.644   2.286  0.00  0.00    +0.044 C 
ENDBRANCH   1   8
BRANCH   1  16
ATOM     16  N   UNL     1      -0.955  -6.875   2.101  0.00  0.00    -0.286 NA
ATOM     17  C   UNL     1      -0.790  -6.287   3.437  0.00  0.00    +0.104 C 
ATOM     18  C   UNL     1      -1.998  -6.654   4.306  0.00  0.00    +0.120 C 
ATOM     19  N   UNL     1      -2.161  -8.116   4.286  0.00  0.00    -0.327 N 
ATOM     20  C   UNL     1      -2.197  -8.794   2.981  0.00  0.00    +0.120 C 
ATOM     21  C   UNL     1      -0.981  -8.342   2.164  0.00  0.00    +0.104 C 
BRANCH  19  22
ATOM     22  C   UNL     1      -2.278  -8.842   5.475  0.00  0.00    +0.030 A 
ATOM     23  C   UNL     1      -2.368  -8.175   6.690  0.00  0.00    +0.026 A 
ATOM     24  C   UNL     1      -2.484  -8.894   7.864  0.00  0.00    +0.040 A 
ATOM     25  C   UNL     1      -2.511 -10.278   7.829  0.00  0.00    +0.124 A 
ATOM     26  C   UNL     1      -2.422 -10.945   6.619  0.00  0.00    +0.040 A 
ATOM     27  C   UNL     1      -2.311 -10.230   5.442  0.00  0.00    +0.026 A 
ATOM     28  F   UNL     1      -2.624 -10.979   8.978  0.00  0.00    -0.205 F 
ENDBRANCH  19  22
ENDBRANCH   1  16
BRANCH   1  29
ATOM     29  C   UNL     1       1.437  -6.885   1.673  0.00  0.00    +0.173 A 
ATOM     30  N   UNL     1       1.878  -6.855   2.907  0.00  0.00    -0.111 NA
ATOM     31  N   UNL     1       3.066  -7.353   2.917  0.00  0.00    -0.023 NA
ATOM     32  N   UNL     1       3.394  -7.700   1.722  0.00  0.00    -0.044 NA
ATOM     33  N   UNL     1       2.414  -7.433   0.927  0.00  0.00    -0.227 N 
BRANCH  33  34
ATOM     34  C   UNL     1       2.373  -7.676  -0.517  0.00  0.00    +0.152 C 
BRANCH  34  35
ATOM     35  C   UNL     1       2.913  -6.450  -1.256  0.00  0.00    +0.058 C 
BRANCH  35  36
ATOM     36  C   UNL     1       2.871  -6.700  -2.742  0.00  0.00    -0.046 A 
ATOM     37  C   UNL     1       3.955  -7.279  -3.376  0.00  0.00    +0.004 A 
ATOM     38  C   UNL     1       3.916  -7.509  -4.739  0.00  0.00    +0.000 A 
ATOM     39  C   UNL     1       2.794  -7.160  -5.467  0.00  0.00    +0.000 A 
ATOM     40  C   UNL     1       1.710  -6.582  -4.832  0.00  0.00    +0.000 A 
ATOM     41  C   UNL     1       1.747  -6.356  -3.469  0.00  0.00    +0.004 A 
ENDBRANCH  35  36
ENDBRANCH  34  35
ENDBRANCH  33  34
ENDBRANCH   1  29
TORSDOF 7
