REMARK  Name = ZINC50910339
REMARK  6 active torsions:
REMARK  status: ('A' for Active; 'I' for Inactive)
REMARK    1  A    between atoms: C_1  and  C_2
REMARK    2  A    between atoms: C_2  and  C_3
REMARK    3  A    between atoms: C_3  and  C_5
REMARK    4  A    between atoms: C_3  and  N_23
REMARK    5  A    between atoms: C_5  and  C_7
REMARK    6  A    between atoms: C_5  and  N_14
REMARK                            x       y       z     vdW  Elec       q    Type
REMARK                         _______ _______ _______ _____ _____    ______ ____
ROOT
ATOM      1  C   UNL     1      -1.416  -2.060  -0.118  0.00  0.00    +0.074 C 
ENDROOT
BRANCH   1   2
ATOM      2  N   UNL     1      -0.981  -2.182  -1.516  0.00  0.00    -0.289 NA
ATOM      3  C   UNL     1      -2.039  -1.722  -2.443  0.00  0.00    +0.120 C 
ATOM      4  C   UNL     1      -1.904  -2.585  -3.677  0.00  0.00    -0.029 A 
ATOM      5  C   UNL     1      -2.380  -2.430  -4.965  0.00  0.00    +0.005 A 
ATOM      6  C   UNL     1      -2.106  -3.388  -5.923  0.00  0.00    +0.000 A 
ATOM      7  C   UNL     1      -1.356  -4.502  -5.593  0.00  0.00    +0.000 A 
ATOM      8  C   UNL     1      -0.880  -4.657  -4.305  0.00  0.00    +0.005 A 
ATOM      9  C   UNL     1      -1.153  -3.700  -3.347  0.00  0.00    -0.029 A 
ATOM     10  C   UNL     1      -0.775  -3.600  -1.886  0.00  0.00    +0.120 C 
ENDBRANCH   1   2
BRANCH   1  11
ATOM     11  C   UNL     1      -2.669  -2.871   0.090  0.00  0.00    -0.018 A 
ATOM     12  C   UNL     1      -3.907  -2.304  -0.149  0.00  0.00    +0.006 A 
ATOM     13  C   UNL     1      -5.056  -3.047   0.041  0.00  0.00    +0.000 A 
ATOM     14  C   UNL     1      -4.969  -4.359   0.470  0.00  0.00    +0.001 A 
ATOM     15  C   UNL     1      -3.732  -4.927   0.709  0.00  0.00    +0.015 A 
ATOM     16  C   UNL     1      -2.581  -4.185   0.513  0.00  0.00    +0.022 A 
ATOM     17 BR   UNL     1      -0.887  -4.963   0.833  0.00  0.00    -0.050 Br
ENDBRANCH   1  11
BRANCH   1  18
ATOM     18  C   UNL     1      -1.700  -0.591   0.202  0.00  0.00    -0.053 C 
BRANCH  18  19
ATOM     19  N   UNL     1      -2.085  -0.464   1.614  0.00  0.00    +0.381 N 
ATOM     20  H   UNL     1      -2.351   0.491   1.805  0.00  0.00    -0.090 HD
ATOM     21  H   UNL     1      -2.864  -1.075   1.807  0.00  0.00    -0.090 HD
ATOM     22  H   UNL     1      -1.304  -0.719   2.200  0.00  0.00    -0.090 HD
ENDBRANCH  18  19
BRANCH  18  24
ATOM     23  C   UNL     1      -0.762   1.723   0.139  0.00  0.00    +0.002 C 
ATOM     24  C   UNL     1      -0.443   0.240  -0.061  0.00  0.00    -0.018 C 
ENDBRANCH  18  24
ENDBRANCH   1  18
TORSDOF 5
