REMARK  Name = ZINC39603295
REMARK  6 active torsions:
REMARK  status: ('A' for Active; 'I' for Inactive)
REMARK    1  A    between atoms: C_1  and  O_2
REMARK    2  A    between atoms: O_2  and  C_3
REMARK    3  A    between atoms: C_3  and  C_4
REMARK    4  A    between atoms: C_4  and  N_5
REMARK    5  A    between atoms: C_6  and  C_8
REMARK    6  A    between atoms: C_19  and  C_21
REMARK                            x       y       z     vdW  Elec       q    Type
REMARK                         _______ _______ _______ _____ _____    ______ ____
ROOT
ATOM      1  C   UNL     1       0.496  -4.264   2.974  0.00  0.00    +0.100 C 
ATOM      2  C   UNL     1      -0.411  -3.845   4.152  0.00  0.00    +0.121 C 
ATOM      3  N   UNL     1      -1.297  -5.011   4.377  0.00  0.00    -0.296 N 
ATOM      4  C   UNL     1      -0.414  -6.187   4.188  0.00  0.00    +0.115 C 
ATOM      5  C   UNL     1       0.495  -5.802   3.003  0.00  0.00    -0.004 C 
ATOM      6  C   UNL     1       1.909  -6.328   3.231  0.00  0.00    -0.010 C 
ATOM      7  C   UNL     1       1.892  -7.858   3.197  0.00  0.00    -0.082 C 
ATOM      8  N   UNL     1       1.381  -8.315   1.899  0.00  0.00    +0.379 N 
ATOM      9  C   UNL     1      -0.012  -7.884   1.729  0.00  0.00    -0.082 C 
ATOM     10  C   UNL     1      -0.075  -6.355   1.701  0.00  0.00    -0.010 C 
ATOM     11  C   UNL     1      -2.609  -5.005   4.683  0.00  0.00    +0.247 C 
ATOM     12  O   UNL     1      -3.182  -6.050   4.924  0.00  0.00    -0.270 OA
ATOM     13  H   UNL     1       1.946  -7.924   1.160  0.00  0.00    -0.086 HD
ATOM     14  H   UNL     1       1.428  -9.322   1.856  0.00  0.00    -0.086 HD
ENDROOT
BRANCH  11  15
ATOM     15  C   UNL     1      -3.352  -3.729   4.727  0.00  0.00    +0.045 A 
ATOM     16  C   UNL     1      -2.850  -2.648   5.462  0.00  0.00    +0.014 A 
ATOM     17  C   UNL     1      -3.540  -1.456   5.504  0.00  0.00    +0.001 A 
ATOM     18  C   UNL     1      -4.737  -1.313   4.820  0.00  0.00    +0.012 A 
ATOM     19  C   UNL     1      -5.253  -2.374   4.085  0.00  0.00    +0.031 A 
ATOM     20  C   UNL     1      -4.558  -3.592   4.028  0.00  0.00    +0.006 A 
ATOM     21  C   UNL     1      -5.322  -4.538   3.176  0.00  0.00    -0.006 A 
ATOM     22  C   UNL     1      -5.080  -5.854   2.805  0.00  0.00    +0.009 A 
ATOM     23  C   UNL     1      -5.976  -6.518   1.982  0.00  0.00    +0.001 A 
ATOM     24  C   UNL     1      -7.113  -5.880   1.526  0.00  0.00    +0.001 A 
ATOM     25  C   UNL     1      -7.369  -4.566   1.887  0.00  0.00    +0.012 A 
ATOM     26  C   UNL     1      -6.479  -3.889   2.711  0.00  0.00    +0.030 A 
ATOM     27  C   UNL     1      -6.484  -2.515   3.270  0.00  0.00    +0.194 C 
ATOM     28  O   UNL     1      -7.328  -1.663   3.083  0.00  0.00    -0.287 OA
ENDBRANCH  11  15
BRANCH   1  30
ATOM     29  N   UNL     1       0.754  -3.469   0.647  0.00  0.00    -0.313 N 
ATOM     30  C   UNL     1      -0.070  -3.764   1.671  0.00  0.00    +0.218 C 
ATOM     31  O   UNL     1      -1.268  -3.626   1.544  0.00  0.00    -0.275 OA
ATOM     32  H   UNL     1       1.713  -3.579   0.748  0.00  0.00    +0.149 HD
BRANCH  29  33
ATOM     33  C   UNL     1       0.203  -2.982  -0.621  0.00  0.00    +0.132 C 
BRANCH  33  34
ATOM     34  C   UNL     1       1.344  -2.726  -1.607  0.00  0.00    +0.178 C 
BRANCH  34  36
ATOM     35  C   UNL     1       3.073  -3.833  -2.845  0.00  0.00    +0.194 C 
ATOM     36  O   UNL     1       1.987  -3.962  -1.925  0.00  0.00    -0.381 OA
ENDBRANCH  34  36
ENDBRANCH  33  34
ENDBRANCH  29  33
ENDBRANCH   1  30
TORSDOF 5
