REMARK  Name = ZINC11592697
REMARK  8 active torsions:
REMARK  status: ('A' for Active; 'I' for Inactive)
REMARK    1  A    between atoms: C_1  and  C_2
REMARK    2  A    between atoms: C_4  and  O_32
REMARK    3  A    between atoms: C_12  and  O_20
REMARK    4  A    between atoms: C_14  and  C_15
REMARK    5  A    between atoms: C_14  and  O_19
REMARK    6  A    between atoms: C_15  and  C_17
REMARK    7  A    between atoms: C_17  and  O_18
REMARK    8  A    between atoms: C_29  and  C_30
REMARK                            x       y       z     vdW  Elec       q    Type
REMARK                         _______ _______ _______ _____ _____    ______ ____
ROOT
ATOM      1  C   UNL     1       5.721   3.949  -0.348  0.00  0.00    +0.015 C 
ATOM      2  C   UNL     1       5.253   3.756  -1.792  0.00  0.00    +0.012 C 
ATOM      3  C   UNL     1       3.738   3.731  -1.844  0.00  0.00    +0.044 C 
ATOM      4  C   UNL     1       3.287   2.654  -0.847  0.00  0.00    +0.154 C 
ATOM      5  C   UNL     1       3.865   1.285  -1.191  0.00  0.00    +0.153 C 
ATOM      6  C   UNL     1       5.398   1.343  -1.287  0.00  0.00    +0.034 C 
ATOM      7  C   UNL     1       5.752   2.388  -2.329  0.00  0.00    +0.007 C 
ATOM      8  C   UNL     1       7.249   2.657  -2.519  0.00  0.00    +0.039 C 
ATOM      9  C   UNL     1       7.272   4.084  -3.130  0.00  0.00    +0.154 C 
ATOM     10  C   UNL     1       5.949   4.765  -2.700  0.00  0.00    +0.157 C 
ATOM     11  C   UNL     1       5.938  -0.029  -1.696  0.00  0.00    +0.011 C 
ATOM     12  C   UNL     1       5.617  -1.064  -0.639  0.00  0.00    +0.032 C 
ATOM     13  C   UNL     1       4.121  -1.041  -0.388  0.00  0.00    -0.053 C 
ATOM     14  C   UNL     1       3.444  -2.179  -0.444  0.00  0.00    +0.051 C 
ATOM     15  C   UNL     1       1.987  -2.193  -0.238  0.00  0.00    +0.179 C 
ATOM     16  O   UNL     1       1.366  -3.240  -0.256  0.00  0.00    -0.288 OA
ATOM     17  C   UNL     1       1.297  -0.912  -0.010  0.00  0.00    +0.047 C 
ATOM     18  C   UNL     1       1.995   0.211   0.046  0.00  0.00    -0.009 C 
ATOM     19  C   UNL     1       3.476   0.282  -0.100  0.00  0.00    +0.044 C 
ATOM     20  C   UNL     1       4.036   0.797   1.228  0.00  0.00    +0.023 C 
ATOM     21  F   UNL     1       3.343   0.858  -2.416  0.00  0.00    -0.238 F 
ENDROOT
BRANCH  10  22
ATOM     22  C   UNL     1       5.096   5.059  -3.907  0.00  0.00    +0.193 C 
ATOM     23  O   UNL     1       5.106   4.306  -4.851  0.00  0.00    -0.292 OA
BRANCH  22  24
ATOM     24  C   UNL     1       4.231   6.293  -3.936  0.00  0.00    +0.233 C 
BRANCH  24  25
ATOM     25  O   UNL     1       3.524   6.350  -5.176  0.00  0.00    -0.387 OA
ATOM     26  H   UNL     1       2.946   7.120  -5.265  0.00  0.00    +0.210 HD
ENDBRANCH  24  25
ENDBRANCH  22  24
ENDBRANCH  10  22
BRANCH  10  27
ATOM     27  O   UNL     1       6.223   5.970  -1.983  0.00  0.00    -0.378 OA
ATOM     28  H   UNL     1       6.701   6.634  -2.498  0.00  0.00    +0.211 HD
ENDBRANCH  10  27
BRANCH   9  29
ATOM     29  O   UNL     1       7.342   4.006  -4.556  0.00  0.00    -0.388 OA
ATOM     30  H   UNL     1       8.138   3.567  -4.887  0.00  0.00    +0.210 HD
ENDBRANCH   9  29
BRANCH   4  31
ATOM     31  O   UNL     1       3.698   3.016   0.473  0.00  0.00    -0.389 OA
ATOM     32  H   UNL     1       3.369   3.877   0.765  0.00  0.00    +0.210 HD
ENDBRANCH   4  31
TORSDOF 6
