REMARK  Name = ZINC58934916
REMARK  11 active torsions:
REMARK  status: ('A' for Active; 'I' for Inactive)
REMARK    1  A    between atoms: C_1  and  C_2
REMARK    2  A    between atoms: C_2  and  O_3
REMARK    3  A    between atoms: O_3  and  C_4
REMARK    4  A    between atoms: C_7  and  C_10
REMARK    5  A    between atoms: C_12  and  C_15
REMARK    6  A    between atoms: C_15  and  S_16
REMARK    7  A    between atoms: S_16  and  C_19
REMARK    8  A    between atoms: C_19  and  C_21
REMARK    9  A    between atoms: C_19  and  C_22
REMARK   10  A    between atoms: N_24  and  C_25
REMARK   11  A    between atoms: C_28  and  C_31
REMARK                            x       y       z     vdW  Elec       q    Type
REMARK                         _______ _______ _______ _____ _____    ______ ____
ROOT
ATOM      1  S   UNL     1       4.093  -9.056  -3.543  0.00  0.00    -0.015 S 
ATOM      2  O   UNL     1       4.755  -7.800  -3.487  0.00  0.00    -0.173 OA
ATOM      3  O   UNL     1       4.158  -9.922  -2.418  0.00  0.00    -0.173 OA
ENDROOT
BRANCH   1   4
ATOM      4  C   UNL     1       4.696  -9.959  -4.996  0.00  0.00    +0.213 C 
ATOM      5  C   UNL     1       4.513  -9.095  -6.245  0.00  0.00    +0.042 C 
BRANCH   4   6
ATOM      6  C   UNL     1       6.157 -10.280  -4.818  0.00  0.00    +0.237 C 
ATOM      7  O   UNL     1       6.824  -9.652  -4.022  0.00  0.00    -0.274 OA
ATOM      8  N   UNL     1       6.724 -11.266  -5.542  0.00  0.00    -0.311 N 
ATOM      9  H   UNL     1       6.191 -11.768  -6.178  0.00  0.00    +0.149 HD
BRANCH   8  10
ATOM     10  C   UNL     1       8.145 -11.578  -5.368  0.00  0.00    +0.073 C 
ATOM     11  C   UNL     1       8.983 -10.649  -6.249  0.00  0.00    +0.022 C 
ATOM     12  C   UNL     1       8.593 -10.847  -7.715  0.00  0.00    +0.005 C 
ATOM     13  C   UNL     1       8.848 -12.301  -8.118  0.00  0.00    -0.014 C 
ATOM     14  C   UNL     1       8.011 -13.230  -7.238  0.00  0.00    +0.005 C 
ATOM     15  C   UNL     1       8.401 -13.032  -5.772  0.00  0.00    +0.022 C 
ATOM     16  C   UNL     1       8.458 -12.499  -9.585  0.00  0.00    +0.007 C 
ENDBRANCH   8  10
ENDBRANCH   4   6
ENDBRANCH   1   4
BRANCH   1  17
ATOM     17  C   UNL     1       2.348  -8.768  -3.945  0.00  0.00    +0.222 C 
BRANCH  17  20
ATOM     18  C   UNL     1       1.108  -6.015  -1.844  0.00  0.00    +0.109 A 
ATOM     19  N   UNL     1       1.680  -6.702  -2.823  0.00  0.00    -0.242 NA
ATOM     20  C   UNL     1       1.690  -8.015  -2.818  0.00  0.00    +0.070 A 
ATOM     21  C   UNL     1       1.107  -8.693  -1.796  0.00  0.00    +0.072 A 
ATOM     22  S   UNL     1       0.521  -7.335  -0.790  0.00  0.00    -0.075 S 
BRANCH  18  26
ATOM     23  C   UNL     1       0.777  -1.810  -1.336  0.00  0.00    +0.121 A 
ATOM     24  C   UNL     1       0.241  -2.666  -0.384  0.00  0.00    +0.046 A 
ATOM     25  C   UNL     1       0.346  -4.031  -0.545  0.00  0.00    +0.014 A 
ATOM     26  C   UNL     1       0.993  -4.552  -1.667  0.00  0.00    +0.007 A 
ATOM     27  C   UNL     1       1.530  -3.687  -2.623  0.00  0.00    +0.014 A 
ATOM     28  C   UNL     1       1.415  -2.324  -2.457  0.00  0.00    +0.046 A 
BRANCH  23  29
ATOM     29  O   UNL     1       0.671  -0.465  -1.174  0.00  0.00    -0.492 OA
BRANCH  29  31
ATOM     30  C   UNL     1      -0.019   1.526   0.010  0.00  0.00    +0.048 C 
ATOM     31  C   UNL     1       0.002  -0.004   0.002  0.00  0.00    +0.225 C 
ENDBRANCH  29  31
ENDBRANCH  23  29
ENDBRANCH  18  26
ENDBRANCH  17  20
ENDBRANCH   1  17
TORSDOF 8
