REMARK  Name = ZINC02841060
REMARK  14 active torsions:
REMARK  status: ('A' for Active; 'I' for Inactive)
REMARK    1  A    between atoms: C_1  and  C_2
REMARK    2  A    between atoms: C_2  and  C_3
REMARK    3  A    between atoms: C_2  and  C_4
REMARK    4  A    between atoms: C_4  and  C_5
REMARK    5  A    between atoms: C_5  and  C_7
REMARK    6  A    between atoms: C_5  and  N_26
REMARK    7  A    between atoms: C_10  and  S_13
REMARK    8  A    between atoms: N_11  and  C_12
REMARK    9  A    between atoms: S_13  and  C_14
REMARK   10  A    between atoms: C_14  and  C_15
REMARK   11  A    between atoms: N_17  and  C_18
REMARK   12  A    between atoms: C_22  and  S_24
REMARK   13  A    between atoms: S_24  and  C_25
REMARK   14  A    between atoms: C_28  and  C_30
REMARK                            x       y       z     vdW  Elec       q    Type
REMARK                         _______ _______ _______ _____ _____    ______ ____
ROOT
ATOM      1  C   UNL     1      -7.172  -0.190   0.417  0.00  0.00    +0.154 A 
ATOM      2  N   UNL     1      -6.246  -1.107   0.440  0.00  0.00    -0.132 NA
ATOM      3  N   UNL     1      -5.085  -0.564   0.343  0.00  0.00    -0.122 NA
ATOM      4  C   UNL     1      -5.208   0.741   0.261  0.00  0.00    +0.192 A 
ATOM      5  N   UNL     1      -6.544   1.020   0.302  0.00  0.00    -0.308 N 
ATOM      6  C   UNL     1      -7.175   2.341   0.237  0.00  0.00    +0.152 C 
ENDROOT
BRANCH   1   7
ATOM      7  C   UNL     1      -8.659  -0.420   0.501  0.00  0.00    +0.142 C 
BRANCH   7   8
ATOM      8  N   UNL     1      -9.033  -1.526  -0.384  0.00  0.00    -0.301 N 
ATOM      9  H   UNL     1      -8.378  -2.202  -0.618  0.00  0.00    +0.150 HD
ATOM     10  C   UNL     1     -10.286  -1.605  -0.871  0.00  0.00    +0.246 C 
ATOM     11  O   UNL     1     -11.107  -0.758  -0.578  0.00  0.00    -0.270 OA
BRANCH  10  12
ATOM     12  C   UNL     1     -10.663  -2.721  -1.764  0.00  0.00    +0.055 A 
ATOM     13  C   UNL     1      -9.723  -3.696  -2.103  0.00  0.00    +0.014 A 
ATOM     14  C   UNL     1     -10.082  -4.735  -2.936  0.00  0.00    +0.001 A 
ATOM     15  C   UNL     1     -11.370  -4.814  -3.435  0.00  0.00    +0.001 A 
ATOM     16  C   UNL     1     -12.307  -3.853  -3.104  0.00  0.00    +0.021 A 
ATOM     17  C   UNL     1     -11.964  -2.809  -2.267  0.00  0.00    +0.053 A 
ATOM     18 CL   UNL     1     -13.143  -1.607  -1.846  0.00  0.00    -0.083 Cl
ENDBRANCH  10  12
ENDBRANCH   7   8
BRANCH   7  19
ATOM     19  C   UNL     1      -9.040  -0.767   1.941  0.00  0.00    +0.033 C 
BRANCH  19  21
ATOM     20  C   UNL     1     -10.937  -1.347   3.461  0.00  0.00    +0.007 C 
ATOM     21  C   UNL     1     -10.562  -0.879   2.053  0.00  0.00    -0.015 C 
ATOM     22  C   UNL     1     -11.194   0.488   1.786  0.00  0.00    +0.007 C 
ENDBRANCH  19  21
ENDBRANCH   7  19
ENDBRANCH   1   7
BRANCH   4  23
ATOM     23  S   UNL     1      -3.898   1.910   0.118  0.00  0.00    -0.077 S 
BRANCH  23  24
ATOM     24  C   UNL     1      -2.475   0.791   0.133  0.00  0.00    +0.173 C 
BRANCH  24  25
ATOM     25  C   UNL     1      -1.204   1.592   0.017  0.00  0.00    +0.227 C 
ATOM     26  O   UNL     1      -1.255   2.801  -0.067  0.00  0.00    -0.275 OA
ATOM     27  N   UNL     1      -0.011   0.966   0.007  0.00  0.00    -0.285 N 
ATOM     28  H   UNL     1       0.028  -0.003   0.007  0.00  0.00    +0.155 HD
BRANCH  27  29
ATOM     29  C   UNL     1       1.171   1.714  -0.008  0.00  0.00    +0.034 A 
ATOM     30  C   UNL     1       1.228   2.912  -0.709  0.00  0.00    +0.023 A 
ATOM     31  C   UNL     1       2.393   3.654  -0.721  0.00  0.00    +0.003 A 
ATOM     32  C   UNL     1       3.510   3.202  -0.045  0.00  0.00    +0.015 A 
ATOM     33  C   UNL     1       3.462   2.001   0.654  0.00  0.00    +0.009 A 
ATOM     34  C   UNL     1       2.291   1.256   0.672  0.00  0.00    +0.038 A 
BRANCH  33  35
ATOM     35  S   UNL     1       4.887   1.425   1.516  0.00  0.00    -0.129 S 
ATOM     36  C   UNL     1       6.135   2.705   1.206  0.00  0.00    +0.090 C 
ENDBRANCH  33  35
ENDBRANCH  27  29
ENDBRANCH  24  25
ENDBRANCH  23  24
ENDBRANCH   4  23
TORSDOF 10
