REMARK  Name = ZINC22938278
REMARK  6 active torsions:
REMARK  status: ('A' for Active; 'I' for Inactive)
REMARK    1  A    between atoms: C_1  and  N_2
REMARK    2  A    between atoms: N_5  and  C_8
REMARK    3  A    between atoms: C_8  and  C_10
REMARK    4  A    between atoms: C_8  and  C_17
REMARK    5  A    between atoms: C_18  and  N_26
REMARK    6  A    between atoms: C_27  and  C_29
REMARK                            x       y       z     vdW  Elec       q    Type
REMARK                         _______ _______ _______ _____ _____    ______ ____
ROOT
ATOM      1  C   UNL     1       2.543  -4.010   1.140  0.00  0.00    +0.149 A 
ATOM      2  C   UNL     1       3.394  -5.044   1.270  0.00  0.00    +0.085 A 
ATOM      3  C   UNL     1       3.776  -5.082   2.690  0.00  0.00    +0.042 A 
ATOM      4  C   UNL     1       4.610  -5.897   3.452  0.00  0.00    +0.013 A 
ATOM      5  C   UNL     1       4.753  -5.658   4.791  0.00  0.00    +0.001 A 
ATOM      6  C   UNL     1       4.073  -4.610   5.394  0.00  0.00    +0.004 A 
ATOM      7  C   UNL     1       3.244  -3.793   4.656  0.00  0.00    +0.047 A 
ATOM      8  C   UNL     1       3.084  -4.019   3.294  0.00  0.00    +0.137 A 
ATOM      9  O   UNL     1       2.367  -3.406   2.331  0.00  0.00    -0.456 OA
ENDROOT
BRANCH   2  10
ATOM     10  N   UNL     1       3.829  -5.912   0.255  0.00  0.00    -0.278 N 
ATOM     11  C   UNL     1       5.079  -6.415   0.289  0.00  0.00    +0.248 C 
ATOM     12  O   UNL     1       5.798  -6.194   1.244  0.00  0.00    -0.270 OA
ATOM     13  H   UNL     1       3.230  -6.149  -0.470  0.00  0.00    +0.155 HD
BRANCH  11  14
ATOM     14  C   UNL     1       5.576  -7.235  -0.836  0.00  0.00    +0.037 A 
ATOM     15  C   UNL     1       4.755  -7.486  -1.937  0.00  0.00    +0.013 A 
ATOM     16  C   UNL     1       5.225  -8.253  -2.983  0.00  0.00    +0.001 A 
ATOM     17  C   UNL     1       6.507  -8.773  -2.943  0.00  0.00    +0.000 A 
ATOM     18  C   UNL     1       7.325  -8.528  -1.854  0.00  0.00    +0.001 A 
ATOM     19  C   UNL     1       6.870  -7.757  -0.804  0.00  0.00    +0.013 A 
ENDBRANCH  11  14
ENDBRANCH   2  10
BRANCH   1  20
ATOM     20  C   UNL     1       1.889  -3.586  -0.149  0.00  0.00    +0.155 C 
BRANCH  20  25
ATOM     21  C   UNL     1       2.864   1.767  -1.612  0.00  0.00    -0.096 C 
ATOM     22  N   UNL     1       2.817   0.301  -1.525  0.00  0.00    +0.379 N 
ATOM     23  C   UNL     1       3.387  -0.131  -0.242  0.00  0.00    -0.064 C 
ATOM     24  C   UNL     1       3.356  -1.659  -0.160  0.00  0.00    +0.067 C 
ATOM     25  N   UNL     1       1.967  -2.125  -0.281  0.00  0.00    -0.293 NA
ATOM     26  C   UNL     1       1.376  -1.678  -1.550  0.00  0.00    +0.067 C 
ATOM     27  C   UNL     1       1.423  -0.150  -1.621  0.00  0.00    -0.064 C 
ATOM     28  H   UNL     1       3.353  -0.097  -2.282  0.00  0.00    -0.082 HD
ENDBRANCH  20  25
BRANCH  20  29
ATOM     29  C   UNL     1       0.444  -4.013  -0.143  0.00  0.00    -0.023 A 
ATOM     30  C   UNL     1      -0.471  -3.346   0.651  0.00  0.00    +0.007 A 
ATOM     31  C   UNL     1      -1.796  -3.737   0.657  0.00  0.00    +0.020 A 
ATOM     32  C   UNL     1      -2.208  -4.797  -0.132  0.00  0.00    +0.041 A 
ATOM     33  C   UNL     1      -1.292  -5.464  -0.927  0.00  0.00    +0.020 A 
ATOM     34  C   UNL     1       0.032  -5.068  -0.936  0.00  0.00    +0.007 A 
ATOM     35 CL   UNL     1      -3.873  -5.289  -0.125  0.00  0.00    -0.084 Cl
ENDBRANCH  20  29
ENDBRANCH   1  20
TORSDOF 5
