REMARK  Name = ZINC05043228
REMARK  5 active torsions:
REMARK  status: ('A' for Active; 'I' for Inactive)
REMARK    1  A    between atoms: C_1  and  C_2
REMARK    2  A    between atoms: C_5  and  N_8
REMARK    3  A    between atoms: C_15  and  C_26
REMARK    4  A    between atoms: C_22  and  O_23
REMARK    5  A    between atoms: O_23  and  C_24
REMARK                            x       y       z     vdW  Elec       q    Type
REMARK                         _______ _______ _______ _____ _____    ______ ____
ROOT
ATOM      1  N   UNL     1      -0.184   1.540  -0.104  0.00  0.00    -0.216 N 
ATOM      2  C   UNL     1      -1.159   2.313   0.398  0.00  0.00    +0.310 C 
ATOM      3  O   UNL     1      -2.210   1.793   0.721  0.00  0.00    -0.252 OA
ATOM      4  N   UNL     1      -1.020   3.640   0.551  0.00  0.00    -0.292 N 
ATOM      5  C   UNL     1       0.267   4.280   0.234  0.00  0.00    +0.114 C 
ATOM      6  C   UNL     1       0.850   3.570  -0.991  0.00  0.00    +0.096 C 
ATOM      7  C   UNL     1       1.070   2.101  -0.600  0.00  0.00    +0.185 C 
ATOM      8  O   UNL     1       2.082   2.048   0.402  0.00  0.00    -0.464 OA
ATOM      9  C   UNL     1       2.036   2.941   1.425  0.00  0.00    +0.170 A 
ATOM     10  C   UNL     1       1.194   4.036   1.404  0.00  0.00    +0.019 A 
ATOM     11  C   UNL     1       1.184   4.927   2.463  0.00  0.00    +0.024 A 
ATOM     12  C   UNL     1       2.012   4.725   3.551  0.00  0.00    +0.022 A 
ATOM     13  C   UNL     1       2.855   3.629   3.583  0.00  0.00    +0.064 A 
ATOM     14  C   UNL     1       2.871   2.737   2.525  0.00  0.00    +0.163 A 
ATOM     15 BR   UNL     1       1.993   5.947   4.995  0.00  0.00    -0.050 Br
ATOM     16  C   UNL     1       1.529   1.312  -1.828  0.00  0.00    +0.079 C 
ATOM     17  H   UNL     1      -1.764   4.174   0.871  0.00  0.00    +0.151 HD
ENDROOT
BRANCH   1  22
ATOM     18  C   UNL     1      -0.967  -4.074  -0.329  0.00  0.00    +0.044 C 
ATOM     19  C   UNL     1      -0.758  -2.583  -0.270  0.00  0.00    -0.050 A 
ATOM     20  C   UNL     1      -0.067  -2.024   0.790  0.00  0.00    +0.005 A 
ATOM     21  C   UNL     1       0.125  -0.658   0.848  0.00  0.00    +0.024 A 
ATOM     22  C   UNL     1      -0.376   0.155  -0.160  0.00  0.00    +0.041 A 
ATOM     23  C   UNL     1      -1.075  -0.408  -1.220  0.00  0.00    +0.024 A 
ATOM     24  C   UNL     1      -1.259  -1.776  -1.274  0.00  0.00    +0.005 A 
ENDBRANCH   1  22
BRANCH  14  25
ATOM     25  O   UNL     1       3.700   1.660   2.558  0.00  0.00    -0.491 OA
ATOM     26  C   UNL     1       4.527   1.512   3.714  0.00  0.00    +0.277 C 
ENDBRANCH  14  25
TORSDOF 2
