REMARK  Name = ZINC39666012
REMARK  10 active torsions:
REMARK  status: ('A' for Active; 'I' for Inactive)
REMARK    1  A    between atoms: C_1  and  C_2
REMARK    2  A    between atoms: C_5  and  O_8
REMARK    3  A    between atoms: O_8  and  C_9
REMARK    4  A    between atoms: C_9  and  C_11
REMARK    5  A    between atoms: C_9  and  C_12
REMARK    6  A    between atoms: C_12  and  N_13
REMARK    7  A    between atoms: C_14  and  C_16
REMARK    8  A    between atoms: C_27  and  C_29
REMARK    9  A    between atoms: C_32  and  O_35
REMARK   10  A    between atoms: O_35  and  C_36
REMARK                            x       y       z     vdW  Elec       q    Type
REMARK                         _______ _______ _______ _____ _____    ______ ____
ROOT
ATOM      1  C   UNL     1       4.660  -6.548   0.315  0.00  0.00    +0.100 C 
ATOM      2  C   UNL     1       4.938  -5.632  -0.897  0.00  0.00    +0.121 C 
ATOM      3  N   UNL     1       6.230  -6.114  -1.441  0.00  0.00    -0.296 N 
ATOM      4  C   UNL     1       6.153  -7.589  -1.323  0.00  0.00    +0.115 C 
ATOM      5  C   UNL     1       5.458  -7.832   0.032  0.00  0.00    -0.004 C 
ATOM      6  C   UNL     1       6.497  -8.060   1.125  0.00  0.00    -0.010 C 
ATOM      7  C   UNL     1       7.240  -9.371   0.852  0.00  0.00    -0.082 C 
ATOM      8  N   UNL     1       6.280 -10.481   0.822  0.00  0.00    +0.379 N 
ATOM      9  C   UNL     1       5.340 -10.301  -0.290  0.00  0.00    -0.082 C 
ATOM     10  C   UNL     1       4.517  -9.029  -0.065  0.00  0.00    -0.010 C 
ATOM     11  C   UNL     1       7.245  -5.376  -1.933  0.00  0.00    +0.247 C 
ATOM     12  O   UNL     1       7.136  -4.168  -2.014  0.00  0.00    -0.270 OA
ATOM     13  H   UNL     1       6.777 -11.351   0.703  0.00  0.00    -0.086 HD
ATOM     14  H   UNL     1       5.769 -10.506   1.692  0.00  0.00    -0.086 HD
ENDROOT
BRANCH  11  15
ATOM     15  C   UNL     1       8.491  -6.036  -2.373  0.00  0.00    +0.037 A 
ATOM     16  C   UNL     1       8.455  -7.345  -2.861  0.00  0.00    +0.016 A 
ATOM     17  C   UNL     1       9.619  -7.956  -3.271  0.00  0.00    +0.047 A 
ATOM     18  C   UNL     1      10.828  -7.273  -3.200  0.00  0.00    +0.130 A 
ATOM     19  C   UNL     1      10.867  -5.971  -2.715  0.00  0.00    +0.047 A 
ATOM     20  C   UNL     1       9.707  -5.351  -2.308  0.00  0.00    +0.016 A 
BRANCH  18  21
ATOM     21  O   UNL     1      11.972  -7.880  -3.604  0.00  0.00    -0.406 OA
BRANCH  21  22
ATOM     22  C   UNL     1      13.179  -7.121  -3.503  0.00  0.00    +0.575 C 
ATOM     23  F   UNL     1      13.395  -6.762  -2.168  0.00  0.00    -0.133 F 
ATOM     24  F   UNL     1      14.254  -7.891  -3.959  0.00  0.00    -0.133 F 
ATOM     25  F   UNL     1      13.069  -5.965  -4.285  0.00  0.00    -0.133 F 
ENDBRANCH  21  22
ENDBRANCH  18  21
ENDBRANCH  11  15
BRANCH   1  27
ATOM     26  N   UNL     1       2.627  -7.094   1.615  0.00  0.00    -0.312 N 
ATOM     27  C   UNL     1       3.188  -6.856   0.412  0.00  0.00    +0.218 C 
ATOM     28  O   UNL     1       2.508  -6.891  -0.591  0.00  0.00    -0.275 OA
ATOM     29  H   UNL     1       3.171  -7.067   2.417  0.00  0.00    +0.149 HD
BRANCH  26  30
ATOM     30  C   UNL     1       1.196  -7.394   1.709  0.00  0.00    +0.148 C 
BRANCH  30  31
ATOM     31  C   UNL     1       0.819  -7.622   3.175  0.00  0.00    +0.187 C 
ATOM     32  C   UNL     1      -0.646  -8.056   3.262  0.00  0.00    +0.053 C 
BRANCH  31  33
ATOM     33  O   UNL     1       1.000  -6.409   3.907  0.00  0.00    -0.488 OA
BRANCH  33  38
ATOM     34  C   UNL     1       2.257  -6.889   9.377  0.00  0.00    +0.044 C 
ATOM     35  C   UNL     1       1.921  -6.760   7.913  0.00  0.00    -0.050 A 
ATOM     36  C   UNL     1       1.624  -7.889   7.172  0.00  0.00    +0.007 A 
ATOM     37  C   UNL     1       1.315  -7.774   5.830  0.00  0.00    +0.046 A 
ATOM     38  C   UNL     1       1.303  -6.524   5.227  0.00  0.00    +0.121 A 
ATOM     39  C   UNL     1       1.601  -5.394   5.974  0.00  0.00    +0.046 A 
ATOM     40  C   UNL     1       1.903  -5.513   7.316  0.00  0.00    +0.007 A 
ENDBRANCH  33  38
ENDBRANCH  31  33
ENDBRANCH  30  31
ENDBRANCH  26  30
ENDBRANCH   1  27
TORSDOF 8
