REMARK  Name = ZINC14023469
REMARK  9 active torsions:
REMARK  status: ('A' for Active; 'I' for Inactive)
REMARK    1  A    between atoms: C_1  and  C_2
REMARK    2  A    between atoms: N_11  and  C_12
REMARK    3  A    between atoms: C_12  and  C_13
REMARK    4  A    between atoms: C_13  and  N_63
REMARK    5  A    between atoms: C_14  and  N_63
REMARK    6  A    between atoms: C_15  and  N_63
REMARK    7  A    between atoms: C_16  and  C_18
REMARK    8  A    between atoms: N_23  and  S_25
REMARK    9  A    between atoms: S_25  and  C_28
REMARK                            x       y       z     vdW  Elec       q    Type
REMARK                         _______ _______ _______ _____ _____    ______ ____
ROOT
ATOM      1  C   UNL     1      -9.081  -6.204   8.181  0.00  0.00    +0.044 C 
ATOM      2  C   UNL     1      -7.741  -6.010   7.521  0.00  0.00    -0.049 A 
ATOM      3  C   UNL     1      -6.848  -7.067   7.421  0.00  0.00    +0.005 A 
ATOM      4  C   UNL     1      -5.624  -6.917   6.824  0.00  0.00    +0.029 A 
ATOM      5  C   UNL     1      -5.230  -5.669   6.288  0.00  0.00    +0.080 A 
ATOM      6  C   UNL     1      -6.164  -4.615   6.408  0.00  0.00    +0.041 A 
ATOM      7  C   UNL     1      -7.388  -4.775   7.007  0.00  0.00    +0.020 A 
ATOM      8  S   UNL     1      -5.306  -3.261   5.641  0.00  0.00    -0.052 S 
ATOM      9  C   UNL     1      -3.817  -4.151   5.215  0.00  0.00    +0.168 A 
ATOM     10  N   UNL     1      -4.069  -5.355   5.674  0.00  0.00    -0.224 NA
ATOM     11  N   UNL     1      -2.682  -3.687   4.570  0.00  0.00    -0.252 N 
ATOM     12  C   UNL     1      -2.552  -2.374   4.295  0.00  0.00    +0.226 C 
ATOM     13  O   UNL     1      -1.613  -1.983   3.635  0.00  0.00    -0.275 OA
ENDROOT
BRANCH  12  14
ATOM     14  C   UNL     1      -3.575  -1.393   4.806  0.00  0.00    +0.091 C 
ATOM     15  C   UNL     1      -4.738  -1.304   3.814  0.00  0.00    +0.015 C 
ATOM     16  C   UNL     1      -5.793  -0.333   4.348  0.00  0.00    +0.018 C 
ATOM     17  C   UNL     1      -5.175   1.057   4.494  0.00  0.00    +0.109 C 
ATOM     18  N   UNL     1      -3.968   0.959   5.326  0.00  0.00    -0.176 NA
ATOM     19  C   UNL     1      -2.929  -0.011   4.953  0.00  0.00    +0.122 C 
BRANCH  18  20
ATOM     20  S   UNL     1      -3.785   1.918   6.663  0.00  0.00    +0.061 S 
ATOM     21  O   UNL     1      -2.883   1.242   7.528  0.00  0.00    -0.153 OA
ATOM     22  O   UNL     1      -5.092   2.299   7.072  0.00  0.00    -0.153 OA
BRANCH  20  23
ATOM     23  C   UNL     1      -2.972   3.392   6.140  0.00  0.00    +0.106 A 
ATOM     24  C   UNL     1      -1.592   3.463   6.159  0.00  0.00    +0.031 A 
ATOM     25  C   UNL     1      -0.953   4.616   5.744  0.00  0.00    +0.040 A 
ATOM     26  C   UNL     1      -1.697   5.704   5.319  0.00  0.00    +0.124 A 
ATOM     27  C   UNL     1      -3.080   5.633   5.305  0.00  0.00    +0.040 A 
ATOM     28  C   UNL     1      -3.716   4.477   5.715  0.00  0.00    +0.031 A 
ATOM     29  F   UNL     1      -1.074   6.834   4.918  0.00  0.00    -0.205 F 
ENDBRANCH  20  23
ENDBRANCH  18  20
ENDBRANCH  12  14
BRANCH  11  30
ATOM     30  C   UNL     1      -1.622  -4.624   4.187  0.00  0.00    +0.097 C 
BRANCH  30  31
ATOM     31  C   UNL     1      -0.616  -4.751   5.332  0.00  0.00    -0.060 C 
BRANCH  31  34
ATOM     32  C   UNL     1       1.199  -5.373   3.854  0.00  0.00    -0.097 C 
ATOM     33  C   UNL     1       1.214  -6.101   6.163  0.00  0.00    -0.097 C 
ATOM     34  N   UNL     1       0.362  -5.807   4.992  0.00  0.00    +0.377 N 
ATOM     35  H   UNL     1      -0.146  -6.659   4.727  0.00  0.00    -0.083 HD
ENDBRANCH  31  34
ENDBRANCH  30  31
ENDBRANCH  11  30
TORSDOF 6
