REMARK  Name = ZINC13712296
REMARK  6 active torsions:
REMARK  status: ('A' for Active; 'I' for Inactive)
REMARK    1  A    between atoms: C_1  and  O_2
REMARK    2  A    between atoms: O_2  and  C_3
REMARK    3  A    between atoms: C_6  and  C_11
REMARK    4  A    between atoms: C_7  and  O_9
REMARK    5  A    between atoms: O_9  and  C_10
REMARK    6  A    between atoms: N_17  and  C_18
REMARK                            x       y       z     vdW  Elec       q    Type
REMARK                         _______ _______ _______ _____ _____    ______ ____
ROOT
ATOM      1  C   UNL     1       3.483  -2.410  -4.007  0.00  0.00    +0.032 C 
ATOM      2  C   UNL     1       3.730  -1.667  -5.118  0.00  0.00    +0.078 C 
ATOM      3  C   UNL     1       4.362  -2.066  -6.387  0.00  0.00    +0.256 C 
ATOM      4  O   UNL     1       4.756  -3.203  -6.572  0.00  0.00    -0.269 OA
ATOM      5  N   UNL     1       4.482  -1.134  -7.318  0.00  0.00    -0.260 N 
ATOM      6  C   UNL     1       4.030   0.148  -7.090  0.00  0.00    +0.166 C 
ATOM      7  N   UNL     1       4.070   1.185  -7.897  0.00  0.00    -0.224 NA
ATOM      8  S   UNL     1       3.368   0.054  -5.434  0.00  0.00    -0.049 S 
ATOM      9  H   UNL     1       4.893  -1.354  -8.168  0.00  0.00    +0.157 HD
ENDROOT
BRANCH   7  10
ATOM     10  C   UNL     1       4.537   1.039  -9.175  0.00  0.00    +0.085 A 
ATOM     11  C   UNL     1       4.049   0.013  -9.988  0.00  0.00    +0.029 A 
ATOM     12  C   UNL     1       4.524  -0.128 -11.275  0.00  0.00    +0.002 A 
ATOM     13  C   UNL     1       5.481   0.744 -11.763  0.00  0.00    +0.002 A 
ATOM     14  C   UNL     1       5.970   1.762 -10.964  0.00  0.00    +0.022 A 
ATOM     15  C   UNL     1       5.500   1.919  -9.676  0.00  0.00    +0.066 A 
ATOM     16 CL   UNL     1       6.108   3.203  -8.678  0.00  0.00    -0.081 Cl
ENDBRANCH   7  10
BRANCH   1  20
ATOM     17  C   UNL     1       1.176  -0.785  -0.839  0.00  0.00    +0.124 A 
ATOM     18  C   UNL     1       1.122  -0.210  -2.105  0.00  0.00    +0.046 A 
ATOM     19  C   UNL     1       1.868  -0.733  -3.136  0.00  0.00    +0.015 A 
ATOM     20  C   UNL     1       2.686  -1.848  -2.912  0.00  0.00    +0.018 A 
ATOM     21  C   UNL     1       2.738  -2.426  -1.632  0.00  0.00    +0.131 A 
ATOM     22  C   UNL     1       1.986  -1.887  -0.604  0.00  0.00    +0.091 A 
BRANCH  17  24
ATOM     23  C   UNL     1      -0.376   0.872  -0.138  0.00  0.00    +0.277 C 
ATOM     24  O   UNL     1       0.436  -0.262   0.172  0.00  0.00    -0.495 OA
ENDBRANCH  17  24
BRANCH  21  25
ATOM     25  O   UNL     1       3.526  -3.507  -1.404  0.00  0.00    -0.494 OA
ATOM     26  C   UNL     1       3.529  -4.041  -0.079  0.00  0.00    +0.277 C 
ENDBRANCH  21  25
ENDBRANCH   1  20
TORSDOF 4
