REMARK  Name = ZINC40548012
REMARK  11 active torsions:
REMARK  status: ('A' for Active; 'I' for Inactive)
REMARK    1  A    between atoms: C_1  and  C_2
REMARK    2  A    between atoms: C_2  and  C_3
REMARK    3  A    between atoms: C_3  and  C_4
REMARK    4  A    between atoms: C_4  and  C_5
REMARK    5  A    between atoms: C_5  and  O_6
REMARK    6  A    between atoms: O_6  and  C_7
REMARK    7  A    between atoms: C_11  and  C_13
REMARK    8  A    between atoms: C_16  and  C_32
REMARK    9  A    between atoms: N_23  and  C_24
REMARK   10  A    between atoms: C_34  and  C_39
REMARK   11  A    between atoms: C_37  and  O_38
REMARK                            x       y       z     vdW  Elec       q    Type
REMARK                         _______ _______ _______ _____ _____    ______ ____
ROOT
ATOM      1  C   UNL     1       2.797  -7.854  -4.947  0.00  0.00    +0.142 C 
ATOM      2  C   UNL     1       1.689  -8.475  -5.753  0.00  0.00    +0.035 A 
ATOM      3  C   UNL     1       0.312  -8.659  -5.920  0.00  0.00    +0.102 A 
ATOM      4  N   UNL     1       0.142  -9.418  -6.984  0.00  0.00    -0.173 NA
ATOM      5  N   UNL     1       1.274  -9.731  -7.506  0.00  0.00    -0.272 N 
ATOM      6  H   UNL     1       1.390 -10.282  -8.296  0.00  0.00    +0.189 HD
ATOM      7  C   UNL     1       2.290  -9.173  -6.783  0.00  0.00    +0.126 A 
ATOM      8  C   UNL     1       3.744  -9.020  -6.664  0.00  0.00    +0.266 C 
ATOM      9  O   UNL     1       4.558  -9.514  -7.420  0.00  0.00    -0.268 OA
ATOM     10  N   UNL     1       4.050  -8.255  -5.599  0.00  0.00    -0.280 N 
ENDROOT
BRANCH  10  11
ATOM     11  C   UNL     1       5.400  -7.885  -5.165  0.00  0.00    +0.100 C 
ATOM     12  C   UNL     1       6.203  -9.159  -4.855  0.00  0.00    +0.047 C 
ATOM     13  C   UNL     1       7.700  -8.763  -4.705  0.00  0.00    +0.168 C 
ATOM     14  S   UNL     1       7.865  -7.545  -6.078  0.00  0.00    -0.029 S 
ATOM     15  O   UNL     1       8.588  -6.415  -5.609  0.00  0.00    -0.174 OA
ATOM     16  O   UNL     1       8.308  -8.223  -7.246  0.00  0.00    -0.174 OA
ATOM     17  C   UNL     1       6.099  -7.082  -6.289  0.00  0.00    +0.188 C 
ENDBRANCH  10  11
BRANCH   3  18
ATOM     18  C   UNL     1      -0.760  -8.102  -5.057  0.00  0.00    +0.044 A 
ATOM     19  C   UNL     1      -0.640  -8.155  -3.671  0.00  0.00    +0.017 A 
ATOM     20  C   UNL     1      -1.639  -7.636  -2.872  0.00  0.00    -0.050 A 
ATOM     21  C   UNL     1      -2.761  -7.063  -3.445  0.00  0.00    +0.007 A 
ATOM     22  C   UNL     1      -2.890  -7.005  -4.820  0.00  0.00    +0.046 A 
ATOM     23  C   UNL     1      -1.891  -7.517  -5.633  0.00  0.00    +0.126 A 
ATOM     24  C   UNL     1      -1.509  -7.695  -1.372  0.00  0.00    +0.044 C 
BRANCH  23  25
ATOM     25  O   UNL     1      -2.013  -7.455  -6.984  0.00  0.00    -0.506 OA
ATOM     26  H   UNL     1      -2.523  -8.182  -7.367  0.00  0.00    +0.292 HD
ENDBRANCH  23  25
ENDBRANCH   3  18
BRANCH   1  31
ATOM     27  C   UNL     1       2.157  -4.306  -3.816  0.00  0.00    +0.121 A 
ATOM     28  C   UNL     1       2.425  -3.595  -4.977  0.00  0.00    +0.045 A 
ATOM     29  C   UNL     1       2.812  -4.264  -6.121  0.00  0.00    +0.004 A 
ATOM     30  C   UNL     1       2.932  -5.642  -6.110  0.00  0.00    +0.006 A 
ATOM     31  C   UNL     1       2.665  -6.353  -4.955  0.00  0.00    -0.019 A 
ATOM     32  C   UNL     1       2.283  -5.687  -3.806  0.00  0.00    +0.051 A 
BRANCH  27  33
ATOM     33  O   UNL     1       1.776  -3.649  -2.688  0.00  0.00    -0.492 OA
BRANCH  33  34
ATOM     34  C   UNL     1       1.667  -2.227  -2.772  0.00  0.00    +0.229 C 
BRANCH  34  35
ATOM     35  C   UNL     1       1.231  -1.668  -1.415  0.00  0.00    +0.041 C 
BRANCH  35  36
ATOM     36  C   UNL     1       1.113  -0.145  -1.504  0.00  0.00    +0.003 C 
BRANCH  36  38
ATOM     37  C   UNL     1       0.560   1.936  -0.237  0.00  0.00    +0.004 C 
ATOM     38  C   UNL     1       0.677   0.413  -0.148  0.00  0.00    -0.003 C 
ENDBRANCH  36  38
ENDBRANCH  35  36
ENDBRANCH  34  35
ENDBRANCH  33  34
ENDBRANCH  27  33
ENDBRANCH   1  31
TORSDOF 9
