REMARK  Name = ZINC36525639
REMARK  10 active torsions:
REMARK  status: ('A' for Active; 'I' for Inactive)
REMARK    1  A    between atoms: C_1  and  C_2
REMARK    2  A    between atoms: C_4  and  C_15
REMARK    3  A    between atoms: C_12  and  C_13
REMARK    4  A    between atoms: C_12  and  C_14
REMARK    5  A    between atoms: N_17  and  C_18
REMARK    6  A    between atoms: N_17  and  C_19
REMARK    7  A    between atoms: C_19  and  C_21
REMARK    8  A    between atoms: C_19  and  C_31
REMARK    9  A    between atoms: C_23  and  N_28
REMARK   10  A    between atoms: N_33  and  C_34
REMARK                            x       y       z     vdW  Elec       q    Type
REMARK                         _______ _______ _______ _____ _____    ______ ____
ROOT
ATOM      1  C   UNL     1      -1.088  -2.678  -3.962  0.00  0.00    +0.193 C 
ENDROOT
BRANCH   1   2
ATOM      2  C   UNL     1      -1.478  -1.758  -5.090  0.00  0.00    +0.002 A 
ATOM      3  C   UNL     1      -1.135  -2.075  -6.391  0.00  0.00    +0.040 A 
ATOM      4  C   UNL     1      -1.494  -1.232  -7.426  0.00  0.00    +0.127 A 
ATOM      5  C   UNL     1      -2.195  -0.070  -7.160  0.00  0.00    +0.034 A 
ATOM      6  C   UNL     1      -2.539   0.248  -5.860  0.00  0.00    +0.022 A 
ATOM      7  C   UNL     1      -2.186  -0.599  -4.825  0.00  0.00    +0.047 A 
ATOM      8 CL   UNL     1      -2.623  -0.204  -3.192  0.00  0.00    -0.083 Cl
BRANCH   4   9
ATOM      9  N   UNL     1      -1.126  -1.571  -8.819  0.00  0.00    +0.056 N 
ATOM     10  O   UNL     1      -0.512  -2.587  -9.051  0.00  0.00    -0.126 OA
ATOM     11  O   UNL     1      -1.439  -0.834  -9.724  0.00  0.00    -0.126 OA
ENDBRANCH   4   9
ENDBRANCH   1   2
BRANCH   1  14
ATOM     12  C   UNL     1      -0.051  -1.923  -1.890  0.00  0.00    +0.220 C 
ATOM     13  O   UNL     1      -1.020  -2.334  -1.288  0.00  0.00    -0.275 OA
ATOM     14  N   UNL     1       0.036  -2.095  -3.224  0.00  0.00    -0.289 N 
ATOM     15  C   UNL     1       1.254  -1.700  -3.936  0.00  0.00    +0.133 C 
BRANCH  12  18
ATOM     16  C   UNL     1       0.818   0.832   0.307  0.00  0.00    +0.008 C 
ATOM     17  C   UNL     1       0.553  -0.664   0.179  0.00  0.00    +0.001 C 
ATOM     18  C   UNL     1       1.056  -1.220  -1.147  0.00  0.00    +0.079 C 
ATOM     19  C   UNL     1       2.267  -2.133  -0.993  0.00  0.00    +0.017 C 
ATOM     20  C   UNL     1       2.332  -2.774   0.395  0.00  0.00    -0.004 C 
ATOM     21  C   UNL     1       0.954  -2.981   1.044  0.00  0.00    +0.008 C 
ATOM     22  C   UNL     1       1.047  -1.468   1.375  0.00  0.00    -0.001 C 
ATOM     23  C   UNL     1       2.550  -1.713   1.493  0.00  0.00    -0.029 C 
ATOM     24  C   UNL     1       2.969  -2.327   2.842  0.00  0.00    +0.011 C 
ATOM     25  C   UNL     1       3.484  -0.573   1.101  0.00  0.00    +0.011 C 
ENDBRANCH  12  18
ENDBRANCH   1  14
BRANCH   1  26
ATOM     26  C   UNL     1      -0.680  -4.016  -4.524  0.00  0.00    +0.238 C 
ATOM     27  O   UNL     1       0.439  -4.441  -4.326  0.00  0.00    -0.273 OA
ATOM     28  N   UNL     1      -1.559  -4.740  -5.245  0.00  0.00    -0.311 N 
ATOM     29  H   UNL     1      -2.453  -4.400  -5.402  0.00  0.00    +0.149 HD
BRANCH  28  30
ATOM     30  C   UNL     1      -1.162  -6.041  -5.790  0.00  0.00    +0.073 C 
ATOM     31  C   UNL     1      -0.454  -5.837  -7.131  0.00  0.00    +0.022 C 
ATOM     32  C   UNL     1      -0.040  -7.196  -7.700  0.00  0.00    +0.002 C 
ATOM     33  C   UNL     1      -1.284  -8.062  -7.907  0.00  0.00    +0.000 C 
ATOM     34  C   UNL     1      -1.992  -8.266  -6.566  0.00  0.00    +0.002 C 
ATOM     35  C   UNL     1      -2.406  -6.907  -5.997  0.00  0.00    +0.022 C 
ENDBRANCH  28  30
ENDBRANCH   1  26
TORSDOF 6
