REMARK  Name = ZINC39861537
REMARK  5 active torsions:
REMARK  status: ('A' for Active; 'I' for Inactive)
REMARK    1  A    between atoms: C_4  and  N_10
REMARK    2  A    between atoms: C_5  and  C_7
REMARK    3  A    between atoms: C_14  and  C_15
REMARK    4  A    between atoms: C_18  and  C_20
REMARK    5  A    between atoms: C_23  and  N_26
REMARK                            x       y       z     vdW  Elec       q    Type
REMARK                         _______ _______ _______ _____ _____    ______ ____
ROOT
ATOM      1  N   UNL     1       4.058   0.026  -0.102  0.00  0.00    -0.223 N 
ATOM      2  C   UNL     1       4.565  -0.433  -1.237  0.00  0.00    +0.263 C 
ATOM      3  O   UNL     1       4.168  -0.051  -2.319  0.00  0.00    -0.269 OA
ATOM      4  C   UNL     1       5.652  -1.444  -1.108  0.00  0.00    +0.080 C 
ATOM      5  C   UNL     1       6.370  -2.099  -2.123  0.00  0.00    +0.066 C 
ATOM      6  S   UNL     1       5.801  -1.602   0.560  0.00  0.00    -0.061 S 
ATOM      7  C   UNL     1       4.550  -0.437   1.064  0.00  0.00    +0.125 C 
ATOM      8  S   UNL     1       4.082  -0.009   2.654  0.00  0.00    -0.027 S 
ENDROOT
BRANCH   1  12
ATOM      9  C   UNL     1       1.003   2.867  -0.140  0.00  0.00    +0.001 A 
ATOM     10  C   UNL     1       2.329   3.268  -0.128  0.00  0.00    +0.002 A 
ATOM     11  C   UNL     1       3.342   2.329  -0.116  0.00  0.00    +0.024 A 
ATOM     12  C   UNL     1       3.036   0.976  -0.114  0.00  0.00    +0.055 A 
ATOM     13  C   UNL     1       1.694   0.567  -0.126  0.00  0.00    +0.058 A 
ATOM     14  C   UNL     1       0.681   1.527  -0.139  0.00  0.00    +0.015 A 
BRANCH  13  15
ATOM     15  C   UNL     1       1.356  -0.870  -0.125  0.00  0.00    +0.243 C 
ATOM     16  O   UNL     1       2.242  -1.703  -0.115  0.00  0.00    -0.270 OA
ATOM     17  N   UNL     1       0.066  -1.258  -0.136  0.00  0.00    -0.325 N 
ATOM     18  H   UNL     1      -0.641  -0.593  -0.144  0.00  0.00    +0.145 HD
ATOM     19  H   UNL     1      -0.157  -2.202  -0.136  0.00  0.00    +0.145 HD
ENDBRANCH  13  15
ENDBRANCH   1  12
BRANCH   5  20
ATOM     20  C   UNL     1       5.962  -1.988  -3.442  0.00  0.00    +0.130 A 
ATOM     21  C   UNL     1       6.672  -2.502  -4.618  0.00  0.00    +0.050 A 
ATOM     22  C   UNL     1       5.913  -2.170  -5.698  0.00  0.00    +0.050 A 
ATOM     23  C   UNL     1       4.779  -1.479  -5.224  0.00  0.00    +0.136 A 
ATOM     24  O   UNL     1       4.833  -1.392  -3.885  0.00  0.00    -0.455 OA
BRANCH  23  25
ATOM     25  C   UNL     1       3.705  -0.944  -6.063  0.00  0.00    +0.017 A 
ATOM     26  C   UNL     1       3.750  -1.106  -7.458  0.00  0.00    +0.014 A 
ATOM     27  C   UNL     1       2.735  -0.600  -8.238  0.00  0.00    +0.033 A 
ATOM     28  C   UNL     1       1.671   0.068  -7.651  0.00  0.00    +0.126 A 
ATOM     29  C   UNL     1       1.617   0.233  -6.275  0.00  0.00    +0.033 A 
ATOM     30  C   UNL     1       2.619  -0.270  -5.477  0.00  0.00    +0.014 A 
BRANCH  28  31
ATOM     31  N   UNL     1       0.585   0.610  -8.499  0.00  0.00    +0.056 N 
ATOM     32  O   UNL     1       0.631   0.456  -9.806  0.00  0.00    -0.126 OA
ATOM     33  O   UNL     1      -0.428   1.245  -7.946  0.00  0.00    -0.126 OA
ENDBRANCH  28  31
ENDBRANCH  23  25
ENDBRANCH   5  20
TORSDOF 5
