REMARK  Name = ZINC12029267
REMARK  7 active torsions:
REMARK  status: ('A' for Active; 'I' for Inactive)
REMARK    1  A    between atoms: C_1  and  S_2
REMARK    2  A    between atoms: S_2  and  C_5
REMARK    3  A    between atoms: C_8  and  C_11
REMARK    4  A    between atoms: C_18  and  C_21
REMARK    5  A    between atoms: C_21  and  N_22
REMARK    6  A    between atoms: C_23  and  C_25
REMARK    7  A    between atoms: C_27  and  C_31
REMARK                            x       y       z     vdW  Elec       q    Type
REMARK                         _______ _______ _______ _____ _____    ______ ____
ROOT
ATOM      1  C   UNL     1       5.391   4.183  -2.469  0.00  0.00    +0.024 A 
ATOM      2  C   UNL     1       6.763   4.280  -2.672  0.00  0.00    +0.012 A 
ATOM      3  C   UNL     1       7.626   3.433  -2.007  0.00  0.00    +0.001 A 
ATOM      4  C   UNL     1       7.124   2.485  -1.131  0.00  0.00    +0.007 A 
ATOM      5  C   UNL     1       5.766   2.385  -0.921  0.00  0.00    -0.002 A 
ATOM      6  C   UNL     1       4.879   3.221  -1.585  0.00  0.00    +0.132 A 
ATOM      7  O   UNL     1       3.591   2.940  -1.251  0.00  0.00    -0.486 OA
ATOM      8  C   UNL     1       3.571   2.197  -0.020  0.00  0.00    +0.195 C 
ATOM      9  C   UNL     1       4.938   1.472  -0.037  0.00  0.00    +0.085 C 
ENDROOT
BRANCH   1  13
ATOM     10  C   UNL     1       2.745   6.798  -4.528  0.00  0.00    +0.088 A 
ATOM     11  C   UNL     1       3.835   7.314  -3.849  0.00  0.00    +0.027 A 
ATOM     12  C   UNL     1       4.697   6.470  -3.179  0.00  0.00    +0.010 A 
ATOM     13  C   UNL     1       4.468   5.095  -3.187  0.00  0.00    -0.014 A 
ATOM     14  C   UNL     1       3.372   4.581  -3.877  0.00  0.00    +0.010 A 
ATOM     15  C   UNL     1       2.513   5.435  -4.539  0.00  0.00    +0.027 A 
BRANCH  10  17
ATOM     16  C   UNL     1       2.335   8.015  -7.056  0.00  0.00    +0.200 C 
ATOM     17  S   UNL     1       1.649   7.882  -5.381  0.00  0.00    -0.006 S 
ATOM     18  O   UNL     1       0.408   7.191  -5.414  0.00  0.00    -0.170 OA
ATOM     19  O   UNL     1       1.768   9.126  -4.704  0.00  0.00    -0.170 OA
ENDBRANCH  10  17
ENDBRANCH   1  13
BRANCH   8  20
ATOM     20  C   UNL     1       2.422   1.187  -0.015  0.00  0.00    +0.149 C 
BRANCH  20  21
ATOM     21  N   UNL     1       1.143   1.902   0.001  0.00  0.00    -0.307 N 
ATOM     22  C   UNL     1      -0.014   1.212   0.009  0.00  0.00    +0.262 C 
ATOM     23  O   UNL     1       0.002  -0.004   0.002  0.00  0.00    -0.269 OA
ATOM     24  H   UNL     1       1.130   2.872   0.007  0.00  0.00    +0.149 HD
BRANCH  22  25
ATOM     25  C   UNL     1      -1.299   1.931   0.019  0.00  0.00    +0.121 A 
ATOM     26  C   UNL     1      -2.561   1.369   0.022  0.00  0.00    +0.062 A 
ATOM     27  C   UNL     1      -3.452   2.457   0.032  0.00  0.00    +0.093 A 
ATOM     28  N   UNL     1      -2.733   3.559   0.034  0.00  0.00    -0.173 NA
ATOM     29  N   UNL     1      -1.478   3.285   0.033  0.00  0.00    -0.272 N 
ATOM     30  H   UNL     1      -0.743   3.962   0.041  0.00  0.00    +0.189 HD
BRANCH  27  31
ATOM     31  C   UNL     1      -4.935   2.377   0.038  0.00  0.00    +0.002 A 
ATOM     32  C   UNL     1      -5.568   1.136   0.028  0.00  0.00    +0.010 A 
ATOM     33  C   UNL     1      -6.946   1.067   0.038  0.00  0.00    +0.001 A 
ATOM     34  C   UNL     1      -7.699   2.227   0.048  0.00  0.00    +0.000 A 
ATOM     35  C   UNL     1      -7.076   3.462   0.053  0.00  0.00    +0.001 A 
ATOM     36  C   UNL     1      -5.698   3.542   0.048  0.00  0.00    +0.010 A 
ENDBRANCH  27  31
ENDBRANCH  22  25
ENDBRANCH  20  21
ENDBRANCH   8  20
TORSDOF 6
