REMARK  Name = ZINC09137362
REMARK  7 active torsions:
REMARK  status: ('A' for Active; 'I' for Inactive)
REMARK    1  A    between atoms: C_1  and  N_2
REMARK    2  A    between atoms: C_10  and  C_12
REMARK    3  A    between atoms: C_12  and  C_14
REMARK    4  A    between atoms: C_12  and  N_61
REMARK    5  A    between atoms: C_14  and  N_15
REMARK    6  A    between atoms: C_16  and  C_18
REMARK    7  A    between atoms: C_21  and  N_24
REMARK                            x       y       z     vdW  Elec       q    Type
REMARK                         _______ _______ _______ _____ _____    ______ ____
ROOT
ATOM      1  C   UNL     1       3.791   6.131  -0.062  0.00  0.00    -0.020 C 
ENDROOT
BRANCH   1  11
ATOM      2  C   UNL     1       4.222  11.941   2.387  0.00  0.00    +0.129 C 
ATOM      3  N   UNL     1       3.623  11.690   1.070  0.00  0.00    -0.333 N 
ATOM      4  C   UNL     1       4.219  12.554   0.049  0.00  0.00    +0.105 C 
ATOM      5  C   UNL     1       3.576  12.230  -1.305  0.00  0.00    +0.024 C 
ATOM      6  C   UNL     1       4.024  10.825  -1.715  0.00  0.00    +0.038 C 
ATOM      7  C   UNL     1       3.860   9.880  -0.551  0.00  0.00    -0.026 A 
ATOM      8  C   UNL     1       3.683  10.336   0.744  0.00  0.00    +0.033 A 
ATOM      9  C   UNL     1       3.547   9.413   1.782  0.00  0.00    +0.023 A 
ATOM     10  C   UNL     1       3.583   8.060   1.522  0.00  0.00    +0.004 A 
ATOM     11  C   UNL     1       3.754   7.610   0.226  0.00  0.00    -0.059 A 
ATOM     12  C   UNL     1       3.898   8.519  -0.804  0.00  0.00    +0.007 A 
ENDBRANCH   1  11
BRANCH   1  18
ATOM     13  C   UNL     1       5.911   5.982   1.097  0.00  0.00    -0.078 C 
ATOM     14  C   UNL     1       6.620   5.349   2.297  0.00  0.00    -0.019 C 
ATOM     15  C   UNL     1       6.662   3.829   2.116  0.00  0.00    -0.004 C 
ATOM     16  C   UNL     1       5.232   3.303   1.963  0.00  0.00    -0.019 C 
ATOM     17  C   UNL     1       4.563   3.994   0.773  0.00  0.00    -0.078 C 
ATOM     18  N   UNL     1       4.533   5.451   1.020  0.00  0.00    +0.385 N 
ATOM     19  H   UNL     1       4.058   5.628   1.913  0.00  0.00    -0.081 HD
ENDBRANCH   1  18
BRANCH   1  20
ATOM     20  C   UNL     1       2.363   5.584  -0.102  0.00  0.00    +0.094 C 
BRANCH  20  21
ATOM     21  N   UNL     1       1.633   6.207  -1.210  0.00  0.00    -0.313 N 
ATOM     22  C   UNL     1       0.319   5.956  -1.376  0.00  0.00    +0.244 C 
ATOM     23  O   UNL     1      -0.261   5.214  -0.607  0.00  0.00    -0.270 OA
ATOM     24  H   UNL     1       2.095   6.799  -1.823  0.00  0.00    +0.149 HD
BRANCH  22  25
ATOM     25  C   UNL     1      -0.418   6.585  -2.493  0.00  0.00    +0.037 A 
ATOM     26  C   UNL     1      -1.778   6.327  -2.668  0.00  0.00    +0.015 A 
ATOM     27  C   UNL     1      -2.460   6.916  -3.713  0.00  0.00    +0.033 A 
ATOM     28  C   UNL     1      -1.797   7.760  -4.587  0.00  0.00    +0.126 A 
ATOM     29  C   UNL     1      -0.449   8.019  -4.419  0.00  0.00    +0.033 A 
ATOM     30  C   UNL     1       0.245   7.436  -3.378  0.00  0.00    +0.015 A 
BRANCH  28  31
ATOM     31  N   UNL     1      -2.535   8.388  -5.706  0.00  0.00    +0.056 N 
ATOM     32  O   UNL     1      -3.722   8.162  -5.856  0.00  0.00    -0.126 OA
ATOM     33  O   UNL     1      -1.954   9.132  -6.477  0.00  0.00    -0.126 OA
ENDBRANCH  28  31
ENDBRANCH  22  25
ENDBRANCH  20  21
ENDBRANCH   1  20
TORSDOF 6
