REMARK  Name = ZINC35744124
REMARK  17 active torsions:
REMARK  status: ('A' for Active; 'I' for Inactive)
REMARK    1  A    between atoms: C_1  and  C_2
REMARK    2  A    between atoms: C_2  and  C_3
REMARK    3  A    between atoms: C_2  and  C_4
REMARK    4  A    between atoms: C_2  and  O_5
REMARK    5  A    between atoms: O_5  and  C_6
REMARK    6  A    between atoms: C_6  and  C_7
REMARK    7  A    between atoms: C_7  and  C_9
REMARK    8  A    between atoms: C_7  and  O_38
REMARK    9  A    between atoms: C_9  and  N_10
REMARK   10  A    between atoms: N_10  and  C_11
REMARK   11  A    between atoms: N_10  and  C_15
REMARK   12  A    between atoms: C_11  and  C_12
REMARK   13  A    between atoms: C_12  and  O_13
REMARK   14  A    between atoms: O_13  and  C_14
REMARK   15  A    between atoms: C_15  and  C_16
REMARK   16  A    between atoms: N_28  and  C_31
REMARK   17  A    between atoms: C_31  and  C_32
REMARK                            x       y       z     vdW  Elec       q    Type
REMARK                         _______ _______ _______ _____ _____    ______ ____
ROOT
ATOM      1  C   UNL     1       6.352  -1.447  -5.501  0.00  0.00    +0.094 A 
ATOM      2  N   UNL     1       7.637  -1.413  -5.939  0.00  0.00    -0.312 N 
ATOM      3  H   UNL     1       8.268  -0.812  -5.512  0.00  0.00    +0.170 HD
ATOM      4  C   UNL     1       8.053  -2.195  -6.952  0.00  0.00    +0.260 A 
ATOM      5  O   UNL     1       9.210  -2.153  -7.332  0.00  0.00    -0.267 OA
ATOM      6  C   UNL     1       7.113  -3.079  -7.577  0.00  0.00    +0.075 A 
ATOM      7  C   UNL     1       7.333  -4.008  -8.681  0.00  0.00    -0.020 A 
ATOM      8  C   UNL     1       6.272  -4.737  -9.092  0.00  0.00    +0.010 A 
ATOM      9  S   UNL     1       4.937  -4.235  -8.042  0.00  0.00    -0.072 S 
ATOM     10  C   UNL     1       5.809  -3.044  -7.056  0.00  0.00    +0.116 A 
ATOM     11  N   UNL     1       5.473  -2.246  -6.046  0.00  0.00    -0.229 NA
ATOM     12  C   UNL     1       6.256  -5.745 -10.200  0.00  0.00    +0.127 C 
ATOM     13  N   UNL     1       7.478  -5.564 -11.005  0.00  0.00    -0.293 NA
ATOM     14  C   UNL     1       8.664  -5.502 -10.140  0.00  0.00    +0.090 C 
ATOM     15  C   UNL     1       8.685  -4.180  -9.369  0.00  0.00    +0.052 C 
ENDROOT
BRANCH   1  16
ATOM     16  C   UNL     1       5.933  -0.552  -4.363  0.00  0.00    -0.003 C 
BRANCH  16  17
ATOM     17  N   UNL     1       4.553  -0.870  -3.973  0.00  0.00    +0.388 N 
ATOM     18  H   UNL     1       3.955  -0.826  -4.784  0.00  0.00    -0.081 HD
BRANCH  17  19
ATOM     19  C   UNL     1       4.505  -2.223  -3.402  0.00  0.00    -0.044 C 
BRANCH  19  20
ATOM     20  C   UNL     1       3.048  -2.626  -3.167  0.00  0.00    +0.124 C 
BRANCH  20  21
ATOM     21  O   UNL     1       2.495  -1.827  -2.119  0.00  0.00    -0.391 OA
ATOM     22  H   UNL     1       2.955  -1.915  -1.273  0.00  0.00    +0.210 HD
ENDBRANCH  20  21
BRANCH  20  23
ATOM     23  C   UNL     1       2.985  -4.102  -2.770  0.00  0.00    +0.189 C 
BRANCH  23  24
ATOM     24  O   UNL     1       1.619  -4.509  -2.665  0.00  0.00    -0.372 OA
BRANCH  24  26
ATOM     25  C   UNL     1       2.099  -6.127  -0.934  0.00  0.00    +0.041 C 
ATOM     26  C   UNL     1       1.448  -5.879  -2.296  0.00  0.00    +0.061 C 
ATOM     27  C   UNL     1       2.106  -6.776  -3.347  0.00  0.00    +0.041 C 
ATOM     28  C   UNL     1      -0.046  -6.202  -2.214  0.00  0.00    +0.041 C 
ENDBRANCH  24  26
ENDBRANCH  23  24
ENDBRANCH  20  23
ENDBRANCH  19  20
ENDBRANCH  17  19
BRANCH  17  29
ATOM     29  C   UNL     1       4.092   0.101  -2.971  0.00  0.00    -0.050 C 
BRANCH  29  30
ATOM     30  C   UNL     1       4.075   1.501  -3.588  0.00  0.00    +0.141 C 
BRANCH  30  31
ATOM     31  O   UNL     1       3.106   1.548  -4.637  0.00  0.00    -0.385 OA
ATOM     32  C   UNL     1       3.087   2.782  -5.357  0.00  0.00    +0.193 C 
ENDBRANCH  30  31
ENDBRANCH  29  30
ENDBRANCH  17  29
ENDBRANCH  16  17
ENDBRANCH   1  16
BRANCH  13  33
ATOM     33  C   UNL     1       7.611  -6.630 -12.007  0.00  0.00    +0.120 C 
BRANCH  33  34
ATOM     34  C   UNL     1       6.497  -6.515 -13.014  0.00  0.00    -0.033 A 
ATOM     35  C   UNL     1       5.301  -7.175 -12.801  0.00  0.00    +0.005 A 
ATOM     36  C   UNL     1       4.279  -7.069 -13.726  0.00  0.00    +0.000 A 
ATOM     37  C   UNL     1       4.452  -6.304 -14.863  0.00  0.00    +0.000 A 
ATOM     38  C   UNL     1       5.648  -5.644 -15.076  0.00  0.00    +0.000 A 
ATOM     39  C   UNL     1       6.668  -5.746 -14.150  0.00  0.00    +0.005 A 
ENDBRANCH  33  34
ENDBRANCH  13  33
TORSDOF 13
