REMARK  Name = ZINC39578058
REMARK  8 active torsions:
REMARK  status: ('A' for Active; 'I' for Inactive)
REMARK    1  A    between atoms: C_1  and  C_2
REMARK    2  A    between atoms: N_11  and  C_15
REMARK    3  A    between atoms: C_15  and  C_16
REMARK    4  A    between atoms: C_16  and  O_18
REMARK    5  A    between atoms: O_18  and  C_19
REMARK    6  A    between atoms: C_19  and  C_21
REMARK    7  A    between atoms: C_19  and  C_27
REMARK    8  A    between atoms: N_29  and  C_30
REMARK                            x       y       z     vdW  Elec       q    Type
REMARK                         _______ _______ _______ _____ _____    ______ ____
ROOT
ATOM      1  O   UNL     1       4.251   3.823   2.670  0.00  0.00    -0.446 OA
ENDROOT
BRANCH   1   2
ATOM      2  C   UNL     1       3.281   2.947   2.366  0.00  0.00    +0.326 C 
ATOM      3  O   UNL     1       2.364   3.284   1.655  0.00  0.00    -0.249 OA
BRANCH   2   4
ATOM      4  C   UNL     1       3.336   1.543   2.911  0.00  0.00    +0.238 C 
BRANCH   4  14
ATOM      5  C   UNL     1       0.004   1.509  -0.015  0.00  0.00    +0.010 C 
ATOM      6  C   UNL     1       0.029  -0.021  -0.021  0.00  0.00    +0.018 C 
ATOM      7  C   UNL     1       0.754  -0.515  -1.275  0.00  0.00    +0.006 C 
ATOM      8  C   UNL     1       0.796  -2.045  -1.269  0.00  0.00    +0.000 C 
ATOM      9  C   UNL     1       1.552  -2.530  -0.031  0.00  0.00    +0.003 C 
ATOM     10  C   UNL     1       0.831  -2.044   1.229  0.00  0.00    +0.035 C 
ATOM     11  C   UNL     1       0.759  -0.521   1.221  0.00  0.00    +0.115 C 
ATOM     12  C   UNL     1       2.146   0.073   1.294  0.00  0.00    +0.247 C 
ATOM     13  O   UNL     1       3.046  -0.064   0.493  0.00  0.00    -0.273 OA
ATOM     14  N   UNL     1       2.172   0.789   2.437  0.00  0.00    -0.213 N 
ATOM     15  C   UNL     1       1.002   0.726   3.085  0.00  0.00    +0.310 C 
ATOM     16  O   UNL     1       0.782   1.289   4.139  0.00  0.00    -0.252 OA
ATOM     17  N   UNL     1       0.097  -0.033   2.438  0.00  0.00    -0.285 N 
ATOM     18  H   UNL     1      -0.812  -0.219   2.719  0.00  0.00    +0.151 HD
ENDBRANCH   4  14
ENDBRANCH   2   4
ENDBRANCH   1   2
BRANCH   1  19
ATOM     19  C   UNL     1       4.136   5.136   2.119  0.00  0.00    +0.292 C 
BRANCH  19  20
ATOM     20  C   UNL     1       3.361   6.013   3.069  0.00  0.00    +0.002 A 
ATOM     21  C   UNL     1       3.578   5.918   4.431  0.00  0.00    +0.008 A 
ATOM     22  C   UNL     1       2.867   6.722   5.302  0.00  0.00    +0.000 A 
ATOM     23  C   UNL     1       1.940   7.622   4.811  0.00  0.00    +0.000 A 
ATOM     24  C   UNL     1       1.724   7.718   3.449  0.00  0.00    +0.000 A 
ATOM     25  C   UNL     1       2.438   6.917   2.578  0.00  0.00    +0.008 A 
ENDBRANCH  19  20
BRANCH  19  26
ATOM     26  C   UNL     1       5.511   5.716   1.909  0.00  0.00    +0.263 C 
ATOM     27  O   UNL     1       6.493   5.068   2.202  0.00  0.00    -0.271 OA
ATOM     28  N   UNL     1       5.649   6.954   1.395  0.00  0.00    -0.282 N 
ATOM     29  H   UNL     1       4.867   7.446   1.098  0.00  0.00    +0.155 HD
BRANCH  28  30
ATOM     30  C   UNL     1       6.921   7.530   1.290  0.00  0.00    +0.034 A 
ATOM     31  C   UNL     1       7.083   8.895   1.484  0.00  0.00    +0.026 A 
ATOM     32  C   UNL     1       8.339   9.462   1.380  0.00  0.00    +0.040 A 
ATOM     33  C   UNL     1       9.434   8.670   1.081  0.00  0.00    +0.124 A 
ATOM     34  C   UNL     1       9.274   7.308   0.886  0.00  0.00    +0.040 A 
ATOM     35  C   UNL     1       8.022   6.737   0.996  0.00  0.00    +0.026 A 
ATOM     36  F   UNL     1      10.661   9.226   0.979  0.00  0.00    -0.205 F 
ENDBRANCH  28  30
ENDBRANCH  19  26
ENDBRANCH   1  19
TORSDOF 7
