REMARK  Name = ZINC27365306
REMARK  7 active torsions:
REMARK  status: ('A' for Active; 'I' for Inactive)
REMARK    1  A    between atoms: C_1  and  C_2
REMARK    2  A    between atoms: C_2  and  C_4
REMARK    3  A    between atoms: C_2  and  N_15
REMARK    4  A    between atoms: C_7  and  N_10
REMARK    5  A    between atoms: N_15  and  C_16
REMARK    6  A    between atoms: N_15  and  C_17
REMARK    7  A    between atoms: C_17  and  C_18
REMARK                            x       y       z     vdW  Elec       q    Type
REMARK                         _______ _______ _______ _____ _____    ______ ____
ROOT
ATOM      1  C   UNL     1       4.758   4.148  -0.445  0.00  0.00    -0.001 C 
ENDROOT
BRANCH   1   2
ATOM      2  C   UNL     1       3.963   2.892  -0.198  0.00  0.00    +0.116 A 
ATOM      3  N   UNL     1       4.567   1.720  -0.277  0.00  0.00    -0.219 NA
ATOM      4  C   UNL     1       3.925   0.581  -0.071  0.00  0.00    +0.128 A 
ATOM      5  C   UNL     1       2.539   0.616   0.245  0.00  0.00    +0.051 A 
ATOM      6  C   UNL     1       1.634  -0.507   0.513  0.00  0.00    -0.025 A 
ATOM      7  C   UNL     1       0.350  -0.199   0.787  0.00  0.00    -0.004 A 
ATOM      8  S   UNL     1       0.270   1.572   0.714  0.00  0.00    -0.073 S 
ATOM      9  C   UNL     1       1.965   1.900   0.310  0.00  0.00    +0.114 A 
ATOM     10  N   UNL     1       2.680   2.987   0.090  0.00  0.00    -0.227 NA
ATOM     11  C   UNL     1      -0.777  -1.140   1.076  0.00  0.00    +0.043 C 
ATOM     12  C   UNL     1      -0.332  -2.156   2.137  0.00  0.00    +0.005 C 
ATOM     13  C   UNL     1       0.286  -3.354   1.424  0.00  0.00    +0.001 C 
ATOM     14  C   UNL     1       0.992  -2.896   0.150  0.00  0.00    +0.005 C 
ATOM     15  C   UNL     1       2.137  -1.948   0.486  0.00  0.00    +0.037 C 
ATOM     16  N   UNL     1       4.593  -0.627  -0.162  0.00  0.00    -0.343 N 
ATOM     17  H   UNL     1       4.052  -1.569   0.011  0.00  0.00    +0.144 HD
ATOM     18  H   UNL     1       5.665  -0.646  -0.407  0.00  0.00    +0.144 HD
ENDBRANCH   1   2
BRANCH   1  19
ATOM     19  N   UNL     1       4.708   4.487  -1.873  0.00  0.00    +0.387 N 
ATOM     20  C   UNL     1       5.399   3.473  -2.680  0.00  0.00    -0.095 C 
ATOM     21  H   UNL     1       3.652   4.501  -2.180  0.00  0.00    -0.081 HD
BRANCH  19  23
ATOM     22  C   UNL     1       6.777   5.797  -1.875  0.00  0.00    -0.008 C 
ATOM     23  C   UNL     1       5.267   5.824  -2.117  0.00  0.00    -0.041 C 
BRANCH  23  24
ATOM     24  C   UNL     1       4.994   6.230  -3.542  0.00  0.00    -0.061 A 
ATOM     25  C   UNL     1       5.902   7.024  -4.219  0.00  0.00    +0.004 A 
ATOM     26  C   UNL     1       5.657   7.393  -5.527  0.00  0.00    +0.028 A 
ATOM     27  C   UNL     1       4.493   6.976  -6.159  0.00  0.00    +0.067 A 
ATOM     28  C   UNL     1       3.580   6.184  -5.474  0.00  0.00    +0.028 A 
ATOM     29  C   UNL     1       3.834   5.813  -4.168  0.00  0.00    +0.004 A 
BRANCH  27  30
ATOM     30  N   UNL     1       4.239   7.354  -7.485  0.00  0.00    -0.220 N 
ATOM     31  C   UNL     1       5.021   8.119  -8.271  0.00  0.00    +0.225 A 
ATOM     32  N   UNL     1       4.435   8.237  -9.434  0.00  0.00    -0.222 NA
ATOM     33  C   UNL     1       3.279   7.573  -9.428  0.00  0.00    +0.245 A 
ATOM     34  N   UNL     1       3.115   7.016  -8.256  0.00  0.00    -0.154 NA
ENDBRANCH  27  30
ENDBRANCH  23  24
ENDBRANCH  19  23
ENDBRANCH   1  19
TORSDOF 5
