REMARK  Name = ZINC64605259
REMARK  11 active torsions:
REMARK  status: ('A' for Active; 'I' for Inactive)
REMARK    1  A    between atoms: C_1  and  C_2
REMARK    2  A    between atoms: C_5  and  C_33
REMARK    3  A    between atoms: C_6  and  N_8
REMARK    4  A    between atoms: C_9  and  C_11
REMARK    5  A    between atoms: C_11  and  C_13
REMARK    6  A    between atoms: C_11  and  N_14
REMARK    7  A    between atoms: C_17  and  N_27
REMARK    8  A    between atoms: C_19  and  C_21
REMARK    9  A    between atoms: C_28  and  C_30
REMARK   10  A    between atoms: C_30  and  C_31
REMARK   11  A    between atoms: C_30  and  C_32
REMARK                            x       y       z     vdW  Elec       q    Type
REMARK                         _______ _______ _______ _____ _____    ______ ____
ROOT
ATOM      1  N   UNL     1       0.469  -2.051   6.059  0.00  0.00    -0.216 N 
ATOM      2  C   UNL     1      -0.453  -2.090   7.042  0.00  0.00    +0.289 A 
ATOM      3  O   UNL     1      -1.275  -2.991   7.079  0.00  0.00    -0.264 OA
ATOM      4  C   UNL     1      -0.460  -1.077   8.034  0.00  0.00    +0.102 A 
ATOM      5  C   UNL     1       0.469  -0.079   7.972  0.00  0.00    +0.059 A 
ATOM      6  C   UNL     1       1.417  -0.072   6.929  0.00  0.00    +0.093 A 
ATOM      7  N   UNL     1       1.415  -1.021   6.019  0.00  0.00    -0.167 NA
ENDROOT
BRANCH   6   8
ATOM      8  C   UNL     1       2.428   1.012   6.860  0.00  0.00    +0.002 A 
ATOM      9  C   UNL     1       2.444   2.016   7.826  0.00  0.00    +0.010 A 
ATOM     10  C   UNL     1       3.387   3.021   7.757  0.00  0.00    +0.001 A 
ATOM     11  C   UNL     1       4.315   3.034   6.731  0.00  0.00    +0.000 A 
ATOM     12  C   UNL     1       4.303   2.040   5.769  0.00  0.00    +0.001 A 
ATOM     13  C   UNL     1       3.369   1.026   5.832  0.00  0.00    +0.010 A 
ENDBRANCH   6   8
BRANCH   4  14
ATOM     14  N   UNL     1      -1.407  -1.099   9.061  0.00  0.00    -0.281 N 
ATOM     15  C   UNL     1      -2.722  -1.091   8.765  0.00  0.00    +0.220 C 
ATOM     16  O   UNL     1      -3.084  -0.975   7.613  0.00  0.00    -0.275 OA
ATOM     17  H   UNL     1      -1.118  -1.121   9.986  0.00  0.00    +0.155 HD
BRANCH  15  18
ATOM     18  C   UNL     1      -3.742  -1.225   9.866  0.00  0.00    +0.069 C 
ATOM     19  C   UNL     1      -3.579  -0.071  10.857  0.00  0.00    +0.017 C 
ATOM     20  C   UNL     1      -5.149  -1.186   9.265  0.00  0.00    +0.017 C 
ENDBRANCH  15  18
ENDBRANCH   4  14
BRANCH   1  21
ATOM     21  C   UNL     1       0.483  -3.094   5.031  0.00  0.00    +0.194 C 
ATOM     22  C   UNL     1       1.827  -3.824   5.063  0.00  0.00    +0.043 C 
BRANCH  21  24
ATOM     23  N   UNL     1       0.262  -3.240   2.571  0.00  0.00    -0.284 N 
ATOM     24  C   UNL     1       0.284  -2.466   3.675  0.00  0.00    +0.242 C 
ATOM     25  O   UNL     1       0.145  -1.266   3.578  0.00  0.00    -0.273 OA
ATOM     26  H   UNL     1       0.299  -4.205   2.655  0.00  0.00    +0.155 HD
BRANCH  23  32
ATOM     27  C   UNL     1       0.984   0.665  -0.328  0.00  0.00    +0.044 C 
ATOM     28  C   UNL     1       0.528  -0.758  -0.129  0.00  0.00    -0.049 A 
ATOM     29  C   UNL     1       0.033  -1.481  -1.198  0.00  0.00    +0.004 A 
ATOM     30  C   UNL     1      -0.386  -2.787  -1.020  0.00  0.00    +0.005 A 
ATOM     31  C   UNL     1      -0.311  -3.373   0.229  0.00  0.00    -0.029 A 
ATOM     32  C   UNL     1       0.185  -2.649   1.305  0.00  0.00    +0.037 A 
ATOM     33  C   UNL     1       0.610  -1.339   1.121  0.00  0.00    +0.027 A 
ATOM     34  C   UNL     1      -0.768  -4.795   0.423  0.00  0.00    +0.045 C 
ENDBRANCH  23  32
ENDBRANCH  21  24
ENDBRANCH   1  21
TORSDOF 6
