REMARK  Name = ZINC48561703
REMARK  4 active torsions:
REMARK  status: ('A' for Active; 'I' for Inactive)
REMARK    1  A    between atoms: C_1  and  N_2
REMARK    2  A    between atoms: N_2  and  C_3
REMARK    3  A    between atoms: C_13  and  C_15
REMARK    4  A    between atoms: C_15  and  N_16
REMARK                            x       y       z     vdW  Elec       q    Type
REMARK                         _______ _______ _______ _____ _____    ______ ____
ROOT
ATOM      1  C   UNL     1      -1.222   0.703  -0.382  0.00  0.00    +0.132 C 
ATOM      2  N   UNL     1       0.002  -0.004   0.002  0.00  0.00    -0.299 N 
ATOM      3  C   UNL     1       1.049  -0.048  -0.846  0.00  0.00    +0.235 C 
ATOM      4  O   UNL     1       2.063  -0.633  -0.528  0.00  0.00    -0.274 OA
ENDROOT
BRANCH   2   5
ATOM      5  C   UNL     1       0.089  -0.663   1.307  0.00  0.00    +0.082 C 
ATOM      6  C   UNL     1      -1.164  -0.343   2.125  0.00  0.00    +0.010 C 
ATOM      7  C   UNL     1      -1.074  -1.032   3.488  0.00  0.00    +0.009 C 
ATOM      8  C   UNL     1       0.164  -0.527   4.233  0.00  0.00    -0.010 C 
ATOM      9  C   UNL     1       0.058   0.986   4.432  0.00  0.00    +0.007 C 
ATOM     10  C   UNL     1      -0.033   1.675   3.069  0.00  0.00    -0.010 C 
ATOM     11  C   UNL     1      -1.271   1.170   2.324  0.00  0.00    +0.009 C 
ATOM     12  C   UNL     1       1.220   1.355   2.251  0.00  0.00    +0.009 C 
ATOM     13  C   UNL     1       1.326  -0.159   2.052  0.00  0.00    +0.010 C 
ATOM     14  C   UNL     1       1.417  -0.847   3.416  0.00  0.00    +0.009 C 
ENDBRANCH   2   5
BRANCH   3  15
ATOM     15  C   UNL     1       0.960   0.630  -2.189  0.00  0.00    +0.218 C 
BRANCH  15  16
ATOM     16  N   UNL     1       2.217   0.440  -2.917  0.00  0.00    -0.328 N 
ATOM     17  C   UNL     1       3.312   1.259  -2.874  0.00  0.00    +0.107 A 
ATOM     18  C   UNL     1       4.238   0.715  -3.686  0.00  0.00    +0.130 A 
ATOM     19  N   UNL     1       3.721  -0.406  -4.211  0.00  0.00    -0.244 NA
ATOM     20  C   UNL     1       2.513  -0.580  -3.751  0.00  0.00    +0.199 A 
ENDBRANCH  15  16
ENDBRANCH   3  15
TORSDOF 3
