REMARK  Name = ZINC06599764
REMARK  10 active torsions:
REMARK  status: ('A' for Active; 'I' for Inactive)
REMARK    1  A    between atoms: C_1  and  C_2
REMARK    2  A    between atoms: C_2  and  O_3
REMARK    3  A    between atoms: O_3  and  C_4
REMARK    4  A    between atoms: C_4  and  C_6
REMARK    5  A    between atoms: C_10  and  N_11
REMARK    6  A    between atoms: N_11  and  C_12
REMARK    7  A    between atoms: C_12  and  N_14
REMARK    8  A    between atoms: C_15  and  C_17
REMARK    9  A    between atoms: C_18  and  C_19
REMARK   10  A    between atoms: C_23  and  N_25
REMARK                            x       y       z     vdW  Elec       q    Type
REMARK                         _______ _______ _______ _____ _____    ______ ____
ROOT
ATOM      1  C   UNL     1      -2.462   9.444   0.076  0.00  0.00    +0.141 C 
ATOM      2  S   UNL     1      -0.991  10.320   0.067  0.00  0.00    -0.018 S 
ENDROOT
BRANCH   1   3
ATOM      3  N   UNL     1      -2.443   8.097   0.068  0.00  0.00    -0.264 N 
ATOM      4  C   UNL     1      -1.267   7.439   0.054  0.00  0.00    +0.242 C 
ATOM      5  O   UNL     1      -0.222   8.061   0.047  0.00  0.00    -0.270 OA
ATOM      6  H   UNL     1      -3.277   7.600   0.074  0.00  0.00    +0.157 HD
BRANCH   4   7
ATOM      7  C   UNL     1      -1.247   5.976   0.046  0.00  0.00    +0.068 C 
ATOM      8  C   UNL     1      -0.070   5.317   0.031  0.00  0.00    +0.013 C 
BRANCH   8   9
ATOM      9  C   UNL     1      -0.050   3.846   0.023  0.00  0.00    -0.023 A 
ATOM     10  C   UNL     1      -1.250   3.126   0.031  0.00  0.00    +0.008 A 
ATOM     11  C   UNL     1      -1.223   1.748   0.017  0.00  0.00    +0.003 A 
ATOM     12  C   UNL     1      -0.013   1.076   0.008  0.00  0.00    +0.033 A 
ATOM     13  C   UNL     1       1.179   1.780   0.000  0.00  0.00    +0.127 A 
ATOM     14  C   UNL     1       1.168   3.159   0.007  0.00  0.00    +0.040 A 
BRANCH  13  15
ATOM     15  N   UNL     1       2.467   1.052  -0.016  0.00  0.00    +0.056 N 
ATOM     16  O   UNL     1       2.478  -0.166  -0.022  0.00  0.00    -0.126 OA
ATOM     17  O   UNL     1       3.516   1.671  -0.022  0.00  0.00    -0.126 OA
ENDBRANCH  13  15
ENDBRANCH   8   9
ENDBRANCH   4   7
ENDBRANCH   1   3
BRANCH   1  18
ATOM     18  N   UNL     1      -3.638  10.102   0.091  0.00  0.00    -0.290 N 
ATOM     19  H   UNL     1      -4.471   9.606   0.096  0.00  0.00    +0.154 HD
BRANCH  18  24
ATOM     20  C   UNL     1      -4.756  12.335   0.108  0.00  0.00    +0.091 A 
ATOM     21  C   UNL     1      -4.500  13.766   0.117  0.00  0.00    -0.021 A 
ATOM     22  C   UNL     1      -3.196  14.117   0.106  0.00  0.00    -0.004 A 
ATOM     23  S   UNL     1      -2.314  12.582   0.091  0.00  0.00    -0.077 S 
ATOM     24  C   UNL     1      -3.656  11.487   0.098  0.00  0.00    +0.086 A 
ATOM     25  C   UNL     1      -2.634  15.505   0.107  0.00  0.00    +0.043 C 
ATOM     26  C   UNL     1      -3.761  16.483  -0.256  0.00  0.00    +0.005 C 
ATOM     27  C   UNL     1      -4.993  16.152   0.591  0.00  0.00    +0.005 C 
ATOM     28  C   UNL     1      -5.597  14.823   0.134  0.00  0.00    +0.037 C 
BRANCH  20  29
ATOM     29  C   UNL     1      -6.122  11.808   0.111  0.00  0.00    +0.342 C 
ATOM     30  O   UNL     1      -6.685  11.584   1.166  0.00  0.00    -0.245 OA
BRANCH  29  31
ATOM     31  O   UNL     1      -6.756  11.571  -1.056  0.00  0.00    -0.461 OA
BRANCH  31  33
ATOM     32  C   UNL     1      -8.661  10.845  -2.389  0.00  0.00    +0.048 C 
ATOM     33  C   UNL     1      -8.109  11.049  -0.976  0.00  0.00    +0.229 C 
ENDBRANCH  31  33
ENDBRANCH  29  31
ENDBRANCH  20  29
ENDBRANCH  18  24
ENDBRANCH   1  18
TORSDOF 9
