REMARK  Name = ZINC30961833
REMARK  10 active torsions:
REMARK  status: ('A' for Active; 'I' for Inactive)
REMARK    1  A    between atoms: C_1  and  C_2
REMARK    2  A    between atoms: C_2  and  C_3
REMARK    3  A    between atoms: C_2  and  C_4
REMARK    4  A    between atoms: C_4  and  C_6
REMARK    5  A    between atoms: C_4  and  N_25
REMARK    6  A    between atoms: N_8  and  N_9
REMARK    7  A    between atoms: C_10  and  C_11
REMARK    8  A    between atoms: N_15  and  C_16
REMARK    9  A    between atoms: C_19  and  N_22
REMARK   10  A    between atoms: C_26  and  C_28
REMARK                            x       y       z     vdW  Elec       q    Type
REMARK                         _______ _______ _______ _____ _____    ______ ____
ROOT
ATOM      1  C   UNL     1      -6.934   1.760   2.972  0.00  0.00    +0.253 C 
ATOM      2  O   UNL     1      -6.948   2.414   3.988  0.00  0.00    -0.272 OA
ATOM      3  N   UNL     1      -5.882   1.843   2.133  0.00  0.00    -0.205 N 
ATOM      4  H   UNL     1      -5.833   1.192   1.247  0.00  0.00    +0.177 HD
ENDROOT
BRANCH   3   5
ATOM      5  N   UNL     1      -4.934   2.685   2.368  0.00  0.00    -0.186 NA
ATOM      6  C   UNL     1      -3.962   2.868   1.465  0.00  0.00    +0.156 C 
BRANCH   6   7
ATOM      7  C   UNL     1      -4.169   2.511   0.148  0.00  0.00    +0.066 A 
ATOM      8  C   UNL     1      -5.435   2.045  -0.456  0.00  0.00    +0.029 A 
ATOM      9  C   UNL     1      -5.168   1.806  -1.766  0.00  0.00    +0.020 A 
ATOM     10  C   UNL     1      -3.818   2.100  -2.007  0.00  0.00    +0.092 A 
ATOM     11  N   UNL     1      -3.227   2.521  -0.874  0.00  0.00    -0.315 N 
BRANCH  11  12
ATOM     12  C   UNL     1      -1.885   2.900  -0.745  0.00  0.00    +0.047 A 
ATOM     13  C   UNL     1      -0.879   2.072  -1.226  0.00  0.00    +0.028 A 
ATOM     14  C   UNL     1       0.443   2.451  -1.103  0.00  0.00    +0.035 A 
ATOM     15  C   UNL     1       0.766   3.652  -0.496  0.00  0.00    +0.126 A 
ATOM     16  C   UNL     1      -0.234   4.476  -0.012  0.00  0.00    +0.035 A 
ATOM     17  C   UNL     1      -1.558   4.102  -0.132  0.00  0.00    +0.028 A 
BRANCH  15  18
ATOM     18  N   UNL     1       2.184   4.056  -0.366  0.00  0.00    +0.056 N 
ATOM     19  O   UNL     1       3.137   3.272  -0.828  0.00  0.00    -0.126 OA
ATOM     20  O   UNL     1       2.493   5.198   0.211  0.00  0.00    -0.126 OA
ENDBRANCH  15  18
ENDBRANCH  11  12
ENDBRANCH   6   7
ENDBRANCH   3   5
BRANCH   1  21
ATOM     21  C   UNL     1      -8.091   0.853   2.644  0.00  0.00    +0.163 C 
BRANCH  21  22
ATOM     22  N   UNL     1      -9.297   1.334   3.323  0.00  0.00    -0.300 N 
ATOM     23  C   UNL     1     -10.514   1.036   2.826  0.00  0.00    +0.245 C 
ATOM     24  O   UNL     1     -10.611   0.369   1.814  0.00  0.00    -0.270 OA
ATOM     25  H   UNL     1      -9.209   1.938   4.238  0.00  0.00    +0.150 HD
BRANCH  23  26
ATOM     26  C   UNL     1     -11.730   1.522   3.510  0.00  0.00    +0.038 A 
ATOM     27  C   UNL     1     -11.622   2.284   4.676  0.00  0.00    +0.014 A 
ATOM     28  C   UNL     1     -12.760   2.738   5.308  0.00  0.00    +0.022 A 
ATOM     29  C   UNL     1     -14.010   2.431   4.796  0.00  0.00    +0.059 A 
ATOM     30  C   UNL     1     -14.124   1.671   3.642  0.00  0.00    +0.060 A 
ATOM     31  C   UNL     1     -12.992   1.215   2.998  0.00  0.00    +0.034 A 
ATOM     32 CL   UNL     1     -15.695   1.292   3.007  0.00  0.00    -0.082 Cl
ATOM     33 CL   UNL     1     -15.438   3.001   5.601  0.00  0.00    -0.082 Cl
ENDBRANCH  23  26
ENDBRANCH  21  22
BRANCH  21  35
ATOM     34  C   UNL     1      -8.921  -1.502   2.724  0.00  0.00    +0.009 C 
ATOM     35  C   UNL     1      -7.774  -0.568   3.114  0.00  0.00    +0.012 C 
ATOM     36  C   UNL     1      -6.479  -1.047   2.453  0.00  0.00    +0.009 C 
ENDBRANCH  21  35
ENDBRANCH   1  21
TORSDOF 8
