REMARK  Name = ZINC23033907
REMARK  9 active torsions:
REMARK  status: ('A' for Active; 'I' for Inactive)
REMARK    1  A    between atoms: C_1  and  C_2
REMARK    2  A    between atoms: C_3  and  N_15
REMARK    3  A    between atoms: N_6  and  C_9
REMARK    4  A    between atoms: N_7  and  C_8
REMARK    5  A    between atoms: C_16  and  C_18
REMARK    6  A    between atoms: C_18  and  C_20
REMARK    7  A    between atoms: C_18  and  O_21
REMARK    8  A    between atoms: O_21  and  C_22
REMARK    9  A    between atoms: C_22  and  C_24
REMARK                            x       y       z     vdW  Elec       q    Type
REMARK                         _______ _______ _______ _____ _____    ______ ____
ROOT
ATOM      1  N   UNL     1      -0.173  -0.361  -0.214  0.00  0.00    -0.277 N 
ATOM      2  C   UNL     1      -0.406   0.956  -0.378  0.00  0.00    +0.258 C 
ATOM      3  O   UNL     1       0.522   1.734  -0.432  0.00  0.00    -0.271 OA
ATOM      4  H   UNL     1      -1.014  -1.057  -0.082  0.00  0.00    +0.155 HD
ENDROOT
BRANCH   1   7
ATOM      5  C   UNL     1       1.101  -1.959   2.075  0.00  0.00    +0.067 C 
ATOM      6  C   UNL     1       1.745  -1.553   0.774  0.00  0.00    +0.059 A 
ATOM      7  C   UNL     1       1.150  -0.848  -0.214  0.00  0.00    +0.121 A 
ATOM      8  C   UNL     1       2.134  -0.688  -1.286  0.00  0.00    +0.293 A 
ATOM      9  O   UNL     1       1.965  -0.111  -2.345  0.00  0.00    -0.264 OA
ATOM     10  N   UNL     1       3.264  -1.300  -0.875  0.00  0.00    -0.216 N 
ATOM     11  N   UNL     1       3.029  -1.839   0.395  0.00  0.00    -0.282 N 
ATOM     12  C   UNL     1       4.003  -2.589   1.192  0.00  0.00    +0.171 C 
BRANCH  10  13
ATOM     13  C   UNL     1       4.460  -1.385  -1.595  0.00  0.00    +0.067 A 
ATOM     14  C   UNL     1       5.667  -1.079  -0.979  0.00  0.00    +0.028 A 
ATOM     15  C   UNL     1       6.846  -1.170  -1.691  0.00  0.00    +0.002 A 
ATOM     16  C   UNL     1       6.826  -1.553  -3.020  0.00  0.00    +0.000 A 
ATOM     17  C   UNL     1       5.625  -1.851  -3.638  0.00  0.00    +0.002 A 
ATOM     18  C   UNL     1       4.443  -1.768  -2.930  0.00  0.00    +0.028 A 
ENDBRANCH  10  13
ENDBRANCH   1   7
BRANCH   2  19
ATOM     19  C   UNL     1      -1.821   1.461  -0.499  0.00  0.00    +0.259 C 
ATOM     20  C   UNL     1      -2.451   0.911  -1.780  0.00  0.00    +0.062 C 
BRANCH  19  21
ATOM     21  O   UNL     1      -1.815   2.912  -0.547  0.00  0.00    -0.448 OA
BRANCH  21  22
ATOM     22  C   UNL     1      -2.894   3.546  -0.045  0.00  0.00    +0.347 C 
ATOM     23  O   UNL     1      -3.815   2.903   0.420  0.00  0.00    -0.244 OA
BRANCH  22  24
ATOM     24  C   UNL     1      -2.956   5.013  -0.059  0.00  0.00    +0.097 A 
ATOM     25  C   UNL     1      -3.949   5.824   0.396  0.00  0.00    +0.031 A 
ATOM     26  C   UNL     1      -3.818   7.220   0.290  0.00  0.00    -0.010 A 
ATOM     27  C   UNL     1      -4.735   8.221   0.703  0.00  0.00    +0.009 A 
ATOM     28  C   UNL     1      -4.452   9.537   0.527  0.00  0.00    +0.001 A 
ATOM     29  C   UNL     1      -3.263   9.954  -0.060  0.00  0.00    +0.001 A 
ATOM     30  C   UNL     1      -2.343   9.014  -0.476  0.00  0.00    +0.015 A 
ATOM     31  C   UNL     1      -2.617   7.673  -0.304  0.00  0.00    +0.020 A 
ATOM     32  S   UNL     1      -1.745   6.171  -0.672  0.00  0.00    -0.082 S 
ENDBRANCH  22  24
ENDBRANCH  21  22
ENDBRANCH  19  21
ENDBRANCH   2  19
TORSDOF 6
