REMARK  Name = ZINC66679746
REMARK  6 active torsions:
REMARK  status: ('A' for Active; 'I' for Inactive)
REMARK    1  A    between atoms: C_1  and  C_2
REMARK    2  A    between atoms: C_2  and  C_3
REMARK    3  A    between atoms: C_3  and  C_4
REMARK    4  A    between atoms: C_10  and  N_12
REMARK    5  A    between atoms: N_15  and  C_16
REMARK    6  A    between atoms: C_20  and  C_22
REMARK                            x       y       z     vdW  Elec       q    Type
REMARK                         _______ _______ _______ _____ _____    ______ ____
ROOT
ATOM      1  N   UNL     1      -3.650  -2.104  -0.978  0.00  0.00    -0.296 N 
ATOM      2  C   UNL     1      -4.988  -2.002  -0.849  0.00  0.00    +0.304 C 
ATOM      3  O   UNL     1      -5.522  -2.312   0.198  0.00  0.00    -0.253 OA
ATOM      4  N   UNL     1      -5.732  -1.555  -1.880  0.00  0.00    -0.269 N 
ATOM      5  H   UNL     1      -3.223  -1.857  -1.814  0.00  0.00    +0.151 HD
ATOM      6  H   UNL     1      -5.301  -1.245  -2.691  0.00  0.00    +0.156 HD
ENDROOT
BRANCH   1  12
ATOM      7  C   UNL     1      -1.414  -2.052   0.011  0.00  0.00    +0.009 C 
ATOM      8  C   UNL     1      -0.805  -2.537  -1.306  0.00  0.00    +0.005 C 
ATOM      9  C   UNL     1      -0.777  -4.067  -1.322  0.00  0.00    +0.000 C 
ATOM     10  C   UNL     1      -2.203  -4.604  -1.191  0.00  0.00    +0.002 C 
ATOM     11  C   UNL     1      -2.812  -4.119   0.126  0.00  0.00    +0.022 C 
ATOM     12  C   UNL     1      -2.841  -2.590   0.142  0.00  0.00    +0.078 C 
BRANCH   7  13
ATOM     13  C   UNL     1      -1.442  -0.522   0.027  0.00  0.00    +0.005 C 
BRANCH  13  15
ATOM     14  C   UNL     1      -0.038   1.544   0.038  0.00  0.00    +0.004 C 
ATOM     15  C   UNL     1      -0.010   0.015   0.022  0.00  0.00    -0.003 C 
ENDBRANCH  13  15
ENDBRANCH   7  13
ENDBRANCH   1  12
BRANCH   4  16
ATOM     16  C   UNL     1      -7.128  -1.540  -1.779  0.00  0.00    +0.035 A 
ATOM     17  C   UNL     1      -7.735  -1.256  -0.562  0.00  0.00    +0.023 A 
ATOM     18  C   UNL     1      -9.113  -1.241  -0.459  0.00  0.00    +0.002 A 
ATOM     19  C   UNL     1      -9.895  -1.507  -1.565  0.00  0.00    +0.010 A 
ATOM     20  C   UNL     1      -9.295  -1.792  -2.790  0.00  0.00    +0.004 A 
ATOM     21  C   UNL     1      -7.907  -1.802  -2.896  0.00  0.00    +0.033 A 
BRANCH  20  22
ATOM     22  C   UNL     1     -10.134  -2.078  -3.980  0.00  0.00    +0.091 A 
ATOM     23  C   UNL     1     -11.544  -2.056  -3.870  0.00  0.00    +0.035 A 
ATOM     24  C   UNL     1     -12.283  -2.324  -4.984  0.00  0.00    +0.073 A 
ATOM     25  C   UNL     1     -11.592  -2.608  -6.183  0.00  0.00    +0.265 A 
ATOM     26  O   UNL     1     -12.211  -2.853  -7.206  0.00  0.00    -0.266 OA
ATOM     27  N   UNL     1     -10.246  -2.605  -6.189  0.00  0.00    -0.243 N 
ATOM     28  H   UNL     1      -9.777  -2.801  -7.016  0.00  0.00    +0.192 HD
ATOM     29  N   UNL     1      -9.565  -2.346  -5.132  0.00  0.00    -0.171 NA
ENDBRANCH  20  22
ENDBRANCH   4  16
TORSDOF 5
