REMARK  Name = ZINC36067389
REMARK  12 active torsions:
REMARK  status: ('A' for Active; 'I' for Inactive)
REMARK    1  A    between atoms: C_1  and  C_2
REMARK    2  A    between atoms: C_6  and  C_32
REMARK    3  A    between atoms: C_7  and  O_8
REMARK    4  A    between atoms: O_8  and  C_9
REMARK    5  A    between atoms: C_9  and  C_10
REMARK    6  A    between atoms: C_13  and  S_16
REMARK    7  A    between atoms: N_14  and  N_15
REMARK    8  A    between atoms: S_16  and  C_17
REMARK    9  A    between atoms: C_17  and  C_19
REMARK   10  A    between atoms: C_17  and  C_20
REMARK   11  A    between atoms: N_22  and  C_23
REMARK   12  A    between atoms: C_29  and  C_31
REMARK                            x       y       z     vdW  Elec       q    Type
REMARK                         _______ _______ _______ _____ _____    ______ ____
ROOT
ATOM      1  C   UNL     1      -1.046   1.011   4.254  0.00  0.00    +0.189 A 
ATOM      2  N   UNL     1      -0.921   0.478   5.436  0.00  0.00    -0.128 NA
ATOM      3  N   UNL     1      -0.764   1.397   6.321  0.00  0.00    -0.121 NA
ATOM      4  C   UNL     1      -0.781   2.577   5.745  0.00  0.00    +0.209 A 
ATOM      5  N   UNL     1      -0.956   2.367   4.408  0.00  0.00    -0.225 N 
ENDROOT
BRANCH   5   6
ATOM      6  N   UNL     1      -1.030   3.315   3.427  0.00  0.00    -0.295 N 
ATOM      7  H   UNL     1      -1.983   3.614   3.284  0.00  0.00    +0.163 HD
ATOM      8  H   UNL     1      -0.432   4.100   3.636  0.00  0.00    +0.163 HD
ENDBRANCH   5   6
BRANCH   1   9
ATOM      9  C   UNL     1      -1.246   0.270   2.957  0.00  0.00    +0.306 C 
BRANCH   9  10
ATOM     10  O   UNL     1       0.025  -0.033   2.381  0.00  0.00    -0.484 OA
BRANCH  10  17
ATOM     11  C   UNL     1      -0.018   1.503   0.010  0.00  0.00    +0.047 C 
ATOM     12  C   UNL     1       0.002  -0.004   0.002  0.00  0.00    -0.009 A 
ATOM     13  C   UNL     1       0.006  -0.689  -1.198  0.00  0.00    +0.007 A 
ATOM     14  C   UNL     1       0.024  -2.071  -1.206  0.00  0.00    +0.001 A 
ATOM     15  C   UNL     1       0.040  -2.772  -0.014  0.00  0.00    +0.007 A 
ATOM     16  C   UNL     1       0.036  -2.092   1.188  0.00  0.00    -0.009 A 
ATOM     17  C   UNL     1       0.023  -0.705   1.199  0.00  0.00    +0.127 A 
ATOM     18  C   UNL     1       0.052  -2.856   2.487  0.00  0.00    +0.047 C 
ENDBRANCH  10  17
ENDBRANCH   9  10
ENDBRANCH   1   9
BRANCH   4  19
ATOM     19  S   UNL     1      -0.604   4.136   6.547  0.00  0.00    -0.072 S 
BRANCH  19  20
ATOM     20  C   UNL     1      -0.400   3.709   8.298  0.00  0.00    +0.137 C 
ATOM     21  C   UNL     1       0.906   2.936   8.485  0.00  0.00    +0.029 C 
BRANCH  20  22
ATOM     22  C   UNL     1      -0.359   4.971   9.121  0.00  0.00    +0.226 C 
ATOM     23  O   UNL     1      -0.095   6.030   8.594  0.00  0.00    -0.275 OA
ATOM     24  N   UNL     1      -0.618   4.921  10.443  0.00  0.00    -0.311 N 
ATOM     25  H   UNL     1      -0.830   4.074  10.864  0.00  0.00    +0.149 HD
BRANCH  24  26
ATOM     26  C   UNL     1      -0.578   6.148  11.243  0.00  0.00    +0.076 C 
ATOM     27  C   UNL     1       0.861   6.423  11.684  0.00  0.00    +0.022 C 
ATOM     28  C   UNL     1       1.371   5.250  12.523  0.00  0.00    +0.002 C 
ATOM     29  C   UNL     1       0.483   5.082  13.758  0.00  0.00    +0.000 C 
ATOM     30  C   UNL     1      -0.956   4.806  13.317  0.00  0.00    +0.005 C 
ATOM     31  C   UNL     1      -1.466   5.979  12.478  0.00  0.00    +0.006 C 
ATOM     32  C   UNL     1      -2.905   5.704  12.038  0.00  0.00    +0.009 C 
ENDBRANCH  24  26
ENDBRANCH  20  22
ENDBRANCH  19  20
ENDBRANCH   4  19
TORSDOF 8
