REMARK  Name = ZINC37601379
REMARK  9 active torsions:
REMARK  status: ('A' for Active; 'I' for Inactive)
REMARK    1  A    between atoms: C_1  and  C_2
REMARK    2  A    between atoms: C_5  and  C_8
REMARK    3  A    between atoms: C_12  and  O_24
REMARK    4  A    between atoms: C_19  and  C_21
REMARK    5  A    between atoms: O_24  and  C_25
REMARK    6  A    between atoms: C_25  and  C_26
REMARK    7  A    between atoms: C_28  and  C_31
REMARK    8  A    between atoms: N_33  and  C_34
REMARK    9  A    between atoms: C_34  and  C_35
REMARK                            x       y       z     vdW  Elec       q    Type
REMARK                         _______ _______ _______ _____ _____    ______ ____
ROOT
ATOM      1  C   UNL     1       0.048  -4.271  -0.008  0.00  0.00    +0.137 C 
ATOM      2  C   UNL     1      -1.311  -4.804   0.370  0.00  0.00    -0.016 A 
ATOM      3  C   UNL     1      -2.418  -4.261  -0.267  0.00  0.00    +0.051 A 
ATOM      4  C   UNL     1      -3.692  -4.716   0.029  0.00  0.00    +0.121 A 
ATOM      5  C   UNL     1      -3.858  -5.723   0.970  0.00  0.00    +0.046 A 
ATOM      6  C   UNL     1      -2.757  -6.256   1.603  0.00  0.00    +0.007 A 
ATOM      7  C   UNL     1      -1.479  -5.796   1.310  0.00  0.00    -0.040 A 
ATOM      8  C   UNL     1      -0.328  -6.410   2.064  0.00  0.00    +0.054 C 
ATOM      9  C   UNL     1       0.991  -6.177   1.327  0.00  0.00    +0.113 C 
ATOM     10  N   UNL     1       1.051  -4.756   0.947  0.00  0.00    -0.290 N 
ATOM     11  C   UNL     1       1.990  -3.934   1.455  0.00  0.00    +0.219 C 
ATOM     12  O   UNL     1       1.973  -2.752   1.183  0.00  0.00    -0.275 OA
ENDROOT
BRANCH   1  17
ATOM     13  C   UNL     1      -0.055   1.506   0.086  0.00  0.00    +0.044 C 
ATOM     14  C   UNL     1      -0.028  -0.001   0.061  0.00  0.00    -0.050 A 
ATOM     15  C   UNL     1      -0.410  -0.717   1.180  0.00  0.00    +0.004 A 
ATOM     16  C   UNL     1      -0.386  -2.099   1.158  0.00  0.00    +0.006 A 
ATOM     17  C   UNL     1       0.021  -2.764   0.016  0.00  0.00    -0.023 A 
ATOM     18  C   UNL     1       0.402  -2.048  -1.103  0.00  0.00    +0.006 A 
ATOM     19  C   UNL     1       0.373  -0.666  -1.082  0.00  0.00    +0.004 A 
ENDBRANCH   1  17
BRANCH  11  20
ATOM     20  C   UNL     1       3.062  -4.483   2.360  0.00  0.00    +0.075 C 
ATOM     21  C   UNL     1       3.025  -4.068   3.832  0.00  0.00    +0.013 C 
ATOM     22  C   UNL     1       4.100  -3.499   2.904  0.00  0.00    +0.013 C 
ENDBRANCH  11  20
BRANCH   4  23
ATOM     23  O   UNL     1      -4.772  -4.179  -0.597  0.00  0.00    -0.485 OA
BRANCH  23  24
ATOM     24  C   UNL     1      -6.054  -4.700  -0.239  0.00  0.00    +0.291 C 
BRANCH  24  25
ATOM     25  C   UNL     1      -7.123  -3.989  -1.029  0.00  0.00    +0.116 A 
ATOM     26  N   UNL     1      -7.618  -4.319  -2.191  0.00  0.00    -0.236 NA
ATOM     27  C   UNL     1      -8.569  -3.542  -2.719  0.00  0.00    +0.133 A 
ATOM     28  C   UNL     1      -8.940  -2.454  -1.974  0.00  0.00    +0.080 A 
ATOM     29  S   UNL     1      -7.960  -2.594  -0.617  0.00  0.00    -0.076 S 
BRANCH  27  30
ATOM     30  C   UNL     1      -9.183  -3.839  -4.024  0.00  0.00    +0.263 C 
ATOM     31  O   UNL     1     -10.046  -3.107  -4.471  0.00  0.00    -0.269 OA
ATOM     32  N   UNL     1      -8.788  -4.921  -4.724  0.00  0.00    -0.308 N 
ATOM     33  H   UNL     1      -8.100  -5.504  -4.367  0.00  0.00    +0.149 HD
BRANCH  32  34
ATOM     34  C   UNL     1      -9.398  -5.216  -6.022  0.00  0.00    +0.136 C 
BRANCH  34  35
ATOM     35  C   UNL     1      -8.776  -6.489  -6.601  0.00  0.00    +0.135 C 
ATOM     36  C   UNL     1      -9.325  -6.741  -8.022  0.00  0.00    +0.035 C 
ATOM     37  C   UNL     1      -9.498  -8.284  -8.039  0.00  0.00    +0.031 C 
ATOM     38  C   UNL     1      -9.901  -8.551  -6.566  0.00  0.00    +0.160 C 
ATOM     39  O   UNL     1      -9.132  -7.615  -5.791  0.00  0.00    -0.375 OA
ENDBRANCH  34  35
ENDBRANCH  32  34
ENDBRANCH  27  30
ENDBRANCH  24  25
ENDBRANCH  23  24
ENDBRANCH   4  23
TORSDOF 8
