REMARK  Name = ZINC32535614
REMARK  8 active torsions:
REMARK  status: ('A' for Active; 'I' for Inactive)
REMARK    1  A    between atoms: C_1  and  C_2
REMARK    2  A    between atoms: C_2  and  C_3
REMARK    3  A    between atoms: C_3  and  C_5
REMARK    4  A    between atoms: C_3  and  N_19
REMARK    5  A    between atoms: C_11  and  C_13
REMARK    6  A    between atoms: C_23  and  S_24
REMARK    7  A    between atoms: S_24  and  C_25
REMARK    8  A    between atoms: C_25  and  C_26
REMARK                            x       y       z     vdW  Elec       q    Type
REMARK                         _______ _______ _______ _____ _____    ______ ____
ROOT
ATOM      1  C   UNL     1      -0.843   3.106   1.355  0.00  0.00    +0.178 C 
ENDROOT
BRANCH   1   2
ATOM      2  C   UNL     1      -1.777   3.598   0.279  0.00  0.00    +0.242 C 
ATOM      3  O   UNL     1      -2.737   4.277   0.573  0.00  0.00    -0.273 OA
ATOM      4  N   UNL     1      -1.544   3.283  -1.011  0.00  0.00    -0.262 N 
ATOM      5  C   UNL     1      -2.457   3.651  -1.993  0.00  0.00    +0.188 A 
ATOM      6  N   UNL     1      -3.600   4.306  -1.878  0.00  0.00    -0.126 NA
ATOM      7  N   UNL     1      -4.323   4.566  -2.879  0.00  0.00    -0.144 NA
ATOM      8  C   UNL     1      -3.958   4.188  -4.088  0.00  0.00    +0.107 A 
ATOM      9  S   UNL     1      -2.406   3.384  -3.711  0.00  0.00    -0.035 S 
ATOM     10  H   UNL     1      -0.631   2.734  -1.287  0.00  0.00    +0.157 HD
BRANCH   8  11
ATOM     11  C   UNL     1      -4.650   4.383  -5.412  0.00  0.00    +0.047 C 
ATOM     12  C   UNL     1      -4.818   5.879  -5.684  0.00  0.00    +0.010 C 
ATOM     13  C   UNL     1      -5.520   6.078  -7.029  0.00  0.00    +0.001 C 
ATOM     14  C   UNL     1      -6.896   5.409  -6.989  0.00  0.00    +0.000 C 
ATOM     15  C   UNL     1      -6.728   3.913  -6.717  0.00  0.00    +0.001 C 
ATOM     16  C   UNL     1      -6.026   3.715  -5.373  0.00  0.00    +0.010 C 
ENDBRANCH   8  11
ENDBRANCH   1   2
BRANCH   1  17
ATOM     17  N   UNL     1      -1.358   3.506   2.667  0.00  0.00    -0.279 N 
ATOM     18  C   UNL     1      -2.566   3.151   3.198  0.00  0.00    +0.216 A 
ATOM     19  N   UNL     1      -2.664   3.701   4.383  0.00  0.00    -0.113 NA
ATOM     20  N   UNL     1      -1.491   4.429   4.623  0.00  0.00    -0.121 NA
ATOM     21  C   UNL     1      -0.711   4.294   3.578  0.00  0.00    +0.194 A 
ATOM     22  N   UNL     1      -3.521   2.349   2.589  0.00  0.00    -0.328 N 
ATOM     23  H   UNL     1      -4.464   2.125   3.108  0.00  0.00    +0.145 HD
ATOM     24  H   UNL     1      -3.334   1.936   1.586  0.00  0.00    +0.145 HD
BRANCH  21  25
ATOM     25  S   UNL     1       0.887   5.008   3.379  0.00  0.00    -0.081 S 
BRANCH  25  26
ATOM     26  C   UNL     1       1.154   5.923   4.923  0.00  0.00    +0.112 C 
BRANCH  26  27
ATOM     27  C   UNL     1       2.505   6.590   4.884  0.00  0.00    -0.037 A 
ATOM     28  C   UNL     1       3.618   5.926   5.363  0.00  0.00    +0.004 A 
ATOM     29  C   UNL     1       4.858   6.536   5.322  0.00  0.00    +0.000 A 
ATOM     30  C   UNL     1       4.982   7.816   4.814  0.00  0.00    +0.000 A 
ATOM     31  C   UNL     1       3.867   8.483   4.341  0.00  0.00    +0.000 A 
ATOM     32  C   UNL     1       2.629   7.870   4.376  0.00  0.00    +0.004 A 
ENDBRANCH  26  27
ENDBRANCH  25  26
ENDBRANCH  21  25
ENDBRANCH   1  17
BRANCH   1  34
ATOM     33  C   UNL     1       0.305   1.093   2.287  0.00  0.00    +0.006 C 
ATOM     34  C   UNL     1      -0.746   1.581   1.288  0.00  0.00    +0.031 C 
ENDBRANCH   1  34
TORSDOF 7
