REMARK  Name = ZINC13037835
REMARK  9 active torsions:
REMARK  status: ('A' for Active; 'I' for Inactive)
REMARK    1  A    between atoms: C_1  and  C_2
REMARK    2  A    between atoms: C_5  and  S_8
REMARK    3  A    between atoms: S_8  and  N_11
REMARK    4  A    between atoms: C_16  and  C_18
REMARK    5  A    between atoms: N_20  and  C_21
REMARK    6  A    between atoms: C_21  and  C_23
REMARK    7  A    between atoms: C_21  and  C_33
REMARK    8  A    between atoms: C_33  and  C_34
REMARK    9  A    between atoms: C_33  and  C_35
REMARK                            x       y       z     vdW  Elec       q    Type
REMARK                         _______ _______ _______ _____ _____    ______ ____
ROOT
ATOM      1  C   UNL     1      -0.355  -3.404  -1.045  0.00  0.00    +0.232 C 
ATOM      2  O   UNL     1      -0.823  -2.967  -2.074  0.00  0.00    -0.274 OA
ATOM      3  N   UNL     1      -0.428  -2.681   0.090  0.00  0.00    -0.304 N 
ATOM      4  H   UNL     1      -0.110  -3.056   0.926  0.00  0.00    +0.149 HD
ENDROOT
BRANCH   1  10
ATOM      5  N   UNL     1      -0.654  -5.782  -1.459  0.00  0.00    -0.165 NA
ATOM      6  C   UNL     1      -0.179  -7.157  -1.663  0.00  0.00    +0.110 C 
ATOM      7  C   UNL     1       1.008  -7.130  -2.630  0.00  0.00    +0.017 C 
ATOM      8  C   UNL     1       2.074  -6.170  -2.097  0.00  0.00    +0.003 C 
ATOM      9  C   UNL     1       1.491  -4.757  -2.008  0.00  0.00    +0.030 C 
ATOM     10  C   UNL     1       0.309  -4.757  -1.034  0.00  0.00    +0.165 C 
BRANCH   5  11
ATOM     11  S   UNL     1      -2.245  -5.394  -1.704  0.00  0.00    +0.062 S 
ATOM     12  O   UNL     1      -2.998  -6.565  -1.417  0.00  0.00    -0.153 OA
ATOM     13  O   UNL     1      -2.470  -4.160  -1.036  0.00  0.00    -0.153 OA
BRANCH  11  18
ATOM     14  C   UNL     1      -2.928  -4.309  -7.600  0.00  0.00    +0.044 C 
ATOM     15  C   UNL     1      -2.758  -4.580  -6.128  0.00  0.00    -0.050 A 
ATOM     16  C   UNL     1      -2.706  -5.882  -5.666  0.00  0.00    +0.005 A 
ATOM     17  C   UNL     1      -2.550  -6.130  -4.315  0.00  0.00    +0.029 A 
ATOM     18  C   UNL     1      -2.445  -5.077  -3.426  0.00  0.00    +0.106 A 
ATOM     19  C   UNL     1      -2.502  -3.775  -3.887  0.00  0.00    +0.029 A 
ATOM     20  C   UNL     1      -2.655  -3.527  -5.239  0.00  0.00    +0.005 A 
ENDBRANCH  11  18
ENDBRANCH   5  11
ENDBRANCH   1  10
BRANCH   3  21
ATOM     21  C   UNL     1      -0.990  -1.328   0.061  0.00  0.00    +0.141 C 
BRANCH  21  22
ATOM     22  C   UNL     1      -0.206  -0.439   0.992  0.00  0.00    +0.129 A 
ATOM     23  N   UNL     1       0.915  -0.812   1.666  0.00  0.00    -0.340 N 
ATOM     24  H   UNL     1       1.357  -1.708   1.631  0.00  0.00    +0.167 HD
ATOM     25  C   UNL     1       1.331   0.277   2.406  0.00  0.00    +0.066 A 
ATOM     26  C   UNL     1       2.389   0.509   3.275  0.00  0.00    +0.028 A 
ATOM     27  C   UNL     1       2.526   1.745   3.869  0.00  0.00    +0.002 A 
ATOM     28  C   UNL     1       1.614   2.758   3.604  0.00  0.00    +0.002 A 
ATOM     29  C   UNL     1       0.567   2.548   2.752  0.00  0.00    +0.030 A 
ATOM     30  C   UNL     1       0.408   1.302   2.139  0.00  0.00    +0.089 A 
ATOM     31  N   UNL     1      -0.503   0.797   1.268  0.00  0.00    -0.231 NA
ENDBRANCH  21  22
BRANCH  21  32
ATOM     32  C   UNL     1      -2.452  -1.373   0.509  0.00  0.00    +0.011 C 
ATOM     33  C   UNL     1      -2.520  -1.762   1.988  0.00  0.00    +0.009 C 
ATOM     34  C   UNL     1      -3.088   0.005   0.315  0.00  0.00    +0.009 C 
ENDBRANCH  21  32
ENDBRANCH   3  21
TORSDOF 6
