REMARK  Name = ZINC14306872
REMARK  6 active torsions:
REMARK  status: ('A' for Active; 'I' for Inactive)
REMARK    1  A    between atoms: C_3  and  N_22
REMARK    2  A    between atoms: C_5  and  C_6
REMARK    3  A    between atoms: C_6  and  N_7
REMARK    4  A    between atoms: N_7  and  C_8
REMARK    5  A    between atoms: C_11  and  C_17
REMARK    6  A    between atoms: C_13  and  N_14
REMARK                            x       y       z     vdW  Elec       q    Type
REMARK                         _______ _______ _______ _____ _____    ______ ____
ROOT
ATOM      1  N   UNL     1      -0.012   0.969   0.043  0.00  0.00    -0.338 N 
ATOM      2  H   UNL     1      -0.001  -0.001   0.026  0.00  0.00    +0.146 HD
ENDROOT
BRANCH   1   3
ATOM      3  C   UNL     1       1.188   1.682   0.017  0.00  0.00    +0.059 A 
ATOM      4  C   UNL     1       1.173   3.067  -0.086  0.00  0.00    +0.045 A 
ATOM      5  C   UNL     1       2.362   3.770  -0.111  0.00  0.00    +0.054 A 
ATOM      6  C   UNL     1       3.568   3.094  -0.033  0.00  0.00    +0.075 A 
ATOM      7  C   UNL     1       3.586   1.716   0.069  0.00  0.00    +0.048 A 
ATOM      8  C   UNL     1       2.400   1.008   0.101  0.00  0.00    +0.148 A 
ATOM      9 CL   UNL     1       2.345   5.501  -0.239  0.00  0.00    -0.083 Cl
BRANCH   6  10
ATOM     10  C   UNL     1       4.864   3.863  -0.060  0.00  0.00    +0.419 C 
ATOM     11  F   UNL     1       5.938   2.971   0.030  0.00  0.00    -0.166 F 
ATOM     12  F   UNL     1       4.955   4.582  -1.257  0.00  0.00    -0.166 F 
ATOM     13  F   UNL     1       4.903   4.750   1.020  0.00  0.00    -0.166 F 
ENDBRANCH   6  10
BRANCH   8  14
ATOM     14  N   UNL     1       2.421  -0.467   0.217  0.00  0.00    +0.058 N 
ATOM     15  O   UNL     1       3.475  -1.049   0.397  0.00  0.00    -0.126 OA
ATOM     16  O   UNL     1       1.383  -1.099   0.133  0.00  0.00    -0.126 OA
ENDBRANCH   8  14
ENDBRANCH   1   3
BRANCH   1  17
ATOM     17  C   UNL     1      -1.289   1.685   0.089  0.00  0.00    +0.138 C 
BRANCH  17  22
ATOM     18  C   UNL     1      -2.918   0.209   1.306  0.00  0.00    +0.010 A 
ATOM     19  C   UNL     1      -3.959  -0.702   1.274  0.00  0.00    +0.042 A 
ATOM     20  C   UNL     1      -4.471  -1.101   0.043  0.00  0.00    +0.099 A 
ATOM     21  C   UNL     1      -2.982   0.257  -1.083  0.00  0.00    +0.089 A 
ATOM     22  C   UNL     1      -2.422   0.692   0.102  0.00  0.00    -0.014 A 
ATOM     23  N   UNL     1      -4.000  -0.641  -1.153  0.00  0.00    -0.349 N 
ATOM     24  H   UNL     1      -4.391  -0.955  -2.049  0.00  0.00    +0.167 HD
BRANCH  20  25
ATOM     25  N   UNL     1      -5.517  -2.015  -0.004  0.00  0.00    -0.312 N 
ATOM     26  C   UNL     1      -5.165  -3.255   0.703  0.00  0.00    +0.134 C 
ATOM     27  C   UNL     1      -6.362  -4.208   0.678  0.00  0.00    +0.178 C 
ATOM     28  O   UNL     1      -6.746  -4.448  -0.679  0.00  0.00    -0.377 OA
ATOM     29  C   UNL     1      -7.096  -3.262  -1.397  0.00  0.00    +0.178 C 
ATOM     30  C   UNL     1      -5.906  -2.300  -1.393  0.00  0.00    +0.134 C 
ENDBRANCH  20  25
ENDBRANCH  17  22
ENDBRANCH   1  17
TORSDOF 6
