REMARK  Name = ZINC01873476
REMARK  13 active torsions:
REMARK  status: ('A' for Active; 'I' for Inactive)
REMARK    1  A    between atoms: C_1  and  C_2
REMARK    2  A    between atoms: C_2  and  O_3
REMARK    3  A    between atoms: O_3  and  C_4
REMARK    4  A    between atoms: C_4  and  C_6
REMARK    5  A    between atoms: C_7  and  C_39
REMARK    6  A    between atoms: C_8  and  C_34
REMARK    7  A    between atoms: C_10  and  N_11
REMARK    8  A    between atoms: C_12  and  C_14
REMARK    9  A    between atoms: C_19  and  C_30
REMARK   10  A    between atoms: C_22  and  C_25
REMARK   11  A    between atoms: C_34  and  O_36
REMARK   12  A    between atoms: O_36  and  C_37
REMARK   13  A    between atoms: C_37  and  C_38
REMARK                            x       y       z     vdW  Elec       q    Type
REMARK                         _______ _______ _______ _____ _____    ______ ____
ROOT
ATOM      1  N   UNL     1       5.047   4.769   0.133  0.00  0.00    -0.274 N 
ATOM      2  C   UNL     1       3.707   4.778   0.280  0.00  0.00    +0.269 C 
ATOM      3  O   UNL     1       3.132   5.813   0.555  0.00  0.00    -0.268 OA
ATOM      4  H   UNL     1       5.506   3.943  -0.086  0.00  0.00    +0.156 HD
ENDROOT
BRANCH   2   5
ATOM      5  C   UNL     1       2.938   3.529   0.108  0.00  0.00    +0.149 A 
ATOM      6  C   UNL     1       1.536   3.395   0.232  0.00  0.00    +0.078 A 
ATOM      7  C   UNL     1       1.229   2.103   0.002  0.00  0.00    +0.119 A 
ATOM      8  N   UNL     1       2.389   1.431  -0.264  0.00  0.00    -0.238 N 
ATOM      9  N   UNL     1       3.440   2.343  -0.189  0.00  0.00    -0.164 NA
ATOM     10  C   UNL     1       2.446  -0.002  -0.567  0.00  0.00    +0.215 C 
ATOM     11  C   UNL     1       1.056  -0.472  -1.008  0.00  0.00    +0.063 C 
ATOM     12  C   UNL     1       0.002  -0.004   0.002  0.00  0.00    +0.111 C 
ATOM     13  N   UNL     1      -0.018   1.472   0.010  0.00  0.00    -0.322 N 
ATOM     14  H   UNL     1      -0.848   1.974   0.017  0.00  0.00    +0.148 HD
BRANCH  12  15
ATOM     15  C   UNL     1      -1.353  -0.526  -0.401  0.00  0.00    +0.010 A 
ATOM     16  C   UNL     1      -2.041  -1.585   0.092  0.00  0.00    +0.013 A 
ATOM     17  C   UNL     1      -3.283  -1.882  -0.437  0.00  0.00    +0.008 A 
ATOM     18  C   UNL     1      -3.776  -1.106  -1.432  0.00  0.00    +0.045 A 
ATOM     19  S   UNL     1      -2.471   0.093  -1.647  0.00  0.00    -0.100 S 
ENDBRANCH  12  15
BRANCH  10  20
ATOM     20  C   UNL     1       3.451  -0.247  -1.695  0.00  0.00    +0.412 C 
ATOM     21  F   UNL     1       3.058   0.466  -2.832  0.00  0.00    -0.168 F 
ATOM     22  F   UNL     1       4.720   0.183  -1.290  0.00  0.00    -0.168 F 
ATOM     23  F   UNL     1       3.495  -1.613  -1.992  0.00  0.00    -0.168 F 
ENDBRANCH  10  20
ENDBRANCH   2   5
BRANCH   1  28
ATOM     24  C   UNL     1       7.148   6.130   0.190  0.00  0.00    +0.091 A 
ATOM     25  C   UNL     1       7.637   7.411   0.394  0.00  0.00    -0.014 A 
ATOM     26  C   UNL     1       6.734   8.396   0.694  0.00  0.00    +0.102 A 
ATOM     27  S   UNL     1       5.181   7.520   0.683  0.00  0.00    -0.066 S 
ATOM     28  C   UNL     1       5.766   5.936   0.294  0.00  0.00    +0.087 A 
ATOM     29  C   UNL     1       9.111   7.708   0.296  0.00  0.00    +0.046 C 
BRANCH  24  30
ATOM     30  C   UNL     1       8.049   5.016  -0.129  0.00  0.00    +0.342 C 
ATOM     31  O   UNL     1       8.316   4.763  -1.288  0.00  0.00    -0.245 OA
BRANCH  30  32
ATOM     32  O   UNL     1       8.581   4.274   0.863  0.00  0.00    -0.461 OA
BRANCH  32  34
ATOM     33  C   UNL     1       9.965   2.466   1.726  0.00  0.00    +0.048 C 
ATOM     34  C   UNL     1       9.463   3.189   0.474  0.00  0.00    +0.229 C 
ENDBRANCH  32  34
ENDBRANCH  30  32
ENDBRANCH  24  30
BRANCH  26  35
ATOM     35  C   UNL     1       6.982   9.812   0.959  0.00  0.00    +0.346 C 
ATOM     36  O   UNL     1       8.117  10.248   0.925  0.00  0.00    -0.244 OA
BRANCH  35  37
ATOM     37  O   UNL     1       5.951  10.636   1.240  0.00  0.00    -0.461 OA
BRANCH  37  38
ATOM     38  C   UNL     1       6.266  12.008   1.488  0.00  0.00    +0.229 C 
ATOM     39  C   UNL     1       4.980  12.781   1.786  0.00  0.00    +0.048 C 
ENDBRANCH  37  38
ENDBRANCH  35  37
ENDBRANCH  26  35
ENDBRANCH   1  28
TORSDOF 10
