REMARK  Name = ZINC02373709
REMARK  6 active torsions:
REMARK  status: ('A' for Active; 'I' for Inactive)
REMARK    1  A    between atoms: C_1  and  C_2
REMARK    2  A    between atoms: C_5  and  S_8
REMARK    3  A    between atoms: S_8  and  C_11
REMARK    4  A    between atoms: N_22  and  C_25
REMARK    5  A    between atoms: C_23  and  N_24
REMARK    6  A    between atoms: C_25  and  C_26
REMARK                            x       y       z     vdW  Elec       q    Type
REMARK                         _______ _______ _______ _____ _____    ______ ____
ROOT
ATOM      1  C   UNL     1      -2.001   2.483   1.708  0.00  0.00    +0.160 A 
ATOM      2  C   UNL     1      -1.653   3.599   2.507  0.00  0.00    +0.135 A 
ATOM      3  C   UNL     1      -2.248   3.351   3.826  0.00  0.00    +0.163 A 
ATOM      4  N   UNL     1      -2.089   4.232   4.788  0.00  0.00    -0.226 NA
ATOM      5  C   UNL     1      -1.384   5.348   4.560  0.00  0.00    +0.092 A 
ATOM      6  C   UNL     1      -1.209   6.296   5.585  0.00  0.00    +0.030 A 
ATOM      7  C   UNL     1      -0.492   7.428   5.345  0.00  0.00    +0.002 A 
ATOM      8  C   UNL     1       0.075   7.665   4.094  0.00  0.00    +0.002 A 
ATOM      9  C   UNL     1      -0.073   6.773   3.079  0.00  0.00    +0.030 A 
ATOM     10  C   UNL     1      -0.808   5.590   3.288  0.00  0.00    +0.090 A 
ATOM     11  N   UNL     1      -0.960   4.706   2.295  0.00  0.00    -0.240 NA
ATOM     12  N   UNL     1      -2.896   2.138   3.735  0.00  0.00    -0.307 N 
ATOM     13  C   UNL     1      -2.742   1.640   2.465  0.00  0.00    +0.126 A 
ENDROOT
BRANCH   1  14
ATOM     14  S   UNL     1      -1.554   2.238   0.022  0.00  0.00    +0.030 S 
ATOM     15  O   UNL     1      -1.304   3.526  -0.523  0.00  0.00    -0.164 OA
ATOM     16  O   UNL     1      -2.519   1.353  -0.529  0.00  0.00    -0.164 OA
BRANCH  14  21
ATOM     17  C   UNL     1       3.711  -0.707  -0.037  0.00  0.00    +0.044 C 
ATOM     18  C   UNL     1       2.396   0.029  -0.021  0.00  0.00    -0.050 A 
ATOM     19  C   UNL     1       1.208  -0.679  -0.013  0.00  0.00    +0.005 A 
ATOM     20  C   UNL     1       0.002  -0.004   0.002  0.00  0.00    +0.027 A 
ATOM     21  C   UNL     1      -0.017   1.378   0.010  0.00  0.00    +0.094 A 
ATOM     22  C   UNL     1       1.171   2.086   0.002  0.00  0.00    +0.027 A 
ATOM     23  C   UNL     1       2.377   1.411  -0.015  0.00  0.00    +0.005 A 
ENDBRANCH  14  21
ENDBRANCH   1  14
BRANCH  13  24
ATOM     24  N   UNL     1      -3.269   0.441   2.021  0.00  0.00    -0.343 N 
ATOM     25  H   UNL     1      -3.115   0.153   1.107  0.00  0.00    +0.144 HD
ATOM     26  H   UNL     1      -3.791  -0.112   2.623  0.00  0.00    +0.144 HD
ENDBRANCH  13  24
BRANCH  12  27
ATOM     27  C   UNL     1      -3.636   1.486   4.819  0.00  0.00    +0.161 C 
BRANCH  27  28
ATOM     28  C   UNL     1      -5.077   1.927   4.780  0.00  0.00    -0.009 A 
ATOM     29  C   UNL     1      -6.035   1.110   4.210  0.00  0.00    +0.007 A 
ATOM     30  C   UNL     1      -7.356   1.515   4.174  0.00  0.00    +0.000 A 
ATOM     31  C   UNL     1      -7.720   2.737   4.708  0.00  0.00    +0.001 A 
ATOM     32  C   UNL     1      -6.763   3.555   5.278  0.00  0.00    +0.020 A 
ATOM     33  C   UNL     1      -5.441   3.148   5.319  0.00  0.00    +0.046 A 
ATOM     34 CL   UNL     1      -4.239   4.172   6.041  0.00  0.00    -0.083 Cl
ENDBRANCH  27  28
ENDBRANCH  12  27
TORSDOF 5
