REMARK  Name = ZINC12491960
REMARK  10 active torsions:
REMARK  status: ('A' for Active; 'I' for Inactive)
REMARK    1  A    between atoms: C_1  and  C_2
REMARK    2  A    between atoms: C_2  and  O_3
REMARK    3  A    between atoms: O_3  and  C_4
REMARK    4  A    between atoms: C_4  and  C_6
REMARK    5  A    between atoms: N_14  and  C_15
REMARK    6  A    between atoms: C_15  and  C_17
REMARK    7  A    between atoms: N_22  and  C_23
REMARK    8  A    between atoms: C_23  and  C_24
REMARK    9  A    between atoms: C_24  and  S_25
REMARK   10  A    between atoms: S_25  and  C_26
REMARK                            x       y       z     vdW  Elec       q    Type
REMARK                         _______ _______ _______ _____ _____    ______ ____
ROOT
ATOM      1  C   UNL     1      -2.852  -2.419   0.016  0.00  0.00    +0.060 A 
ATOM      2  C   UNL     1      -3.981  -1.591   0.026  0.00  0.00    +0.017 A 
ATOM      3  C   UNL     1      -5.237  -2.114   0.035  0.00  0.00    +0.028 A 
ATOM      4  C   UNL     1      -5.442  -3.504   0.035  0.00  0.00    +0.058 A 
ATOM      5  C   UNL     1      -4.299  -4.322   0.025  0.00  0.00    +0.040 A 
ATOM      6  C   UNL     1      -3.029  -3.807   0.011  0.00  0.00    +0.032 A 
ATOM      7  S   UNL     1      -4.977  -5.961   0.027  0.00  0.00    -0.052 S 
ATOM      8  C   UNL     1      -6.611  -5.564   0.040  0.00  0.00    +0.167 A 
ATOM      9  N   UNL     1      -7.650  -6.392   0.047  0.00  0.00    -0.149 NA
ATOM     10  N   UNL     1      -6.627  -4.205   0.042  0.00  0.00    -0.320 N 
ENDROOT
BRANCH   1  11
ATOM     11  C   UNL     1      -1.497  -1.837   0.006  0.00  0.00    +0.339 C 
ATOM     12  O   UNL     1      -0.523  -2.564  -0.007  0.00  0.00    -0.245 OA
BRANCH  11  13
ATOM     13  O   UNL     1      -1.339  -0.499   0.012  0.00  0.00    -0.461 OA
BRANCH  13  15
ATOM     14  C   UNL     1      -0.019   1.526   0.010  0.00  0.00    +0.048 C 
ATOM     15  C   UNL     1       0.002  -0.004   0.002  0.00  0.00    +0.229 C 
ENDBRANCH  13  15
ENDBRANCH  11  13
ENDBRANCH   1  11
BRANCH   9  16
ATOM     16  C   UNL     1      -7.451  -7.715   0.043  0.00  0.00    +0.307 C 
ATOM     17  O   UNL     1      -6.317  -8.161   0.034  0.00  0.00    -0.265 OA
BRANCH  16  18
ATOM     18  C   UNL     1      -8.607  -8.635   0.051  0.00  0.00    +0.223 A 
ATOM     19  C   UNL     1      -8.551  -9.994   0.054  0.00  0.00    +0.077 A 
ATOM     20  C   UNL     1      -9.868 -10.483   0.061  0.00  0.00    +0.157 A 
ATOM     21  N   UNL     1     -10.681  -9.465   0.063  0.00  0.00    -0.086 NA
ATOM     22  O   UNL     1      -9.906  -8.280   0.062  0.00  0.00    -0.350 OA
ENDBRANCH  16  18
ENDBRANCH   9  16
BRANCH  10  23
ATOM     23  C   UNL     1      -7.904  -3.488   0.053  0.00  0.00    +0.135 C 
BRANCH  23  24
ATOM     24  C   UNL     1      -8.360  -3.235  -1.385  0.00  0.00    +0.090 C 
BRANCH  24  25
ATOM     25  S   UNL     1      -9.941  -2.346  -1.371  0.00  0.00    -0.162 S 
ATOM     26  C   UNL     1     -10.337  -2.127  -3.128  0.00  0.00    +0.084 C 
ENDBRANCH  24  25
ENDBRANCH  23  24
ENDBRANCH  10  23
TORSDOF 8
