REMARK  Name = ZINC39660400
REMARK  11 active torsions:
REMARK  status: ('A' for Active; 'I' for Inactive)
REMARK    1  A    between atoms: C_1  and  C_2
REMARK    2  A    between atoms: C_2  and  C_3
REMARK    3  A    between atoms: C_3  and  C_4
REMARK    4  A    between atoms: C_4  and  C_5
REMARK    5  A    between atoms: C_5  and  C_6
REMARK    6  A    between atoms: C_6  and  N_7
REMARK    7  A    between atoms: C_8  and  C_10
REMARK    8  A    between atoms: C_21  and  C_23
REMARK    9  A    between atoms: C_25  and  C_30
REMARK   10  A    between atoms: N_27  and  C_28
REMARK   11  A    between atoms: C_28  and  C_29
REMARK                            x       y       z     vdW  Elec       q    Type
REMARK                         _______ _______ _______ _____ _____    ______ ____
ROOT
ATOM      1  C   UNL     1      -6.003  -6.633  -0.004  0.00  0.00    +0.100 C 
ATOM      2  C   UNL     1      -6.690  -6.310  -1.349  0.00  0.00    +0.121 C 
ATOM      3  N   UNL     1      -6.354  -7.455  -2.226  0.00  0.00    -0.295 N 
ATOM      4  C   UNL     1      -6.441  -8.639  -1.337  0.00  0.00    +0.115 C 
ATOM      5  C   UNL     1      -5.845  -8.163   0.002  0.00  0.00    -0.004 C 
ATOM      6  C   UNL     1      -6.616  -8.770   1.169  0.00  0.00    -0.010 C 
ATOM      7  C   UNL     1      -6.396 -10.285   1.188  0.00  0.00    -0.082 C 
ATOM      8  N   UNL     1      -4.963 -10.572   1.321  0.00  0.00    +0.379 N 
ATOM      9  C   UNL     1      -4.240 -10.066   0.148  0.00  0.00    -0.082 C 
ATOM     10  C   UNL     1      -4.369  -8.541   0.085  0.00  0.00    -0.010 C 
ATOM     11  C   UNL     1      -6.039  -7.428  -3.537  0.00  0.00    +0.266 C 
ATOM     12  O   UNL     1      -5.872  -8.469  -4.144  0.00  0.00    -0.268 OA
ATOM     13  H   UNL     1      -4.607 -10.124   2.152  0.00  0.00    -0.086 HD
ATOM     14  H   UNL     1      -4.826 -11.569   1.394  0.00  0.00    -0.086 HD
ENDROOT
BRANCH  11  15
ATOM     15  C   UNL     1      -5.897  -6.140  -4.232  0.00  0.00    +0.138 A 
ATOM     16  C   UNL     1      -4.726  -5.428  -4.433  0.00  0.00    +0.071 A 
ATOM     17  C   UNL     1      -5.106  -4.282  -5.136  0.00  0.00    +0.075 A 
ATOM     18  N   UNL     1      -6.400  -4.336  -5.323  0.00  0.00    -0.175 NA
ATOM     19  N   UNL     1      -6.893  -5.407  -4.814  0.00  0.00    -0.258 N 
ATOM     20  C   UNL     1      -4.188  -3.179  -5.598  0.00  0.00    +0.069 C 
ATOM     21 BR   UNL     1      -2.983  -5.905  -3.874  0.00  0.00    -0.046 Br
BRANCH  19  22
ATOM     22  C   UNL     1      -8.308  -5.785  -4.850  0.00  0.00    +0.141 C 
ATOM     23  C   UNL     1      -9.048  -5.099  -3.699  0.00  0.00    +0.029 C 
ENDBRANCH  19  22
ENDBRANCH  11  15
BRANCH   1  25
ATOM     24  N   UNL     1      -4.075  -5.745   1.267  0.00  0.00    -0.315 N 
ATOM     25  C   UNL     1      -4.653  -5.966   0.070  0.00  0.00    +0.218 C 
ATOM     26  O   UNL     1      -4.088  -5.628  -0.949  0.00  0.00    -0.275 OA
ATOM     27  H   UNL     1      -4.557  -5.948   2.083  0.00  0.00    +0.149 HD
BRANCH  24  28
ATOM     28  C   UNL     1      -2.718  -5.197   1.335  0.00  0.00    +0.104 C 
BRANCH  28  29
ATOM     29  C   UNL     1      -2.302  -5.045   2.799  0.00  0.00    +0.019 C 
BRANCH  29  30
ATOM     30  C   UNL     1      -0.885  -4.473   2.870  0.00  0.00    +0.002 C 
BRANCH  30  31
ATOM     31  C   UNL     1      -0.469  -4.320   4.335  0.00  0.00    -0.000 C 
BRANCH  31  33
ATOM     32  C   UNL     1       1.364  -3.596   5.870  0.00  0.00    +0.004 C 
ATOM     33  C   UNL     1       0.949  -3.748   4.406  0.00  0.00    -0.003 C 
ENDBRANCH  31  33
ENDBRANCH  30  31
ENDBRANCH  29  30
ENDBRANCH  28  29
ENDBRANCH  24  28
ENDBRANCH   1  25
TORSDOF 8
