REMARK  Name = ZINC01134698
REMARK  3 active torsions:
REMARK  status: ('A' for Active; 'I' for Inactive)
REMARK    1  A    between atoms: C_3  and  S_6
REMARK    2  A    between atoms: S_6  and  N_9
REMARK    3  A    between atoms: N_9  and  C_10
REMARK                            x       y       z     vdW  Elec       q    Type
REMARK                         _______ _______ _______ _____ _____    ______ ____
ROOT
ATOM      1  C   UNL     1      -0.670   3.771   0.028  0.00  0.00    +0.050 A 
ATOM      2  C   UNL     1      -1.014   2.430   0.030  0.00  0.00    +0.037 A 
ATOM      3  C   UNL     1      -0.018   1.460   0.010  0.00  0.00    +0.034 A 
ATOM      4  C   UNL     1       0.002  -0.004   0.002  0.00  0.00    +0.066 A 
ATOM      5  C   UNL     1       1.323  -0.380  -0.010  0.00  0.00    +0.117 A 
ATOM      6  O   UNL     1       2.084   0.713  -0.013  0.00  0.00    -0.457 OA
ATOM      7  C   UNL     1       1.335   1.840  -0.001  0.00  0.00    +0.154 A 
ATOM      8  C   UNL     1       1.665   3.190   0.003  0.00  0.00    +0.086 A 
ATOM      9  C   UNL     1       0.671   4.146   0.017  0.00  0.00    +0.048 A 
ATOM     10 CL   UNL     1       3.332   3.675  -0.012  0.00  0.00    -0.080 Cl
ATOM     11  C   UNL     1       1.757  -1.825  -0.017  0.00  0.00    +0.075 C 
ATOM     12  C   UNL     1       0.614  -2.702   0.499  0.00  0.00    +0.016 C 
ATOM     13  C   UNL     1      -0.677  -2.417  -0.276  0.00  0.00    +0.080 C 
ATOM     14  C   UNL     1      -1.090  -0.979   0.003  0.00  0.00    +0.167 C 
ATOM     15  O   UNL     1      -2.243  -0.662   0.211  0.00  0.00    -0.292 OA
ENDROOT
BRANCH   1  16
ATOM     16  N   UNL     1      -1.669   4.749   0.042  0.00  0.00    -0.216 N 
ATOM     17  H   UNL     1      -2.425   4.661   0.643  0.00  0.00    +0.174 HD
BRANCH  16  18
ATOM     18  S   UNL     1      -1.561   6.058  -0.967  0.00  0.00    +0.079 S 
ATOM     19  O   UNL     1      -2.723   6.844  -0.739  0.00  0.00    -0.149 OA
ATOM     20  O   UNL     1      -0.247   6.579  -0.817  0.00  0.00    -0.149 OA
BRANCH  18  23
ATOM     21  C   UNL     1      -2.632   4.782  -4.668  0.00  0.00    +0.010 A 
ATOM     22  C   UNL     1      -2.781   5.273  -3.385  0.00  0.00    +0.036 A 
ATOM     23  C   UNL     1      -1.678   5.454  -2.618  0.00  0.00    +0.146 A 
ATOM     24  S   UNL     1      -0.374   4.928  -3.718  0.00  0.00    -0.077 S 
ATOM     25  C   UNL     1      -1.388   4.495  -5.122  0.00  0.00    +0.047 A 
ENDBRANCH  18  23
ENDBRANCH  16  18
ENDBRANCH   1  16
TORSDOF 3
