REMARK  Name = ZINC39652651
REMARK  10 active torsions:
REMARK  status: ('A' for Active; 'I' for Inactive)
REMARK    1  A    between atoms: C_1  and  C_2
REMARK    2  A    between atoms: C_2  and  O_3
REMARK    3  A    between atoms: O_3  and  C_4
REMARK    4  A    between atoms: C_9  and  C_10
REMARK    5  A    between atoms: C_10  and  C_11
REMARK    6  A    between atoms: C_11  and  N_12
REMARK    7  A    between atoms: C_13  and  C_15
REMARK    8  A    between atoms: C_26  and  C_28
REMARK    9  A    between atoms: C_31  and  O_34
REMARK   10  A    between atoms: O_34  and  C_35
REMARK                            x       y       z     vdW  Elec       q    Type
REMARK                         _______ _______ _______ _____ _____    ______ ____
ROOT
ATOM      1  C   UNL     1      -7.733   1.525  -2.263  0.00  0.00    +0.100 C 
ATOM      2  C   UNL     1      -7.123   2.681  -1.439  0.00  0.00    +0.121 C 
ATOM      3  N   UNL     1      -6.645   3.652  -2.451  0.00  0.00    -0.296 N 
ATOM      4  C   UNL     1      -7.694   3.639  -3.499  0.00  0.00    +0.115 C 
ATOM      5  C   UNL     1      -8.110   2.158  -3.613  0.00  0.00    -0.004 C 
ATOM      6  C   UNL     1      -7.343   1.482  -4.746  0.00  0.00    -0.010 C 
ATOM      7  C   UNL     1      -7.776   2.090  -6.083  0.00  0.00    -0.082 C 
ATOM      8  N   UNL     1      -9.221   1.903  -6.262  0.00  0.00    +0.379 N 
ATOM      9  C   UNL     1      -9.954   2.633  -5.221  0.00  0.00    -0.082 C 
ATOM     10  C   UNL     1      -9.613   2.048  -3.848  0.00  0.00    -0.010 C 
ATOM     11  C   UNL     1      -5.512   4.381  -2.426  0.00  0.00    +0.247 C 
ATOM     12  O   UNL     1      -4.685   4.189  -1.556  0.00  0.00    -0.270 OA
ATOM     13  H   UNL     1      -9.494   2.249  -7.170  0.00  0.00    -0.086 HD
ATOM     14  H   UNL     1      -9.442   0.920  -6.200  0.00  0.00    -0.086 HD
ENDROOT
BRANCH  11  15
ATOM     15  C   UNL     1      -5.276   5.413  -3.454  0.00  0.00    +0.037 A 
ATOM     16  C   UNL     1      -6.350   5.948  -4.170  0.00  0.00    +0.016 A 
ATOM     17  C   UNL     1      -6.126   6.912  -5.128  0.00  0.00    +0.047 A 
ATOM     18  C   UNL     1      -4.832   7.351  -5.384  0.00  0.00    +0.130 A 
ATOM     19  C   UNL     1      -3.761   6.821  -4.675  0.00  0.00    +0.047 A 
ATOM     20  C   UNL     1      -3.978   5.862  -3.711  0.00  0.00    +0.016 A 
BRANCH  18  21
ATOM     21  O   UNL     1      -4.615   8.300  -6.330  0.00  0.00    -0.406 OA
BRANCH  21  22
ATOM     22  C   UNL     1      -3.262   8.706  -6.543  0.00  0.00    +0.575 C 
ATOM     23  F   UNL     1      -2.500   7.601  -6.937  0.00  0.00    -0.133 F 
ATOM     24  F   UNL     1      -3.220   9.683  -7.543  0.00  0.00    -0.133 F 
ATOM     25  F   UNL     1      -2.741   9.232  -5.356  0.00  0.00    -0.133 F 
ENDBRANCH  21  22
ENDBRANCH  18  21
ENDBRANCH  11  15
BRANCH   1  27
ATOM     26  N   UNL     1      -7.125  -0.830  -2.711  0.00  0.00    -0.315 N 
ATOM     27  C   UNL     1      -6.717   0.430  -2.462  0.00  0.00    +0.218 C 
ATOM     28  O   UNL     1      -5.533   0.683  -2.398  0.00  0.00    -0.275 OA
ATOM     29  H   UNL     1      -8.072  -1.032  -2.762  0.00  0.00    +0.149 HD
BRANCH  26  30
ATOM     30  C   UNL     1      -6.138  -1.895  -2.905  0.00  0.00    +0.109 C 
BRANCH  30  31
ATOM     31  C   UNL     1      -6.859  -3.218  -3.169  0.00  0.00    +0.057 C 
BRANCH  31  37
ATOM     32  C   UNL     1      -5.312  -4.975  -2.271  0.00  0.00    +0.124 A 
ATOM     33  C   UNL     1      -4.381  -5.987  -2.458  0.00  0.00    +0.046 A 
ATOM     34  C   UNL     1      -3.981  -6.328  -3.736  0.00  0.00    +0.004 A 
ATOM     35  C   UNL     1      -4.508  -5.662  -4.827  0.00  0.00    +0.000 A 
ATOM     36  C   UNL     1      -5.435  -4.654  -4.644  0.00  0.00    +0.007 A 
ATOM     37  C   UNL     1      -5.843  -4.313  -3.369  0.00  0.00    -0.004 A 
BRANCH  32  38
ATOM     38  O   UNL     1      -5.708  -4.638  -1.016  0.00  0.00    -0.492 OA
BRANCH  38  40
ATOM     39  C   UNL     1      -5.684  -4.847   1.392  0.00  0.00    +0.048 C 
ATOM     40  C   UNL     1      -5.120  -5.363   0.066  0.00  0.00    +0.225 C 
ENDBRANCH  38  40
ENDBRANCH  32  38
ENDBRANCH  31  37
ENDBRANCH  30  31
ENDBRANCH  26  30
ENDBRANCH   1  27
TORSDOF 9
