REMARK  Name = ZINC36029723
REMARK  12 active torsions:
REMARK  status: ('A' for Active; 'I' for Inactive)
REMARK    1  A    between atoms: C_1  and  C_2
REMARK    2  A    between atoms: C_2  and  C_3
REMARK    3  A    between atoms: C_2  and  C_4
REMARK    4  A    between atoms: C_4  and  C_5
REMARK    5  A    between atoms: N_9  and  C_28
REMARK    6  A    between atoms: C_17  and  C_19
REMARK    7  A    between atoms: C_28  and  C_29
REMARK    8  A    between atoms: C_29  and  C_30
REMARK    9  A    between atoms: C_33  and  O_38
REMARK   10  A    between atoms: C_34  and  O_36
REMARK   11  A    between atoms: O_36  and  C_37
REMARK   12  A    between atoms: O_38  and  C_39
REMARK                            x       y       z     vdW  Elec       q    Type
REMARK                         _______ _______ _______ _____ _____    ______ ____
ROOT
ATOM      1  C   UNL     1      -1.191  -1.496  -0.697  0.00  0.00    +0.019 C 
ATOM      2  C   UNL     1      -2.481  -2.248  -0.453  0.00  0.00    +0.200 C 
ATOM      3  O   UNL     1      -3.293  -2.001   0.413  0.00  0.00    -0.277 OA
ATOM      4  N   UNL     1      -2.576  -3.240  -1.363  0.00  0.00    -0.313 N 
ATOM      5  C   UNL     1      -1.398  -3.219  -2.234  0.00  0.00    +0.006 C 
ATOM      6  N   UNL     1      -0.773  -1.889  -2.064  0.00  0.00    +0.401 N 
ATOM      7  C   UNL     1      -0.411  -4.308  -1.815  0.00  0.00    +0.025 C 
ATOM      8  C   UNL     1      -1.079  -5.680  -1.956  0.00  0.00    +0.108 C 
ATOM      9  N   UNL     1      -1.596  -5.816  -3.324  0.00  0.00    -0.298 N 
ATOM     10  C   UNL     1      -2.494  -4.777  -3.848  0.00  0.00    +0.108 C 
ATOM     11  C   UNL     1      -1.815  -3.413  -3.691  0.00  0.00    +0.025 C 
ATOM     12  C   UNL     1      -1.252  -6.873  -4.086  0.00  0.00    +0.247 C 
ATOM     13  O   UNL     1      -1.604  -6.925  -5.249  0.00  0.00    -0.270 OA
ATOM     14  H   UNL     1      -1.130  -1.238  -2.747  0.00  0.00    -0.082 HD
ATOM     15  H   UNL     1       0.232  -1.955  -2.125  0.00  0.00    -0.082 HD
ENDROOT
BRANCH  12  16
ATOM     16  C   UNL     1      -0.450  -7.969  -3.508  0.00  0.00    +0.041 A 
ATOM     17  C   UNL     1      -0.724  -8.433  -2.219  0.00  0.00    +0.017 A 
ATOM     18  C   UNL     1       0.026  -9.456  -1.682  0.00  0.00    +0.050 A 
ATOM     19  C   UNL     1       1.055 -10.030  -2.417  0.00  0.00    +0.166 A 
ATOM     20  C   UNL     1       1.333  -9.571  -3.705  0.00  0.00    +0.167 A 
ATOM     21  C   UNL     1       0.582  -8.549  -4.251  0.00  0.00    +0.062 A 
ATOM     22  O   UNL     1       2.379 -10.291  -4.207  0.00  0.00    -0.453 OA
ATOM     23  C   UNL     1       2.999 -10.914  -3.067  0.00  0.00    +0.466 C 
ATOM     24  O   UNL     1       1.924 -11.036  -2.117  0.00  0.00    -0.453 OA
ENDBRANCH  12  16
BRANCH   1  25
ATOM     25  C   UNL     1      -1.433   0.013  -0.627  0.00  0.00    -0.004 C 
BRANCH  25  27
ATOM     26  C   UNL     1      -0.367   2.259  -0.880  0.00  0.00    +0.007 C 
ATOM     27  C   UNL     1      -0.108   0.752  -0.825  0.00  0.00    -0.018 C 
ATOM     28  C   UNL     1       0.831   0.438   0.342  0.00  0.00    +0.007 C 
ENDBRANCH  25  27
ENDBRANCH   1  25
BRANCH   4  29
ATOM     29  C   UNL     1      -3.685  -4.192  -1.463  0.00  0.00    +0.110 C 
BRANCH  29  30
ATOM     30  C   UNL     1      -4.781  -3.606  -2.355  0.00  0.00    +0.054 C 
BRANCH  30  31
ATOM     31  C   UNL     1      -5.880  -4.621  -2.535  0.00  0.00    -0.042 A 
ATOM     32  C   UNL     1      -5.822  -5.522  -3.583  0.00  0.00    +0.007 A 
ATOM     33  C   UNL     1      -6.828  -6.455  -3.751  0.00  0.00    +0.049 A 
ATOM     34  C   UNL     1      -7.896  -6.490  -2.869  0.00  0.00    +0.161 A 
ATOM     35  C   UNL     1      -7.954  -5.585  -1.815  0.00  0.00    +0.162 A 
ATOM     36  C   UNL     1      -6.940  -4.654  -1.648  0.00  0.00    +0.053 A 
BRANCH  35  37
ATOM     37  O   UNL     1      -9.000  -5.615  -0.947  0.00  0.00    -0.491 OA
ATOM     38  C   UNL     1      -8.993  -4.655   0.112  0.00  0.00    +0.277 C 
ENDBRANCH  35  37
BRANCH  34  39
ATOM     39  O   UNL     1      -8.886  -7.408  -3.035  0.00  0.00    -0.491 OA
ATOM     40  C   UNL     1      -8.761  -8.306  -4.139  0.00  0.00    +0.277 C 
ENDBRANCH  34  39
ENDBRANCH  30  31
ENDBRANCH  29  30
ENDBRANCH   4  29
TORSDOF 8
