REMARK  Name = ZINC12247964
REMARK  12 active torsions:
REMARK  status: ('A' for Active; 'I' for Inactive)
REMARK    1  A    between atoms: C_1  and  C_2
REMARK    2  A    between atoms: C_6  and  C_8
REMARK    3  A    between atoms: C_8  and  N_70
REMARK    4  A    between atoms: C_14  and  C_18
REMARK    5  A    between atoms: C_18  and  C_20
REMARK    6  A    between atoms: C_18  and  N_24
REMARK    7  A    between atoms: C_20  and  C_21
REMARK    8  A    between atoms: C_21  and  C_22
REMARK    9  A    between atoms: C_21  and  C_23
REMARK   10  A    between atoms: C_25  and  C_27
REMARK   11  A    between atoms: C_29  and  C_34
REMARK   12  A    between atoms: C_31  and  C_33
REMARK                            x       y       z     vdW  Elec       q    Type
REMARK                         _______ _______ _______ _____ _____    ______ ____
ROOT
ATOM      1  C   UNL     1      -2.286   1.647   1.356  0.00  0.00    -0.070 C 
ATOM      2  C   UNL     1      -2.278   0.183   0.904  0.00  0.00    +0.058 C 
ATOM      3  C   UNL     1      -2.493   0.133  -0.586  0.00  0.00    +0.132 A 
ATOM      4  N   UNL     1      -3.291  -0.650  -1.250  0.00  0.00    -0.134 NA
ATOM      5  N   UNL     1      -3.171  -0.420  -2.511  0.00  0.00    -0.132 NA
ATOM      6  C   UNL     1      -2.291   0.528  -2.704  0.00  0.00    +0.154 A 
ATOM      7  N   UNL     1      -1.848   0.913  -1.489  0.00  0.00    -0.315 N 
ATOM      8  C   UNL     1      -0.877   1.963  -1.181  0.00  0.00    +0.106 C 
ATOM      9  C   UNL     1      -0.177   1.629   0.141  0.00  0.00    -0.056 C 
ATOM     10  N   UNL     1      -0.933   2.237   1.261  0.00  0.00    +0.385 N 
ATOM     11  H   UNL     1      -1.023   3.245   1.090  0.00  0.00    -0.081 HD
ENDROOT
BRANCH  10  12
ATOM     12  C   UNL     1      -0.209   2.030   2.527  0.00  0.00    -0.022 C 
BRANCH  12  18
ATOM     13  C   UNL     1      -0.790   6.307   4.804  0.00  0.00    +0.065 C 
ATOM     14  C   UNL     1      -1.162   4.852   4.681  0.00  0.00    +0.038 A 
ATOM     15  C   UNL     1      -2.095   4.310   5.544  0.00  0.00    +0.023 A 
ATOM     16  C   UNL     1      -2.430   2.971   5.423  0.00  0.00    +0.003 A 
ATOM     17  C   UNL     1      -1.811   2.223   4.433  0.00  0.00    +0.021 A 
ATOM     18  C   UNL     1      -0.888   2.833   3.606  0.00  0.00    +0.025 A 
ATOM     19  N   UNL     1      -0.589   4.109   3.754  0.00  0.00    -0.259 NA
ENDBRANCH  12  18
ENDBRANCH  10  12
BRANCH   6  20
ATOM     20  C   UNL     1      -1.855   1.087  -4.034  0.00  0.00    +0.142 C 
BRANCH  20  21
ATOM     21  N   UNL     1      -3.036   1.455  -4.820  0.00  0.00    -0.301 N 
ATOM     22  C   UNL     1      -2.946   2.415  -5.761  0.00  0.00    +0.245 C 
ATOM     23  O   UNL     1      -1.867   2.908  -6.026  0.00  0.00    -0.270 OA
ATOM     24  H   UNL     1      -3.882   1.008  -4.662  0.00  0.00    +0.150 HD
BRANCH  22  25
ATOM     25  C   UNL     1      -4.160   2.870  -6.472  0.00  0.00    +0.037 A 
ATOM     26  C   UNL     1      -5.400   2.302  -6.175  0.00  0.00    +0.016 A 
ATOM     27  C   UNL     1      -6.530   2.734  -6.838  0.00  0.00    -0.049 A 
ATOM     28  C   UNL     1      -6.434   3.720  -7.804  0.00  0.00    +0.006 A 
ATOM     29  C   UNL     1      -5.207   4.283  -8.107  0.00  0.00    -0.049 A 
ATOM     30  C   UNL     1      -4.071   3.864  -7.448  0.00  0.00    +0.016 A 
ATOM     31  C   UNL     1      -5.113   5.356  -9.161  0.00  0.00    +0.044 C 
ATOM     32  C   UNL     1      -7.870   2.127  -6.513  0.00  0.00    +0.044 C 
ENDBRANCH  22  25
ENDBRANCH  20  21
BRANCH  20  33
ATOM     33  C   UNL     1      -1.048   0.031  -4.791  0.00  0.00    +0.033 C 
BRANCH  33  34
ATOM     34  C   UNL     1       0.259  -0.244  -4.044  0.00  0.00    -0.015 C 
ATOM     35  C   UNL     1       0.996  -1.405  -4.716  0.00  0.00    +0.007 C 
ATOM     36  C   UNL     1       1.139   1.007  -4.078  0.00  0.00    +0.007 C 
ENDBRANCH  33  34
ENDBRANCH  20  33
ENDBRANCH   6  20
TORSDOF 7
