REMARK  Name = ZINC04481710
REMARK  8 active torsions:
REMARK  status: ('A' for Active; 'I' for Inactive)
REMARK    1  A    between atoms: C_4  and  C_7
REMARK    2  A    between atoms: C_7  and  C_8
REMARK    3  A    between atoms: C_7  and  N_58
REMARK    4  A    between atoms: C_15  and  S_17
REMARK    5  A    between atoms: S_17  and  C_18
REMARK    6  A    between atoms: C_18  and  C_19
REMARK    7  A    between atoms: N_21  and  N_22
REMARK    8  A    between atoms: N_25  and  C_26
REMARK                            x       y       z     vdW  Elec       q    Type
REMARK                         _______ _______ _______ _____ _____    ______ ____
ROOT
ATOM      1  C   UNL     1       3.954   6.792   0.183  0.00  0.00    -0.065 C 
ATOM      2  C   UNL     1       2.625   6.024   0.061  0.00  0.00    +0.014 C 
ATOM      3  C   UNL     1       2.505   6.653  -1.339  0.00  0.00    -0.065 C 
ATOM      4  N   UNL     1       3.393   7.600  -0.811  0.00  0.00    +0.388 N 
ATOM      5  H   UNL     1       2.905   8.414  -0.419  0.00  0.00    -0.080 HD
ENDROOT
BRANCH   4   6
ATOM      6  C   UNL     1       4.415   8.072  -1.830  0.00  0.00    -0.007 C 
BRANCH   6  10
ATOM      7  C   UNL     1       2.627  10.454  -4.892  0.00  0.00    +0.000 A 
ATOM      8  C   UNL     1       3.557   9.486  -5.223  0.00  0.00    +0.000 A 
ATOM      9  C   UNL     1       4.136   8.716  -4.232  0.00  0.00    +0.002 A 
ATOM     10  C   UNL     1       3.784   8.912  -2.910  0.00  0.00    -0.057 A 
ATOM     11  C   UNL     1       2.850   9.876  -2.579  0.00  0.00    +0.002 A 
ATOM     12  C   UNL     1       2.275  10.650  -3.570  0.00  0.00    +0.000 A 
ENDBRANCH   6  10
BRANCH   6  13
ATOM     13  C   UNL     1       5.520   8.853  -1.167  0.00  0.00    -0.057 A 
ATOM     14  C   UNL     1       5.216   9.803  -0.210  0.00  0.00    +0.002 A 
ATOM     15  C   UNL     1       6.230  10.517   0.402  0.00  0.00    +0.000 A 
ATOM     16  C   UNL     1       7.547  10.287   0.050  0.00  0.00    +0.000 A 
ATOM     17  C   UNL     1       7.850   9.341  -0.911  0.00  0.00    +0.000 A 
ATOM     18  C   UNL     1       6.837   8.624  -1.519  0.00  0.00    +0.002 A 
ENDBRANCH   6  13
ENDBRANCH   4   6
BRANCH   2  19
ATOM     19  S   UNL     1       2.822   4.221   0.038  0.00  0.00    -0.152 S 
BRANCH  19  20
ATOM     20  C   UNL     1       1.120   3.593   0.043  0.00  0.00    +0.166 C 
BRANCH  20  21
ATOM     21  C   UNL     1       1.141   2.087   0.024  0.00  0.00    +0.239 C 
ATOM     22  O   UNL     1       2.199   1.495   0.009  0.00  0.00    -0.273 OA
ATOM     23  N   UNL     1      -0.017   1.397   0.025  0.00  0.00    -0.233 N 
ATOM     24  H   UNL     1      -0.864   1.870   0.032  0.00  0.00    +0.173 HD
BRANCH  23  25
ATOM     25  N   UNL     1       0.002  -0.004   0.007  0.00  0.00    -0.218 N 
ATOM     26  C   UNL     1      -1.156  -0.694   0.007  0.00  0.00    +0.320 C 
ATOM     27  O   UNL     1      -1.139  -1.909  -0.007  0.00  0.00    -0.251 OA
ATOM     28  N   UNL     1      -2.332  -0.036   0.024  0.00  0.00    -0.268 N 
ATOM     29  H   UNL     1       0.849  -0.477  -0.005  0.00  0.00    +0.174 HD
ATOM     30  H   UNL     1      -2.346   0.931   0.104  0.00  0.00    +0.156 HD
BRANCH  28  31
ATOM     31  C   UNL     1      -3.533  -0.747  -0.074  0.00  0.00    +0.035 A 
ATOM     32  C   UNL     1      -4.614  -0.199  -0.752  0.00  0.00    +0.023 A 
ATOM     33  C   UNL     1      -5.796  -0.905  -0.851  0.00  0.00    +0.002 A 
ATOM     34  C   UNL     1      -5.908  -2.154  -0.267  0.00  0.00    +0.000 A 
ATOM     35  C   UNL     1      -4.836  -2.701   0.414  0.00  0.00    +0.002 A 
ATOM     36  C   UNL     1      -3.649  -2.001   0.512  0.00  0.00    +0.023 A 
ENDBRANCH  28  31
ENDBRANCH  23  25
ENDBRANCH  20  21
ENDBRANCH  19  20
ENDBRANCH   2  19
TORSDOF 8
