REMARK  Name = ZINC12115974
REMARK  4 active torsions:
REMARK  status: ('A' for Active; 'I' for Inactive)
REMARK    1  A    between atoms: C_1  and  C_2
REMARK    2  A    between atoms: C_2  and  N_3
REMARK    3  A    between atoms: C_11  and  C_12
REMARK    4  A    between atoms: C_12  and  N_57
REMARK                            x       y       z     vdW  Elec       q    Type
REMARK                         _______ _______ _______ _____ _____    ______ ____
ROOT
ATOM      1  C   UNL     1       0.634   3.818   4.817  0.00  0.00    -0.076 C 
ATOM      2  C   UNL     1      -0.265   4.878   5.460  0.00  0.00    +0.013 C 
ATOM      3  C   UNL     1       0.386   6.253   5.304  0.00  0.00    +0.069 C 
ATOM      4  C   UNL     1       0.632   6.541   3.824  0.00  0.00    +0.013 C 
ATOM      5  C   UNL     1       1.501   5.431   3.228  0.00  0.00    -0.076 C 
ATOM      6  C   UNL     1      -0.511   7.313   5.891  0.00  0.00    +0.047 A 
ATOM      7  C   UNL     1      -1.548   7.953   5.339  0.00  0.00    +0.025 A 
ATOM      8  C   UNL     1      -2.071   8.828   6.316  0.00  0.00    +0.020 A 
ATOM      9  C   UNL     1      -1.319   8.691   7.431  0.00  0.00    +0.092 A 
ATOM     10  N   UNL     1      -0.348   7.781   7.177  0.00  0.00    -0.316 N 
ATOM     11  C   UNL     1       0.685   7.306   7.998  0.00  0.00    +0.067 A 
ATOM     12  C   UNL     1       0.716   7.572   9.353  0.00  0.00    +0.028 A 
ATOM     13  C   UNL     1       1.726   7.040  10.135  0.00  0.00    +0.002 A 
ATOM     14  C   UNL     1       2.702   6.245   9.562  0.00  0.00    +0.002 A 
ATOM     15  C   UNL     1       2.683   5.983   8.205  0.00  0.00    +0.025 A 
ATOM     16  C   UNL     1       1.681   6.519   7.411  0.00  0.00    +0.052 A 
ATOM     17  N   UNL     1       1.663   6.279   6.031  0.00  0.00    -0.331 N 
ATOM     18  H   UNL     1       2.495   6.130   5.555  0.00  0.00    +0.147 HD
ATOM     19  N   UNL     1       0.800   4.138   3.383  0.00  0.00    +0.385 N 
ATOM     20  H   UNL     1      -0.127   4.208   2.948  0.00  0.00    -0.081 HD
ENDROOT
BRANCH  19  21
ATOM     21  C   UNL     1       1.565   3.066   2.713  0.00  0.00    -0.003 C 
BRANCH  21  30
ATOM     22  N   UNL     1      -0.020   1.094   2.454  0.00  0.00    -0.329 N 
ATOM     23  C   UNL     1      -0.258  -0.091   3.121  0.00  0.00    +0.069 A 
ATOM     24  C   UNL     1      -1.149  -1.140   2.941  0.00  0.00    +0.028 A 
ATOM     25  C   UNL     1      -1.129  -2.210   3.811  0.00  0.00    +0.002 A 
ATOM     26  C   UNL     1      -0.225  -2.244   4.863  0.00  0.00    +0.002 A 
ATOM     27  C   UNL     1       0.665  -1.225   5.050  0.00  0.00    +0.030 A 
ATOM     28  C   UNL     1       0.659  -0.128   4.185  0.00  0.00    +0.089 A 
ATOM     29  N   UNL     1       1.388   1.016   4.118  0.00  0.00    -0.234 NA
ATOM     30  C   UNL     1       0.990   1.730   3.106  0.00  0.00    +0.094 A 
BRANCH  22  32
ATOM     31  C   UNL     1      -0.013   1.086   0.008  0.00  0.00    +0.027 C 
ATOM     32  C   UNL     1      -0.729   1.579   1.267  0.00  0.00    +0.120 C 
ENDBRANCH  22  32
ENDBRANCH  21  30
ENDBRANCH  19  21
TORSDOF 3
