REMARK  Name = ZINC35542574
REMARK  7 active torsions:
REMARK  status: ('A' for Active; 'I' for Inactive)
REMARK    1  A    between atoms: C_1  and  C_2
REMARK    2  A    between atoms: C_2  and  N_3
REMARK    3  A    between atoms: N_3  and  C_4
REMARK    4  A    between atoms: C_4  and  C_6
REMARK    5  A    between atoms: C_4  and  C_14
REMARK    6  A    between atoms: C_9  and  C_13
REMARK    7  A    between atoms: C_11  and  C_12
REMARK                            x       y       z     vdW  Elec       q    Type
REMARK                         _______ _______ _______ _____ _____    ______ ____
ROOT
ATOM      1  C   UNL     1       0.710  -1.947  -1.215  0.00  0.00    -0.003 C 
ENDROOT
BRANCH   1   2
ATOM      2  C   UNL     1       1.520  -2.432  -2.389  0.00  0.00    -0.054 A 
ATOM      3  C   UNL     1       1.757  -1.590  -3.460  0.00  0.00    +0.003 A 
ATOM      4  C   UNL     1       2.500  -2.035  -4.537  0.00  0.00    +0.003 A 
ATOM      5  C   UNL     1       3.007  -3.321  -4.543  0.00  0.00    -0.050 A 
ATOM      6  C   UNL     1       2.772  -4.162  -3.472  0.00  0.00    +0.007 A 
ATOM      7  C   UNL     1       2.032  -3.716  -2.393  0.00  0.00    -0.048 A 
ATOM      8  C   UNL     1       1.779  -4.631  -1.222  0.00  0.00    +0.044 C 
ATOM      9  C   UNL     1       3.817  -3.806  -5.718  0.00  0.00    +0.044 C 
ENDBRANCH   1   2
BRANCH   1  10
ATOM     10  C   UNL     1      -0.700  -2.467  -1.328  0.00  0.00    -0.019 A 
ATOM     11  C   UNL     1      -1.274  -3.520  -0.696  0.00  0.00    +0.011 A 
ATOM     12  C   UNL     1      -2.599  -3.818  -0.957  0.00  0.00    +0.023 A 
ATOM     13  C   UNL     1      -3.284  -3.047  -1.838  0.00  0.00    +0.055 A 
ATOM     14  S   UNL     1      -2.049  -1.853  -2.323  0.00  0.00    -0.088 S 
ATOM     15 BR   UNL     1      -5.084  -3.195  -2.400  0.00  0.00    -0.043 Br
ENDBRANCH   1  10
BRANCH   1  16
ATOM     16  N   UNL     1       0.690  -0.478  -1.207  0.00  0.00    +0.386 N 
ATOM     17  H   UNL     1       0.202  -0.144  -2.024  0.00  0.00    -0.085 HD
ATOM     18  H   UNL     1       1.636  -0.129  -1.214  0.00  0.00    -0.085 HD
BRANCH  16  20
ATOM     19  C   UNL     1      -0.019   1.526   0.010  0.00  0.00    -0.017 C 
ATOM     20  C   UNL     1       0.002  -0.004   0.002  0.00  0.00    -0.085 C 
ENDBRANCH  16  20
ENDBRANCH   1  16
TORSDOF 4
