REMARK  Name = ZINC16656445
REMARK  10 active torsions:
REMARK  status: ('A' for Active; 'I' for Inactive)
REMARK    1  A    between atoms: C_1  and  C_2
REMARK    2  A    between atoms: C_2  and  S_3
REMARK    3  A    between atoms: S_3  and  N_6
REMARK    4  A    between atoms: C_15  and  C_17
REMARK    5  A    between atoms: C_17  and  O_19
REMARK    6  A    between atoms: O_19  and  C_20
REMARK    7  A    between atoms: C_20  and  C_21
REMARK    8  A    between atoms: N_26  and  C_27
REMARK    9  A    between atoms: C_31  and  C_34
REMARK   10  A    between atoms: C_32  and  C_33
REMARK                            x       y       z     vdW  Elec       q    Type
REMARK                         _______ _______ _______ _____ _____    ______ ____
ROOT
ATOM      1  O   UNL     1      -5.520   1.789   0.107  0.00  0.00    -0.454 OA
ENDROOT
BRANCH   1   2
ATOM      2  C   UNL     1      -6.820   1.476   0.224  0.00  0.00    +0.327 C 
ATOM      3  O   UNL     1      -7.150   0.330   0.416  0.00  0.00    -0.249 OA
BRANCH   2  13
ATOM      4  N   UNL     1      -8.800   2.236  -0.976  0.00  0.00    -0.163 NA
ATOM      5  C   UNL     1      -9.841   3.224  -1.282  0.00  0.00    +0.145 C 
ATOM      6  C   UNL     1     -10.459   3.724  -0.001  0.00  0.00    -0.028 A 
ATOM      7  C   UNL     1     -11.622   4.477  -0.094  0.00  0.00    +0.005 A 
ATOM      8  C   UNL     1     -12.228   4.972   1.042  0.00  0.00    +0.000 A 
ATOM      9  C   UNL     1     -11.673   4.717   2.282  0.00  0.00    +0.000 A 
ATOM     10  C   UNL     1     -10.520   3.965   2.376  0.00  0.00    +0.004 A 
ATOM     11  C   UNL     1      -9.910   3.461   1.234  0.00  0.00    -0.041 A 
ATOM     12  C   UNL     1      -8.669   2.626   1.416  0.00  0.00    +0.067 C 
ATOM     13  C   UNL     1      -7.867   2.555   0.118  0.00  0.00    +0.192 C 
BRANCH   4  14
ATOM     14  S   UNL     1      -8.680   0.820  -1.826  0.00  0.00    +0.033 S 
ATOM     15  O   UNL     1      -9.422   1.048  -3.016  0.00  0.00    -0.158 OA
ATOM     16  O   UNL     1      -7.286   0.549  -1.882  0.00  0.00    -0.158 OA
BRANCH  14  18
ATOM     17  C   UNL     1      -9.636  -1.729  -1.569  0.00  0.00    +0.029 C 
ATOM     18  C   UNL     1      -9.516  -0.415  -0.794  0.00  0.00    +0.182 C 
ENDBRANCH  14  18
ENDBRANCH   4  14
ENDBRANCH   2  13
ENDBRANCH   1   2
BRANCH   1  19
ATOM     19  C   UNL     1      -4.567   0.700   0.220  0.00  0.00    +0.328 C 
BRANCH  19  20
ATOM     20  C   UNL     1      -3.168   1.238   0.063  0.00  0.00    +0.258 C 
ATOM     21  O   UNL     1      -2.992   2.422  -0.126  0.00  0.00    -0.272 OA
ATOM     22  N   UNL     1      -2.113   0.402   0.132  0.00  0.00    -0.237 N 
ATOM     23  C   UNL     1      -0.862   0.883  -0.009  0.00  0.00    +0.310 C 
ATOM     24  O   UNL     1      -0.685   2.071  -0.198  0.00  0.00    -0.252 OA
ATOM     25  N   UNL     1       0.194   0.048   0.061  0.00  0.00    -0.269 N 
ATOM     26  H   UNL     1      -2.254  -0.545   0.283  0.00  0.00    +0.159 HD
ATOM     27  H   UNL     1       0.051  -0.908   0.144  0.00  0.00    +0.156 HD
BRANCH  25  28
ATOM     28  C   UNL     1       1.495   0.559   0.007  0.00  0.00    +0.038 A 
ATOM     29  C   UNL     1       1.764   1.701  -0.735  0.00  0.00    +0.023 A 
ATOM     30  C   UNL     1       3.050   2.203  -0.786  0.00  0.00    +0.002 A 
ATOM     31  C   UNL     1       4.069   1.569  -0.099  0.00  0.00    +0.004 A 
ATOM     32  C   UNL     1       3.804   0.431   0.640  0.00  0.00    -0.046 A 
ATOM     33  C   UNL     1       2.519  -0.073   0.700  0.00  0.00    -0.026 A 
ATOM     34  C   UNL     1       2.231  -1.309   1.512  0.00  0.00    +0.046 C 
ATOM     35  C   UNL     1       4.918  -0.257   1.387  0.00  0.00    +0.044 C 
ENDBRANCH  25  28
ENDBRANCH  19  20
ENDBRANCH   1  19
TORSDOF 7
