REMARK  Name = ZINC64648568
REMARK  5 active torsions:
REMARK  status: ('A' for Active; 'I' for Inactive)
REMARK    1  A    between atoms: C_7  and  C_10
REMARK    2  A    between atoms: C_10  and  C_11
REMARK    3  A    between atoms: C_11  and  C_12
REMARK    4  A    between atoms: C_14  and  C_17
REMARK    5  A    between atoms: N_32  and  C_33
REMARK                            x       y       z     vdW  Elec       q    Type
REMARK                         _______ _______ _______ _____ _____    ______ ____
ROOT
ATOM      1  C   UNL     1      -3.752  -6.335  -1.587  0.00  0.00    +0.024 A 
ATOM      2  C   UNL     1      -4.698  -5.319  -1.704  0.00  0.00    +0.013 A 
ATOM      3  C   UNL     1      -6.039  -5.627  -1.771  0.00  0.00    +0.025 A 
ATOM      4  C   UNL     1      -6.467  -6.954  -1.724  0.00  0.00    +0.051 A 
ATOM      5  C   UNL     1      -5.520  -7.969  -1.609  0.00  0.00    +0.035 A 
ATOM      6  C   UNL     1      -4.171  -7.664  -1.545  0.00  0.00    +0.028 A 
ATOM      7  S   UNL     1      -6.028  -9.656  -1.553  0.00  0.00    -0.087 S 
ATOM      8  C   UNL     1      -6.858  -9.892  -3.089  0.00  0.00    +0.025 A 
ATOM      9  C   UNL     1      -6.397 -10.847  -3.986  0.00  0.00    +0.016 A 
ATOM     10  C   UNL     1      -7.048 -11.037  -5.188  0.00  0.00    +0.001 A 
ATOM     11  C   UNL     1      -8.162 -10.276  -5.504  0.00  0.00    +0.001 A 
ATOM     12  C   UNL     1      -8.630  -9.325  -4.627  0.00  0.00    +0.014 A 
ATOM     13  C   UNL     1      -7.983  -9.116  -3.401  0.00  0.00    +0.051 A 
ATOM     14  C   UNL     1      -8.491  -8.097  -2.486  0.00  0.00    +0.252 C 
ATOM     15  O   UNL     1      -9.699  -8.067  -2.353  0.00  0.00    -0.270 OA
ATOM     16  N   UNL     1      -7.827  -7.213  -1.791  0.00  0.00    -0.263 N 
ENDROOT
BRANCH   1  19
ATOM     17  C   UNL     1      -0.484  -4.830  -1.460  0.00  0.00    +0.228 A 
ATOM     18  N   UNL     1      -1.783  -4.767  -1.545  0.00  0.00    -0.191 NA
ATOM     19  C   UNL     1      -2.307  -6.005  -1.514  0.00  0.00    +0.202 A 
ATOM     20  N   UNL     1      -1.329  -6.872  -1.408  0.00  0.00    -0.056 NA
ATOM     21  O   UNL     1      -0.127  -6.118  -1.377  0.00  0.00    -0.338 OA
BRANCH  17  22
ATOM     22  C   UNL     1       0.457  -3.653  -1.462  0.00  0.00    +0.103 C 
BRANCH  22  23
ATOM     23  C   UNL     1       0.691  -3.186  -0.024  0.00  0.00    +0.042 C 
BRANCH  23  30
ATOM     24  C   UNL     1      -0.016   1.348   0.009  0.00  0.00    +0.001 A 
ATOM     25  C   UNL     1       1.166   2.101   0.002  0.00  0.00    +0.002 A 
ATOM     26  C   UNL     1       2.391   1.535  -0.013  0.00  0.00    +0.026 A 
ATOM     27  C   UNL     1       2.529   0.120  -0.022  0.00  0.00    +0.043 A 
ATOM     28  N   UNL     1       3.587  -0.654  -0.037  0.00  0.00    -0.380 N 
ATOM     29  C   UNL     1       3.143  -2.053  -0.041  0.00  0.00    +0.144 C 
ATOM     30  C   UNL     1       1.631  -2.008  -0.025  0.00  0.00    -0.041 C 
ATOM     31  C   UNL     1       1.295  -0.698  -0.014  0.00  0.00    -0.001 A 
ATOM     32  C   UNL     1       0.002  -0.004   0.002  0.00  0.00    +0.010 A 
ATOM     33  H   UNL     1       4.509  -0.353  -0.045  0.00  0.00    +0.160 HD
ENDBRANCH  23  30
ENDBRANCH  22  23
ENDBRANCH  17  22
ENDBRANCH   1  19
BRANCH  16  34
ATOM     34  C   UNL     1      -8.656  -6.353  -0.942  0.00  0.00    +0.082 C 
ATOM     35  C   UNL     1      -9.492  -7.215   0.026  0.00  0.00    +0.023 C 
ATOM     36  C   UNL     1     -10.850  -6.475   0.117  0.00  0.00    +0.002 C 
ATOM     37  C   UNL     1     -11.066  -5.977  -1.334  0.00  0.00    +0.002 C 
ATOM     38  C   UNL     1      -9.656  -5.566  -1.807  0.00  0.00    +0.023 C 
ENDBRANCH  16  34
TORSDOF 5
