REMARK  Name = ZINC01051504
REMARK  4 active torsions:
REMARK  status: ('A' for Active; 'I' for Inactive)
REMARK    1  A    between atoms: C_3  and  O_25
REMARK    2  A    between atoms: C_6  and  C_7
REMARK    3  A    between atoms: C_10  and  C_18
REMARK    4  A    between atoms: O_25  and  C_26
REMARK                            x       y       z     vdW  Elec       q    Type
REMARK                         _______ _______ _______ _____ _____    ______ ____
ROOT
ATOM      1  C   UNL     1      -1.293  -0.774   0.011  0.00  0.00    +0.143 C 
ATOM      2  C   UNL     1      -1.351  -1.669   1.255  0.00  0.00    +0.058 C 
ATOM      3  C   UNL     1      -2.523  -2.650   1.133  0.00  0.00    +0.106 C 
ATOM      4  N   UNL     1      -2.290  -3.519  -0.036  0.00  0.00    -0.307 N 
ATOM      5  C   UNL     1      -1.833  -2.891  -1.188  0.00  0.00    +0.215 A 
ATOM      6  N   UNL     1      -1.372  -1.615  -1.183  0.00  0.00    -0.226 N 
ATOM      7  N   UNL     1      -1.010  -1.317  -2.498  0.00  0.00    -0.156 NA
ATOM      8  C   UNL     1      -1.261  -2.386  -3.211  0.00  0.00    +0.247 A 
ATOM      9  N   UNL     1      -1.758  -3.343  -2.410  0.00  0.00    -0.202 NA
ATOM     10  H   UNL     1      -2.447  -4.476  -0.003  0.00  0.00    +0.149 HD
ENDROOT
BRANCH   3  11
ATOM     11  C   UNL     1      -3.807  -1.883   0.950  0.00  0.00    -0.027 A 
ATOM     12  C   UNL     1      -4.145  -1.389  -0.296  0.00  0.00    +0.007 A 
ATOM     13  C   UNL     1      -5.323  -0.685  -0.464  0.00  0.00    +0.020 A 
ATOM     14  C   UNL     1      -6.164  -0.476   0.615  0.00  0.00    +0.041 A 
ATOM     15  C   UNL     1      -5.824  -0.971   1.862  0.00  0.00    +0.020 A 
ATOM     16  C   UNL     1      -4.649  -1.679   2.027  0.00  0.00    +0.007 A 
ATOM     17 CL   UNL     1      -7.643   0.408   0.405  0.00  0.00    -0.084 Cl
ENDBRANCH   3  11
BRANCH   1  23
ATOM     18  C   UNL     1      -0.017   1.378   0.010  0.00  0.00    +0.009 A 
ATOM     19  C   UNL     1       1.169   2.087   0.002  0.00  0.00    +0.046 A 
ATOM     20  C   UNL     1       2.380   1.409  -0.013  0.00  0.00    +0.127 A 
ATOM     21  C   UNL     1       2.396   0.022  -0.021  0.00  0.00    +0.046 A 
ATOM     22  C   UNL     1       1.207  -0.681  -0.013  0.00  0.00    +0.009 A 
ATOM     23  C   UNL     1       0.002  -0.004   0.002  0.00  0.00    -0.023 A 
BRANCH  20  24
ATOM     24  O   UNL     1       3.548   2.104  -0.021  0.00  0.00    -0.434 OA
BRANCH  24  25
ATOM     25  C   UNL     1       4.756   1.341  -0.036  0.00  0.00    +0.541 C 
ATOM     26  F   UNL     1       4.810   0.528   1.101  0.00  0.00    -0.166 F 
ATOM     27  F   UNL     1       4.787   0.540  -1.183  0.00  0.00    -0.166 F 
ENDBRANCH  24  25
ENDBRANCH  20  24
ENDBRANCH   1  23
TORSDOF 4
