REMARK  Name = ZINC33069311
REMARK  11 active torsions:
REMARK  status: ('A' for Active; 'I' for Inactive)
REMARK    1  A    between atoms: C_1  and  C_2
REMARK    2  A    between atoms: C_3  and  N_32
REMARK    3  A    between atoms: C_4  and  N_13
REMARK    4  A    between atoms: N_5  and  C_7
REMARK    5  A    between atoms: C_16  and  C_19
REMARK    6  A    between atoms: N_21  and  C_22
REMARK    7  A    between atoms: C_22  and  C_23
REMARK    8  A    between atoms: C_23  and  C_24
REMARK    9  A    between atoms: C_24  and  C_26
REMARK   10  A    between atoms: C_24  and  N_27
REMARK   11  A    between atoms: C_33  and  C_35
REMARK                            x       y       z     vdW  Elec       q    Type
REMARK                         _______ _______ _______ _____ _____    ______ ____
ROOT
ATOM      1  N   UNL     1       2.749   1.206   0.046  0.00  0.00    -0.314 N 
ATOM      2  C   UNL     1       2.764  -0.167  -0.475  0.00  0.00    +0.107 C 
ATOM      3  C   UNL     1       2.646  -0.137  -2.000  0.00  0.00    +0.031 C 
ATOM      4  C   UNL     1       1.342   0.563  -2.392  0.00  0.00    +0.078 C 
ATOM      5  C   UNL     1       1.330   1.974  -1.797  0.00  0.00    +0.031 C 
ATOM      6  C   UNL     1       1.486   1.882  -0.277  0.00  0.00    +0.107 C 
ENDROOT
BRANCH   1  10
ATOM      7  C   UNL     1       2.371   0.312   4.947  0.00  0.00    +0.069 C 
ATOM      8  C   UNL     1       2.844   0.841   3.618  0.00  0.00    +0.083 A 
ATOM      9  C   UNL     1       2.273   0.551   2.372  0.00  0.00    +0.097 A 
ATOM     10  C   UNL     1       2.986   1.222   1.420  0.00  0.00    +0.147 A 
ATOM     11  N   UNL     1       3.977   1.905   2.060  0.00  0.00    -0.216 N 
ATOM     12  N   UNL     1       3.856   1.650   3.432  0.00  0.00    -0.168 NA
BRANCH  11  13
ATOM     13  C   UNL     1       4.942   2.720   1.454  0.00  0.00    +0.067 A 
ATOM     14  C   UNL     1       5.489   2.358   0.230  0.00  0.00    +0.028 A 
ATOM     15  C   UNL     1       6.436   3.166  -0.368  0.00  0.00    +0.002 A 
ATOM     16  C   UNL     1       6.847   4.329   0.256  0.00  0.00    +0.000 A 
ATOM     17  C   UNL     1       6.309   4.690   1.478  0.00  0.00    +0.002 A 
ATOM     18  C   UNL     1       5.357   3.889   2.078  0.00  0.00    +0.028 A 
ENDBRANCH  11  13
BRANCH   9  19
ATOM     19  N   UNL     1       1.159  -0.285   2.141  0.00  0.00    -0.282 N 
ATOM     20  C   UNL     1       1.168  -1.556   2.588  0.00  0.00    +0.214 C 
ATOM     21  O   UNL     1       2.108  -1.966   3.235  0.00  0.00    -0.276 OA
ATOM     22  C   UNL     1       0.008  -2.470   2.283  0.00  0.00    +0.109 C 
ATOM     23  H   UNL     1       0.285   0.102   1.597  0.00  0.00    +0.155 HD
ENDBRANCH   9  19
ENDBRANCH   1  10
BRANCH   4  24
ATOM     24  C   UNL     1       1.248   0.648  -3.894  0.00  0.00    +0.216 C 
ATOM     25  O   UNL     1       2.136   0.194  -4.584  0.00  0.00    -0.276 OA
ATOM     26  N   UNL     1       0.177   1.229  -4.471  0.00  0.00    -0.315 N 
ATOM     27  H   UNL     1      -0.628   1.641  -3.845  0.00  0.00    +0.149 HD
BRANCH  26  28
ATOM     28  C   UNL     1       0.086   1.312  -5.930  0.00  0.00    +0.102 C 
BRANCH  28  29
ATOM     29  C   UNL     1      -1.217   2.012  -6.321  0.00  0.00    +0.003 C 
BRANCH  29  30
ATOM     30  C   UNL     1      -1.339   2.050  -7.846  0.00  0.00    -0.070 C 
ATOM     31  C   UNL     1      -1.480   0.625  -8.382  0.00  0.00    -0.013 C 
BRANCH  30  32
ATOM     32  N   UNL     1      -2.521   2.835  -8.223  0.00  0.00    +0.381 N 
ATOM     33  C   UNL     1      -2.451   4.208  -7.660  0.00  0.00    -0.079 C 
ATOM     34  C   UNL     1      -3.434   5.008  -8.552  0.00  0.00    -0.020 C 
ATOM     35  C   UNL     1      -3.205   4.396  -9.953  0.00  0.00    -0.020 C 
ATOM     36  C   UNL     1      -2.598   3.005  -9.691  0.00  0.00    -0.079 C 
ATOM     37  H   UNL     1      -3.387   2.278  -7.836  0.00  0.00    -0.081 HD
ENDBRANCH  30  32
ENDBRANCH  29  30
ENDBRANCH  28  29
ENDBRANCH  26  28
ENDBRANCH   4  24
TORSDOF 8
