REMARK  Name = ZINC03465223
REMARK  9 active torsions:
REMARK  status: ('A' for Active; 'I' for Inactive)
REMARK    1  A    between atoms: C_1  and  C_2
REMARK    2  A    between atoms: C_2  and  C_3
REMARK    3  A    between atoms: C_3  and  C_4
REMARK    4  A    between atoms: C_4  and  C_26
REMARK    5  A    between atoms: N_7  and  C_11
REMARK    6  A    between atoms: C_11  and  C_12
REMARK    7  A    between atoms: N_14  and  C_15
REMARK    8  A    between atoms: C_15  and  C_17
REMARK    9  A    between atoms: C_15  and  C_18
REMARK                            x       y       z     vdW  Elec       q    Type
REMARK                         _______ _______ _______ _____ _____    ______ ____
ROOT
ATOM      1  C   UNL     1       0.497  -2.187  -2.525  0.00  0.00    +0.138 C 
ATOM      2  C   UNL     1      -0.892  -2.766  -2.338  0.00  0.00    +0.251 C 
ATOM      3  O   UNL     1      -1.789  -2.794  -3.153  0.00  0.00    -0.272 OA
ATOM      4  N   UNL     1      -0.921  -3.243  -1.078  0.00  0.00    -0.215 N 
ATOM      5  C   UNL     1       0.244  -3.048  -0.450  0.00  0.00    +0.310 C 
ATOM      6  O   UNL     1       0.460  -3.393   0.695  0.00  0.00    -0.252 OA
ATOM      7  N   UNL     1       1.150  -2.428  -1.227  0.00  0.00    -0.281 N 
ATOM      8  H   UNL     1       2.057  -2.187  -0.981  0.00  0.00    +0.152 HD
ENDROOT
BRANCH   1   9
ATOM      9  C   UNL     1       1.230  -2.905  -3.629  0.00  0.00    -0.015 A 
ATOM     10  C   UNL     1       1.186  -2.414  -4.921  0.00  0.00    +0.006 A 
ATOM     11  C   UNL     1       1.859  -3.072  -5.933  0.00  0.00    +0.000 A 
ATOM     12  C   UNL     1       2.575  -4.221  -5.654  0.00  0.00    +0.000 A 
ATOM     13  C   UNL     1       2.619  -4.712  -4.362  0.00  0.00    +0.000 A 
ATOM     14  C   UNL     1       1.950  -4.051  -3.349  0.00  0.00    +0.006 A 
ENDBRANCH   1   9
BRANCH   1  15
ATOM     15  C   UNL     1       0.419  -0.687  -2.819  0.00  0.00    +0.040 C 
BRANCH  15  17
ATOM     16  C   UNL     1      -0.342   1.526  -1.945  0.00  0.00    +0.004 C 
ATOM     17  C   UNL     1      -0.265   0.026  -1.651  0.00  0.00    -0.000 C 
ENDBRANCH  15  17
ENDBRANCH   1  15
BRANCH   4  18
ATOM     18  C   UNL     1      -2.084  -3.894  -0.471  0.00  0.00    +0.213 C 
BRANCH  18  19
ATOM     19  C   UNL     1      -2.022  -5.378  -0.730  0.00  0.00    +0.231 C 
ATOM     20  O   UNL     1      -1.096  -5.845  -1.359  0.00  0.00    -0.274 OA
ATOM     21  N   UNL     1      -2.994  -6.185  -0.262  0.00  0.00    -0.307 N 
ATOM     22  H   UNL     1      -3.735  -5.811   0.241  0.00  0.00    +0.149 HD
BRANCH  21  23
ATOM     23  C   UNL     1      -2.933  -7.627  -0.514  0.00  0.00    +0.102 C 
ATOM     24  C   UNL     1      -2.114  -8.302   0.588  0.00  0.00    +0.033 C 
BRANCH  23  25
ATOM     25  C   UNL     1      -4.329  -8.195  -0.521  0.00  0.00    -0.009 A 
ATOM     26  C   UNL     1      -5.331  -7.577   0.205  0.00  0.00    +0.008 A 
ATOM     27  C   UNL     1      -6.611  -8.097   0.199  0.00  0.00    +0.020 A 
ATOM     28  C   UNL     1      -6.891  -9.237  -0.534  0.00  0.00    +0.042 A 
ATOM     29  C   UNL     1      -5.890  -9.855  -1.261  0.00  0.00    +0.040 A 
ATOM     30  C   UNL     1      -4.610  -9.331  -1.258  0.00  0.00    +0.047 A 
ATOM     31 CL   UNL     1      -3.354 -10.103  -2.175  0.00  0.00    -0.083 Cl
ATOM     32 CL   UNL     1      -8.500  -9.890  -0.542  0.00  0.00    -0.083 Cl
ENDBRANCH  23  25
ENDBRANCH  21  23
ENDBRANCH  18  19
ENDBRANCH   4  18
TORSDOF 7
