REMARK  Name = ZINC12888743
REMARK  8 active torsions:
REMARK  status: ('A' for Active; 'I' for Inactive)
REMARK    1  A    between atoms: C_1  and  C_2
REMARK    2  A    between atoms: C_2  and  C_4
REMARK    3  A    between atoms: C_2  and  S_14
REMARK    4  A    between atoms: N_10  and  C_11
REMARK    5  A    between atoms: N_10  and  C_12
REMARK    6  A    between atoms: S_14  and  C_15
REMARK    7  A    between atoms: C_17  and  C_20
REMARK    8  A    between atoms: C_21  and  C_22
REMARK                            x       y       z     vdW  Elec       q    Type
REMARK                         _______ _______ _______ _____ _____    ______ ____
ROOT
ATOM      1  S   UNL     1      -1.700  -0.632   0.015  0.00  0.00    -0.073 S 
ENDROOT
BRANCH   1   2
ATOM      2  C   UNL     1      -2.365  -0.093  -1.525  0.00  0.00    +0.210 A 
ATOM      3  N   UNL     1      -3.606  -0.324  -1.953  0.00  0.00    -0.202 NA
ATOM      4  C   UNL     1      -3.775   0.220  -3.147  0.00  0.00    +0.150 A 
ATOM      5  N   UNL     1      -2.604   0.818  -3.498  0.00  0.00    -0.258 N 
ATOM      6  N   UNL     1      -1.717   0.603  -2.432  0.00  0.00    -0.145 NA
ATOM      7  H   UNL     1      -2.421   1.299  -4.320  0.00  0.00    +0.191 HD
BRANCH   4   8
ATOM      8  C   UNL     1      -5.003   0.183  -3.948  0.00  0.00    +0.048 C 
ATOM      9  C   UNL     1      -6.095  -0.447  -3.478  0.00  0.00    +0.011 C 
BRANCH   9  10
ATOM     10  C   UNL     1      -7.328  -0.483  -4.282  0.00  0.00    -0.025 A 
ATOM     11  C   UNL     1      -7.365   0.131  -5.538  0.00  0.00    +0.011 A 
ATOM     12  C   UNL     1      -8.522   0.093  -6.286  0.00  0.00    +0.039 A 
ATOM     13  C   UNL     1      -9.648  -0.551  -5.796  0.00  0.00    +0.123 A 
ATOM     14  C   UNL     1      -9.617  -1.161  -4.551  0.00  0.00    +0.039 A 
ATOM     15  C   UNL     1      -8.464  -1.137  -3.796  0.00  0.00    +0.011 A 
ATOM     16  F   UNL     1     -10.779  -0.584  -6.534  0.00  0.00    -0.205 F 
ENDBRANCH   9  10
ENDBRANCH   4   8
ENDBRANCH   1   2
BRANCH   1  18
ATOM     17  C   UNL     1      -0.019   1.526   0.010  0.00  0.00    +0.028 C 
ATOM     18  C   UNL     1       0.002  -0.004   0.002  0.00  0.00    +0.119 C 
BRANCH  18  19
ATOM     19  C   UNL     1       0.731  -0.503   1.223  0.00  0.00    +0.149 A 
ATOM     20  N   UNL     1       0.141  -0.463   2.405  0.00  0.00    -0.198 NA
ATOM     21  C   UNL     1       0.781  -0.903   3.486  0.00  0.00    +0.217 A 
ATOM     22  N   UNL     1       2.015  -1.384   3.375  0.00  0.00    -0.181 NA
ATOM     23  C   UNL     1       2.605  -1.423   2.185  0.00  0.00    +0.222 A 
ATOM     24  N   UNL     1       1.956  -0.985   1.108  0.00  0.00    -0.198 NA
ATOM     25  N   UNL     1       3.886  -1.921   2.064  0.00  0.00    -0.306 N 
ATOM     26  C   UNL     1       4.597  -2.407   3.249  0.00  0.00    +0.132 C 
ATOM     27  C   UNL     1       4.535  -1.963   0.752  0.00  0.00    +0.132 C 
ATOM     28  N   UNL     1       0.165  -0.860   4.719  0.00  0.00    -0.327 N 
ATOM     29  H   UNL     1      -0.736  -0.509   4.800  0.00  0.00    +0.145 HD
ATOM     30  H   UNL     1       0.632  -1.181   5.506  0.00  0.00    +0.145 HD
ENDBRANCH  18  19
ENDBRANCH   1  18
TORSDOF 5
