REMARK  Name = ZINC40795001
REMARK  7 active torsions:
REMARK  status: ('A' for Active; 'I' for Inactive)
REMARK    1  A    between atoms: C_1  and  C_2
REMARK    2  A    between atoms: C_3  and  C_7
REMARK    3  A    between atoms: C_7  and  O_8
REMARK    4  A    between atoms: O_8  and  C_9
REMARK    5  A    between atoms: C_13  and  C_15
REMARK    6  A    between atoms: N_17  and  C_18
REMARK    7  A    between atoms: C_19  and  C_27
REMARK                            x       y       z     vdW  Elec       q    Type
REMARK                         _______ _______ _______ _____ _____    ______ ____
ROOT
ATOM      1  C   UNL     1       4.289   1.812  -6.445  0.00  0.00    +0.249 C 
ATOM      2  O   UNL     1       5.264   1.505  -5.788  0.00  0.00    -0.270 OA
ATOM      3  N   UNL     1       4.443   2.387  -7.653  0.00  0.00    -0.275 N 
ATOM      4  H   UNL     1       3.665   2.632  -8.177  0.00  0.00    +0.156 HD
ENDROOT
BRANCH   3   5
ATOM      5  C   UNL     1       5.715   2.630  -8.148  0.00  0.00    +0.085 A 
ATOM      6  C   UNL     1       6.063   3.213  -9.356  0.00  0.00    +0.068 A 
ATOM      7  C   UNL     1       7.480   3.356  -9.641  0.00  0.00    -0.023 A 
ATOM      8  C   UNL     1       8.289   2.889  -8.666  0.00  0.00    -0.004 A 
ATOM      9  S   UNL     1       7.188   2.292  -7.417  0.00  0.00    -0.077 S 
ATOM     10  C   UNL     1       9.787   2.892  -8.662  0.00  0.00    +0.043 C 
ATOM     11  C   UNL     1      10.272   3.160 -10.094  0.00  0.00    +0.005 C 
ATOM     12  C   UNL     1       9.506   4.358 -10.661  0.00  0.00    +0.005 C 
ATOM     13  C   UNL     1       8.046   3.972 -10.912  0.00  0.00    +0.037 C 
BRANCH   6  14
ATOM     14  C   UNL     1       5.043   3.667 -10.307  0.00  0.00    +0.244 C 
ATOM     15  O   UNL     1       4.616   4.805 -10.245  0.00  0.00    -0.270 OA
ATOM     16  N   UNL     1       4.579   2.823 -11.250  0.00  0.00    -0.325 N 
ATOM     17  H   UNL     1       4.919   1.916 -11.300  0.00  0.00    +0.145 HD
ATOM     18  H   UNL     1       3.904   3.123 -11.879  0.00  0.00    +0.145 HD
ENDBRANCH   6  14
ENDBRANCH   3   5
BRANCH   1  23
ATOM     19  C   UNL     1       1.495   0.716  -4.180  0.00  0.00    +0.122 A 
ATOM     20  C   UNL     1       0.385   1.069  -4.935  0.00  0.00    +0.046 A 
ATOM     21  C   UNL     1       0.545   1.660  -6.175  0.00  0.00    +0.004 A 
ATOM     22  C   UNL     1       1.810   1.904  -6.670  0.00  0.00    +0.013 A 
ATOM     23  C   UNL     1       2.932   1.553  -5.918  0.00  0.00    +0.040 A 
ATOM     24  C   UNL     1       2.769   0.961  -4.664  0.00  0.00    +0.058 A 
BRANCH  19  25
ATOM     25  O   UNL     1       1.332   0.135  -2.962  0.00  0.00    -0.486 OA
BRANCH  25  26
ATOM     26  C   UNL     1      -0.010  -0.089  -2.525  0.00  0.00    +0.287 C 
BRANCH  26  29
ATOM     27  C   UNL     1      -0.018   1.503   0.010  0.00  0.00    +0.068 C 
ATOM     28  C   UNL     1       0.002  -0.004   0.002  0.00  0.00    +0.073 A 
ATOM     29  C   UNL     1       0.006  -0.736  -1.164  0.00  0.00    +0.110 A 
ATOM     30  N   UNL     1       0.025  -2.039  -1.005  0.00  0.00    -0.192 NA
ATOM     31  S   UNL     1       0.036  -2.246   0.597  0.00  0.00    +0.116 S 
ATOM     32  N   UNL     1       0.023  -0.714   1.105  0.00  0.00    -0.196 NA
ENDBRANCH  26  29
ENDBRANCH  25  26
ENDBRANCH  19  25
ENDBRANCH   1  23
TORSDOF 6
