REMARK  Name = ZINC36029684
REMARK  12 active torsions:
REMARK  status: ('A' for Active; 'I' for Inactive)
REMARK    1  A    between atoms: C_1  and  C_2
REMARK    2  A    between atoms: C_2  and  C_3
REMARK    3  A    between atoms: C_2  and  C_4
REMARK    4  A    between atoms: C_4  and  C_5
REMARK    5  A    between atoms: N_9  and  C_24
REMARK    6  A    between atoms: C_17  and  C_19
REMARK    7  A    between atoms: C_24  and  C_25
REMARK    8  A    between atoms: C_25  and  C_26
REMARK    9  A    between atoms: C_29  and  O_34
REMARK   10  A    between atoms: C_30  and  O_32
REMARK   11  A    between atoms: O_32  and  C_33
REMARK   12  A    between atoms: O_34  and  C_35
REMARK                            x       y       z     vdW  Elec       q    Type
REMARK                         _______ _______ _______ _____ _____    ______ ____
ROOT
ATOM      1  C   UNL     1       1.907   0.225  -1.350  0.00  0.00    +0.019 C 
ATOM      2  C   UNL     1       2.824  -0.363  -2.401  0.00  0.00    +0.200 C 
ATOM      3  O   UNL     1       2.749  -1.482  -2.861  0.00  0.00    -0.277 OA
ATOM      4  N   UNL     1       3.739   0.570  -2.739  0.00  0.00    -0.313 N 
ATOM      5  C   UNL     1       3.505   1.790  -1.962  0.00  0.00    +0.006 C 
ATOM      6  N   UNL     1       2.130   1.689  -1.425  0.00  0.00    +0.401 N 
ATOM      7  C   UNL     1       3.621   3.019  -2.860  0.00  0.00    +0.025 C 
ATOM      8  C   UNL     1       5.038   3.094  -3.439  0.00  0.00    +0.108 C 
ATOM      9  N   UNL     1       6.003   3.051  -2.333  0.00  0.00    -0.295 N 
ATOM     10  C   UNL     1       5.926   1.945  -1.369  0.00  0.00    +0.108 C 
ATOM     11  C   UNL     1       4.502   1.880  -0.807  0.00  0.00    +0.025 C 
ATOM     12  C   UNL     1       6.943   4.009  -2.204  0.00  0.00    +0.282 C 
ATOM     13  O   UNL     1       6.926   4.981  -2.936  0.00  0.00    -0.267 OA
ATOM     14  H   UNL     1       1.469   2.118  -2.056  0.00  0.00    -0.082 HD
ATOM     15  H   UNL     1       2.072   2.106  -0.508  0.00  0.00    -0.082 HD
ENDROOT
BRANCH  12  16
ATOM     16  C   UNL     1       7.987   3.879  -1.182  0.00  0.00    +0.189 A 
ATOM     17  C   UNL     1       8.911   4.830  -0.854  0.00  0.00    +0.054 A 
ATOM     18  C   UNL     1       9.705   4.284   0.167  0.00  0.00    +0.042 A 
ATOM     19  C   UNL     1       9.237   3.041   0.414  0.00  0.00    +0.196 A 
ATOM     20  O   UNL     1       8.199   2.802  -0.398  0.00  0.00    -0.458 OA
ENDBRANCH  12  16
BRANCH   1  21
ATOM     21  C   UNL     1       0.449  -0.109  -1.669  0.00  0.00    -0.004 C 
BRANCH  21  23
ATOM     22  C   UNL     1      -1.925   0.314  -1.012  0.00  0.00    +0.007 C 
ATOM     23  C   UNL     1      -0.462   0.521  -0.614  0.00  0.00    -0.018 C 
ATOM     24  C   UNL     1      -0.204  -0.139   0.743  0.00  0.00    +0.007 C 
ENDBRANCH  21  23
ENDBRANCH   1  21
BRANCH   4  25
ATOM     25  C   UNL     1       4.803   0.390  -3.731  0.00  0.00    +0.110 C 
BRANCH  25  26
ATOM     26  C   UNL     1       4.272   0.755  -5.119  0.00  0.00    +0.054 C 
BRANCH  26  27
ATOM     27  C   UNL     1       5.338   0.488  -6.150  0.00  0.00    -0.042 A 
ATOM     28  C   UNL     1       6.242   1.481  -6.481  0.00  0.00    +0.007 A 
ATOM     29  C   UNL     1       7.221   1.241  -7.426  0.00  0.00    +0.049 A 
ATOM     30  C   UNL     1       7.300   0.003  -8.044  0.00  0.00    +0.161 A 
ATOM     31  C   UNL     1       6.392  -0.997  -7.710  0.00  0.00    +0.162 A 
ATOM     32  C   UNL     1       5.415  -0.751  -6.758  0.00  0.00    +0.053 A 
BRANCH  31  33
ATOM     33  O   UNL     1       6.465  -2.214  -8.313  0.00  0.00    -0.491 OA
ATOM     34  C   UNL     1       5.499  -3.191  -7.921  0.00  0.00    +0.277 C 
ENDBRANCH  31  33
BRANCH  30  35
ATOM     35  O   UNL     1       8.263  -0.235  -8.974  0.00  0.00    -0.491 OA
ATOM     36  C   UNL     1       9.161   0.838  -9.267  0.00  0.00    +0.277 C 
ENDBRANCH  30  35
ENDBRANCH  26  27
ENDBRANCH  25  26
ENDBRANCH   4  25
TORSDOF 8
