REMARK  Name = ZINC13387916
REMARK  10 active torsions:
REMARK  status: ('A' for Active; 'I' for Inactive)
REMARK    1  A    between atoms: C_1  and  C_2
REMARK    2  A    between atoms: C_2  and  C_21
REMARK    3  A    between atoms: N_3  and  O_4
REMARK    4  A    between atoms: O_4  and  C_5
REMARK    5  A    between atoms: C_5  and  C_6
REMARK    6  A    between atoms: N_8  and  N_9
REMARK    7  A    between atoms: C_24  and  O_29
REMARK    8  A    between atoms: C_25  and  O_27
REMARK    9  A    between atoms: O_27  and  C_28
REMARK   10  A    between atoms: O_29  and  C_30
REMARK                            x       y       z     vdW  Elec       q    Type
REMARK                         _______ _______ _______ _____ _____    ______ ____
ROOT
ATOM      1  C   UNL     1       0.046   0.046   4.747  0.00  0.00    +0.272 C 
ATOM      2  O   UNL     1       0.029   1.255   4.658  0.00  0.00    -0.270 OA
ATOM      3  N   UNL     1       0.066  -0.540   5.960  0.00  0.00    -0.203 N 
ATOM      4  H   UNL     1       0.080  -1.508   6.031  0.00  0.00    +0.177 HD
ENDROOT
BRANCH   3   5
ATOM      5  N   UNL     1       0.066   0.247   7.119  0.00  0.00    -0.174 NA
ATOM      6  C   UNL     1       0.085  -0.323   8.299  0.00  0.00    +0.153 C 
ATOM      7  C   UNL     1       0.083   0.343   9.622  0.00  0.00    +0.029 A 
ATOM      8  C   UNL     1       0.061   1.676  10.018  0.00  0.00    +0.027 A 
ATOM      9  C   UNL     1       0.065   1.992  11.362  0.00  0.00    +0.019 A 
ATOM     10  C   UNL     1       0.090   0.983  12.312  0.00  0.00    +0.017 A 
ATOM     11  C   UNL     1       0.112  -0.342  11.929  0.00  0.00    +0.025 A 
ATOM     12  C   UNL     1       0.108  -0.679  10.579  0.00  0.00    +0.043 A 
ATOM     13  N   UNL     1       0.126  -1.912   9.935  0.00  0.00    -0.280 N 
ATOM     14  C   UNL     1       0.107  -1.769   8.599  0.00  0.00    +0.269 C 
ATOM     15  O   UNL     1       0.111  -2.670   7.782  0.00  0.00    -0.268 OA
ATOM     16 BR   UNL     1       0.037   3.802  11.908  0.00  0.00    -0.050 Br
ATOM     17  H   UNL     1       0.145  -2.767  10.393  0.00  0.00    +0.155 HD
ENDBRANCH   3   5
BRANCH   1  18
ATOM     18  C   UNL     1       0.046  -0.802   3.501  0.00  0.00    +0.359 C 
BRANCH  18  19
ATOM     19  O   UNL     1       0.024   0.044   2.349  0.00  0.00    -0.384 OA
BRANCH  19  22
ATOM     20  C   UNL     1      -0.018   1.503   0.010  0.00  0.00    +0.069 C 
ATOM     21  C   UNL     1       0.002  -0.004   0.002  0.00  0.00    +0.084 C 
ATOM     22  N   UNL     1       0.021  -0.657   1.119  0.00  0.00    -0.089 NA
BRANCH  21  23
ATOM     23  C   UNL     1      -0.000  -0.735  -1.280  0.00  0.00    +0.003 A 
ATOM     24  C   UNL     1      -0.015  -0.032  -2.486  0.00  0.00    +0.013 A 
ATOM     25  C   UNL     1      -0.017  -0.716  -3.683  0.00  0.00    +0.050 A 
ATOM     26  C   UNL     1      -0.004  -2.103  -3.692  0.00  0.00    +0.162 A 
ATOM     27  C   UNL     1       0.011  -2.811  -2.493  0.00  0.00    +0.162 A 
ATOM     28  C   UNL     1       0.019  -2.131  -1.289  0.00  0.00    +0.059 A 
BRANCH  27  29
ATOM     29  O   UNL     1       0.024  -4.171  -2.505  0.00  0.00    -0.491 OA
ATOM     30  C   UNL     1       0.039  -4.832  -1.238  0.00  0.00    +0.277 C 
ENDBRANCH  27  29
BRANCH  26  31
ATOM     31  O   UNL     1      -0.007  -2.773  -4.875  0.00  0.00    -0.491 OA
ATOM     32  C   UNL     1      -0.023  -1.986  -6.067  0.00  0.00    +0.277 C 
ENDBRANCH  26  31
ENDBRANCH  21  23
ENDBRANCH  19  22
ENDBRANCH  18  19
ENDBRANCH   1  18
TORSDOF 7
