REMARK  Name = ZINC15946072
REMARK  14 active torsions:
REMARK  status: ('A' for Active; 'I' for Inactive)
REMARK    1  A    between atoms: C_1  and  C_2
REMARK    2  A    between atoms: C_5  and  N_9
REMARK    3  A    between atoms: C_6  and  C_8
REMARK    4  A    between atoms: C_10  and  C_12
REMARK    5  A    between atoms: C_16  and  N_17
REMARK    6  A    between atoms: C_18  and  C_20
REMARK    7  A    between atoms: C_20  and  N_75
REMARK    8  A    between atoms: C_21  and  C_22
REMARK    9  A    between atoms: C_21  and  N_75
REMARK   10  A    between atoms: C_22  and  C_23
REMARK   11  A    between atoms: C_30  and  C_34
REMARK   12  A    between atoms: C_34  and  C_35
REMARK   13  A    between atoms: C_34  and  C_36
REMARK   14  A    between atoms: C_34  and  C_37
REMARK                            x       y       z     vdW  Elec       q    Type
REMARK                         _______ _______ _______ _____ _____    ______ ____
ROOT
ATOM      1  C   UNL     1      -3.749   5.875   0.281  0.00  0.00    +0.069 A 
ATOM      2  C   UNL     1      -4.473   6.339  -0.890  0.00  0.00    -0.023 A 
ATOM      3  C   UNL     1      -5.635   6.978  -0.633  0.00  0.00    -0.004 A 
ATOM      4  S   UNL     1      -5.776   6.968   1.131  0.00  0.00    -0.077 S 
ATOM      5  C   UNL     1      -4.315   6.123   1.524  0.00  0.00    +0.084 A 
ATOM      6  C   UNL     1      -6.586   7.559  -1.633  0.00  0.00    +0.046 C 
ATOM      7  C   UNL     1      -6.235   6.998  -3.019  0.00  0.00    -0.000 C 
ATOM      8  C   UNL     1      -4.724   7.122  -3.233  0.00  0.00    +0.009 C 
ATOM      9  C   UNL     1      -3.987   6.140  -2.321  0.00  0.00    +0.037 C 
ENDROOT
BRANCH   1  11
ATOM     10  N   UNL     1      -2.456   3.823   0.046  0.00  0.00    -0.281 N 
ATOM     11  C   UNL     1      -2.473   5.166   0.155  0.00  0.00    +0.251 C 
ATOM     12  O   UNL     1      -1.428   5.790   0.148  0.00  0.00    -0.270 OA
ATOM     13  H   UNL     1      -3.289   3.332  -0.030  0.00  0.00    +0.155 HD
BRANCH  10  18
ATOM     14  C   UNL     1       2.488   1.041   0.028  0.00  0.00    +0.044 C 
ATOM     15  C   UNL     1       1.174   1.780   0.033  0.00  0.00    -0.050 A 
ATOM     16  C   UNL     1       1.083   3.021   0.636  0.00  0.00    +0.005 A 
ATOM     17  C   UNL     1      -0.119   3.701   0.642  0.00  0.00    +0.024 A 
ATOM     18  C   UNL     1      -1.237   3.137   0.041  0.00  0.00    +0.037 A 
ATOM     19  C   UNL     1      -1.141   1.893  -0.568  0.00  0.00    -0.029 A 
ATOM     20  C   UNL     1       0.063   1.216  -0.566  0.00  0.00    +0.008 A 
ATOM     21  C   UNL     1      -2.350   1.280  -1.226  0.00  0.00    +0.045 C 
ENDBRANCH  10  18
ENDBRANCH   1  11
BRANCH   5  22
ATOM     22  N   UNL     1      -3.828   5.780   2.776  0.00  0.00    -0.281 N 
ATOM     23  C   UNL     1      -4.523   6.109   3.883  0.00  0.00    +0.201 C 
ATOM     24  O   UNL     1      -5.575   6.704   3.784  0.00  0.00    -0.278 OA
ATOM     25  H   UNL     1      -2.987   5.304   2.856  0.00  0.00    +0.155 HD
BRANCH  23  26
ATOM     26  C   UNL     1      -3.994   5.736   5.244  0.00  0.00    +0.015 C 
BRANCH  26  27
ATOM     27  N   UNL     1      -4.937   6.207   6.275  0.00  0.00    +0.385 N 
ATOM     28  H   UNL     1      -5.852   5.767   6.124  0.00  0.00    -0.085 HD
ATOM     29  H   UNL     1      -5.033   7.228   6.206  0.00  0.00    -0.085 HD
BRANCH  27  30
ATOM     30  C   UNL     1      -4.444   5.856   7.620  0.00  0.00    -0.077 C 
BRANCH  30  31
ATOM     31  C   UNL     1      -5.441   6.357   8.667  0.00  0.00    +0.016 C 
BRANCH  31  32
ATOM     32  C   UNL     1      -4.944   6.001  10.044  0.00  0.00    -0.049 A 
ATOM     33  C   UNL     1      -5.305   4.798  10.620  0.00  0.00    +0.003 A 
ATOM     34  C   UNL     1      -4.845   4.469  11.882  0.00  0.00    +0.000 A 
ATOM     35  C   UNL     1      -4.032   5.349  12.572  0.00  0.00    +0.000 A 
ATOM     36  C   UNL     1      -3.675   6.555  11.998  0.00  0.00    +0.000 A 
ATOM     37  C   UNL     1      -4.131   6.881  10.734  0.00  0.00    +0.003 A 
ENDBRANCH  31  32
ENDBRANCH  30  31
ENDBRANCH  27  30
ENDBRANCH  26  27
ENDBRANCH  23  26
ENDBRANCH   5  22
BRANCH   7  38
ATOM     38  C   UNL     1      -6.973   7.795  -4.097  0.00  0.00    -0.035 C 
ATOM     39  C   UNL     1      -6.608   7.245  -5.477  0.00  0.00    +0.011 C 
ATOM     40  C   UNL     1      -8.482   7.669  -3.880  0.00  0.00    +0.011 C 
ATOM     41  C   UNL     1      -6.566   9.267  -4.011  0.00  0.00    +0.011 C 
ENDBRANCH   7  38
TORSDOF 9
