REMARK  Name = ZINC39695702
REMARK  10 active torsions:
REMARK  status: ('A' for Active; 'I' for Inactive)
REMARK    1  A    between atoms: C_1  and  C_2
REMARK    2  A    between atoms: C_9  and  C_11
REMARK    3  A    between atoms: C_11  and  C_13
REMARK    4  A    between atoms: C_11  and  N_14
REMARK    5  A    between atoms: C_15  and  C_17
REMARK    6  A    between atoms: C_28  and  C_30
REMARK    7  A    between atoms: C_32  and  O_38
REMARK    8  A    between atoms: C_34  and  O_36
REMARK    9  A    between atoms: O_36  and  C_37
REMARK   10  A    between atoms: O_38  and  C_39
REMARK                            x       y       z     vdW  Elec       q    Type
REMARK                         _______ _______ _______ _____ _____    ______ ____
ROOT
ATOM      1  C   UNL     1       1.258  -8.855   1.282  0.00  0.00    +0.100 C 
ATOM      2  C   UNL     1       0.403  -9.569   0.211  0.00  0.00    +0.121 C 
ATOM      3  N   UNL     1       0.952 -10.944   0.150  0.00  0.00    -0.296 N 
ATOM      4  C   UNL     1       1.244 -11.288   1.562  0.00  0.00    +0.115 C 
ATOM      5  C   UNL     1       1.807  -9.987   2.167  0.00  0.00    -0.004 C 
ATOM      6  C   UNL     1       1.319  -9.819   3.603  0.00  0.00    -0.010 C 
ATOM      7  C   UNL     1       1.925 -10.921   4.476  0.00  0.00    -0.082 C 
ATOM      8  N   UNL     1       3.390 -10.840   4.423  0.00  0.00    +0.379 N 
ATOM      9  C   UNL     1       3.857 -11.095   3.055  0.00  0.00    -0.082 C 
ATOM     10  C   UNL     1       3.332 -10.000   2.122  0.00  0.00    -0.010 C 
ATOM     11  C   UNL     1       1.142 -11.710  -0.943  0.00  0.00    +0.247 C 
ATOM     12  O   UNL     1       0.973 -11.240  -2.051  0.00  0.00    -0.270 OA
ATOM     13  H   UNL     1       3.685  -9.919   4.712  0.00  0.00    -0.086 HD
ATOM     14  H   UNL     1       3.786 -11.528   5.046  0.00  0.00    -0.086 HD
ENDROOT
BRANCH  11  15
ATOM     15  C   UNL     1       1.556 -13.121  -0.794  0.00  0.00    +0.044 A 
ATOM     16  C   UNL     1       1.340 -13.790   0.411  0.00  0.00    +0.059 A 
ATOM     17  C   UNL     1       1.730 -15.113   0.547  0.00  0.00    +0.124 A 
ATOM     18  C   UNL     1       2.334 -15.772  -0.514  0.00  0.00    +0.091 A 
ATOM     19  C   UNL     1       2.551 -15.111  -1.714  0.00  0.00    +0.124 A 
ATOM     20  C   UNL     1       2.159 -13.790  -1.860  0.00  0.00    +0.059 A 
BRANCH  19  21
ATOM     21  O   UNL     1       3.143 -15.761  -2.750  0.00  0.00    -0.495 OA
ATOM     22  C   UNL     1       3.517 -17.123  -2.532  0.00  0.00    +0.277 C 
ENDBRANCH  19  21
BRANCH  17  23
ATOM     23  O   UNL     1       1.519 -15.765   1.720  0.00  0.00    -0.495 OA
ATOM     24  C   UNL     1       1.945 -17.127   1.790  0.00  0.00    +0.277 C 
ENDBRANCH  17  23
ENDBRANCH  11  15
BRANCH   1  26
ATOM     25  N   UNL     1       0.943  -6.805   2.629  0.00  0.00    -0.305 N 
ATOM     26  C   UNL     1       0.403  -7.919   2.097  0.00  0.00    +0.219 C 
ATOM     27  O   UNL     1      -0.770  -8.169   2.275  0.00  0.00    -0.275 OA
ATOM     28  H   UNL     1       1.881  -6.605   2.487  0.00  0.00    +0.149 HD
BRANCH  25  29
ATOM     29  C   UNL     1       0.112  -5.895   3.421  0.00  0.00    +0.136 C 
ATOM     30  C   UNL     1      -0.612  -4.922   2.488  0.00  0.00    +0.036 C 
BRANCH  29  39
ATOM     31  C   UNL     1       3.310  -1.958   8.867  0.00  0.00    +0.044 C 
ATOM     32  C   UNL     1       3.096  -2.733   7.593  0.00  0.00    -0.048 A 
ATOM     33  C   UNL     1       4.159  -2.937   6.724  0.00  0.00    +0.005 A 
ATOM     34  C   UNL     1       3.986  -3.637   5.564  0.00  0.00    +0.030 A 
ATOM     35  C   UNL     1       2.728  -4.157   5.245  0.00  0.00    +0.089 A 
ATOM     36  C   UNL     1       1.652  -3.952   6.126  0.00  0.00    +0.067 A 
ATOM     37  C   UNL     1       1.848  -3.242   7.302  0.00  0.00    +0.031 A 
ATOM     38  N   UNL     1       0.563  -4.573   5.548  0.00  0.00    -0.340 N 
ATOM     39  C   UNL     1       0.984  -5.120   4.375  0.00  0.00    +0.128 A 
ATOM     40  N   UNL     1       2.250  -4.877   4.198  0.00  0.00    -0.231 NA
ATOM     41  H   UNL     1      -0.336  -4.613   5.910  0.00  0.00    +0.167 HD
ENDBRANCH  29  39
ENDBRANCH  25  29
ENDBRANCH   1  26
TORSDOF 6
