REMARK  Name = ZINC64439067
REMARK  8 active torsions:
REMARK  status: ('A' for Active; 'I' for Inactive)
REMARK    1  A    between atoms: C_1  and  C_2
REMARK    2  A    between atoms: C_2  and  N_3
REMARK    3  A    between atoms: C_11  and  N_15
REMARK    4  A    between atoms: C_19  and  C_22
REMARK    5  A    between atoms: N_24  and  C_25
REMARK    6  A    between atoms: C_25  and  C_26
REMARK    7  A    between atoms: C_26  and  C_27
REMARK    8  A    between atoms: C_30  and  C_36
REMARK                            x       y       z     vdW  Elec       q    Type
REMARK                         _______ _______ _______ _____ _____    ______ ____
ROOT
ATOM      1  N   UNL     1       2.789  -2.688  -2.318  0.00  0.00    -0.276 NA
ATOM      2  C   UNL     1       3.514  -3.143  -1.124  0.00  0.00    +0.086 C 
ATOM      3  C   UNL     1       3.416  -4.666  -1.016  0.00  0.00    +0.016 C 
ATOM      4  C   UNL     1       4.015  -5.302  -2.273  0.00  0.00    +0.015 C 
ATOM      5  C   UNL     1       3.274  -4.775  -3.505  0.00  0.00    +0.089 C 
ATOM      6  C   UNL     1       3.376  -3.249  -3.541  0.00  0.00    +0.099 C 
ENDROOT
BRANCH   1  15
ATOM      7  N   UNL     1       0.688  -0.476  -1.203  0.00  0.00    -0.252 N 
ATOM      8  C   UNL     1      -0.046  -0.704  -2.369  0.00  0.00    +0.149 A 
ATOM      9  C   UNL     1       0.630  -0.862  -3.583  0.00  0.00    +0.069 A 
ATOM     10  C   UNL     1      -0.090  -1.081  -4.744  0.00  0.00    +0.028 A 
ATOM     11  C   UNL     1      -1.476  -1.140  -4.654  0.00  0.00    +0.022 A 
ATOM     12  C   UNL     1      -2.079  -0.980  -3.422  0.00  0.00    +0.113 A 
ATOM     13  N   UNL     1      -1.366  -0.770  -2.331  0.00  0.00    -0.238 NA
ATOM     14  N   UNL     1       2.029  -0.801  -3.594  0.00  0.00    -0.319 N 
ATOM     15  C   UNL     1       2.744  -1.221  -2.379  0.00  0.00    +0.230 C 
ATOM     16  C   UNL     1       2.018  -0.680  -1.174  0.00  0.00    +0.256 C 
ATOM     17  O   UNL     1       2.639  -0.429  -0.164  0.00  0.00    -0.272 OA
ATOM     18  H   UNL     1       2.511  -0.492  -4.377  0.00  0.00    +0.148 HD
BRANCH   7  20
ATOM     19  C   UNL     1      -0.019   1.526   0.010  0.00  0.00    +0.025 C 
ATOM     20  C   UNL     1       0.002  -0.004   0.002  0.00  0.00    +0.112 C 
ENDBRANCH   7  20
ENDBRANCH   1  15
BRANCH   5  21
ATOM     21  C   UNL     1       3.895  -5.352  -4.751  0.00  0.00    +0.217 C 
ATOM     22  O   UNL     1       4.371  -4.614  -5.588  0.00  0.00    -0.275 OA
ATOM     23  N   UNL     1       3.923  -6.686  -4.935  0.00  0.00    -0.315 N 
ATOM     24  H   UNL     1       3.542  -7.276  -4.265  0.00  0.00    +0.149 HD
BRANCH  23  25
ATOM     25  C   UNL     1       4.527  -7.247  -6.146  0.00  0.00    +0.108 C 
BRANCH  25  26
ATOM     26  C   UNL     1       4.428  -8.773  -6.106  0.00  0.00    +0.052 C 
BRANCH  26  27
ATOM     27  C   UNL     1       5.049  -9.350  -7.352  0.00  0.00    -0.040 C 
ATOM     28  C   UNL     1       6.316  -9.802  -7.495  0.00  0.00    -0.001 A 
ATOM     29  C   UNL     1       7.451  -9.887  -6.568  0.00  0.00    +0.013 A 
ATOM     30  C   UNL     1       8.622 -10.399  -7.011  0.00  0.00    -0.050 A 
ATOM     31  C   UNL     1       8.779 -10.847  -8.330  0.00  0.00    +0.005 A 
ATOM     32  C   UNL     1       7.782 -10.801  -9.239  0.00  0.00    +0.026 A 
ATOM     33  C   UNL     1       6.507 -10.283  -8.882  0.00  0.00    +0.043 A 
ATOM     34  N   UNL     1       5.401 -10.133  -9.570  0.00  0.00    -0.380 N 
ATOM     35  C   UNL     1       4.380  -9.546  -8.694  0.00  0.00    +0.144 C 
ATOM     36  C   UNL     1       9.790 -10.488  -6.063  0.00  0.00    +0.044 C 
ATOM     37  H   UNL     1       5.277 -10.375 -10.501  0.00  0.00    +0.160 HD
ENDBRANCH  26  27
ENDBRANCH  25  26
ENDBRANCH  23  25
ENDBRANCH   5  21
TORSDOF 6
