REMARK  Name = ZINC01470966
REMARK  10 active torsions:
REMARK  status: ('A' for Active; 'I' for Inactive)
REMARK    1  A    between atoms: C_1  and  C_2
REMARK    2  A    between atoms: C_4  and  O_14
REMARK    3  A    between atoms: C_5  and  C_11
REMARK    4  A    between atoms: C_7  and  C_8
REMARK    5  A    between atoms: C_8  and  C_10
REMARK    6  A    between atoms: C_11  and  C_12
REMARK    7  A    between atoms: C_11  and  C_13
REMARK    8  A    between atoms: O_14  and  C_15
REMARK    9  A    between atoms: N_17  and  C_18
REMARK   10  A    between atoms: C_18  and  C_27
REMARK                            x       y       z     vdW  Elec       q    Type
REMARK                         _______ _______ _______ _____ _____    ______ ____
ROOT
ATOM      1  C   UNL     1      -0.141  -0.026   3.492  0.00  0.00    +0.411 C 
ATOM      2  O   UNL     1      -0.257   0.898   4.272  0.00  0.00    -0.226 OA
ATOM      3  N   UNL     1      -1.169  -0.361   2.687  0.00  0.00    -0.201 N 
ATOM      4  H   UNL     1      -1.076  -1.099   2.064  0.00  0.00    +0.160 HD
ENDROOT
BRANCH   3   5
ATOM      5  C   UNL     1      -2.425   0.389   2.752  0.00  0.00    +0.437 C 
ATOM      6  O   UNL     1      -2.989   0.317   4.075  0.00  0.00    -0.426 OA
ATOM      7  C   UNL     1      -2.493   1.401   4.742  0.00  0.00    +0.169 A 
ATOM      8  C   UNL     1      -2.420   1.693   6.094  0.00  0.00    +0.049 A 
ATOM      9  C   UNL     1      -1.858   2.884   6.514  0.00  0.00    +0.004 A 
ATOM     10  C   UNL     1      -1.368   3.786   5.588  0.00  0.00    +0.004 A 
ATOM     11  C   UNL     1      -1.438   3.501   4.237  0.00  0.00    +0.049 A 
ATOM     12  C   UNL     1      -1.999   2.309   3.808  0.00  0.00    +0.169 A 
ATOM     13  O   UNL     1      -2.186   1.795   2.558  0.00  0.00    -0.426 OA
BRANCH   5  14
ATOM     14  C   UNL     1      -3.421  -0.136   1.715  0.00  0.00    +0.491 C 
ATOM     15  F   UNL     1      -4.592   0.628   1.766  0.00  0.00    -0.162 F 
ATOM     16  F   UNL     1      -2.857  -0.041   0.438  0.00  0.00    -0.162 F 
ATOM     17  F   UNL     1      -3.723  -1.473   1.994  0.00  0.00    -0.162 F 
ENDBRANCH   5  14
ENDBRANCH   3   5
BRANCH   1  18
ATOM     18  O   UNL     1       1.015  -0.716   3.432  0.00  0.00    -0.411 OA
BRANCH  18  22
ATOM     19  C   UNL     1       5.047   2.000   3.812  0.00  0.00    +0.044 C 
ATOM     20  C   UNL     1       4.028   1.064   4.410  0.00  0.00    -0.037 A 
ATOM     21  C   UNL     1       2.983   0.602   3.643  0.00  0.00    +0.050 A 
ATOM     22  C   UNL     1       2.043  -0.263   4.192  0.00  0.00    +0.137 A 
ATOM     23  C   UNL     1       2.150  -0.660   5.521  0.00  0.00    -0.002 A 
ATOM     24  C   UNL     1       3.194  -0.207   6.295  0.00  0.00    +0.019 A 
ATOM     25  C   UNL     1       4.143   0.663   5.746  0.00  0.00    +0.021 A 
BRANCH  25  26
ATOM     26  C   UNL     1       5.256   1.154   6.570  0.00  0.00    +0.160 C 
ATOM     27  O   UNL     1       6.116   1.851   6.074  0.00  0.00    -0.292 OA
ATOM     28  C   UNL     1       5.330   0.791   8.031  0.00  0.00    +0.091 C 
ENDBRANCH  25  26
BRANCH  23  29
ATOM     29  C   UNL     1       1.124  -1.593   6.112  0.00  0.00    +0.016 C 
ATOM     30  C   UNL     1       1.815  -2.870   6.595  0.00  0.00    +0.012 C 
ATOM     31  C   UNL     1       0.433  -0.908   7.293  0.00  0.00    +0.012 C 
ENDBRANCH  23  29
ENDBRANCH  18  22
ENDBRANCH   1  18
TORSDOF 6
