REMARK  Name = ZINC09457245
REMARK  14 active torsions:
REMARK  status: ('A' for Active; 'I' for Inactive)
REMARK    1  A    between atoms: C_1  and  C_2
REMARK    2  A    between atoms: C_2  and  N_68
REMARK    3  A    between atoms: C_3  and  C_4
REMARK    4  A    between atoms: C_3  and  N_68
REMARK    5  A    between atoms: C_5  and  C_6
REMARK    6  A    between atoms: C_5  and  N_68
REMARK    7  A    between atoms: C_6  and  N_7
REMARK    8  A    between atoms: C_8  and  C_27
REMARK    9  A    between atoms: C_10  and  C_15
REMARK   10  A    between atoms: C_11  and  O_14
REMARK   11  A    between atoms: C_15  and  C_17
REMARK   12  A    between atoms: C_30  and  N_33
REMARK   13  A    between atoms: N_33  and  C_34
REMARK   14  A    between atoms: N_33  and  C_35
REMARK                            x       y       z     vdW  Elec       q    Type
REMARK                         _______ _______ _______ _____ _____    ______ ____
ROOT
ATOM      1  N   UNL     1      -0.849  -5.160  -0.396  0.00  0.00    -0.285 N 
ATOM      2  C   UNL     1      -0.790  -3.698  -0.513  0.00  0.00    +0.144 C 
ATOM      3  C   UNL     1      -2.220  -3.213  -0.461  0.00  0.00    +0.071 C 
ATOM      4  C   UNL     1      -2.999  -4.310  -0.322  0.00  0.00    +0.188 C 
ATOM      5  C   UNL     1      -2.143  -5.514  -0.288  0.00  0.00    +0.282 C 
ATOM      6  O   UNL     1      -2.547  -6.654  -0.175  0.00  0.00    -0.267 OA
ENDROOT
BRANCH   2   7
ATOM      7  C   UNL     1      -0.157  -3.307  -1.824  0.00  0.00    -0.022 A 
ATOM      8  C   UNL     1      -0.499  -3.979  -2.983  0.00  0.00    +0.007 A 
ATOM      9  C   UNL     1       0.075  -3.620  -4.186  0.00  0.00    +0.023 A 
ATOM     10  C   UNL     1       1.005  -2.589  -4.230  0.00  0.00    +0.029 A 
ATOM     11  C   UNL     1       1.351  -1.919  -3.063  0.00  0.00    +0.023 A 
ATOM     12  C   UNL     1       0.769  -2.281  -1.863  0.00  0.00    +0.007 A 
BRANCH  10  13
ATOM     13  N   UNL     1       1.591  -2.226  -5.445  0.00  0.00    -0.336 N 
ATOM     14  C   UNL     1       2.572  -1.138  -5.489  0.00  0.00    +0.129 C 
ATOM     15  C   UNL     1       1.226  -2.933  -6.675  0.00  0.00    +0.129 C 
ENDBRANCH  10  13
ENDBRANCH   2   7
BRANCH   4  16
ATOM     16  O   UNL     1      -4.349  -4.306  -0.231  0.00  0.00    -0.502 OA
ATOM     17  H   UNL     1      -4.680  -5.245  -0.134  0.00  0.00    +0.292 HD
ENDBRANCH   4  16
BRANCH   3  18
ATOM     18  C   UNL     1      -2.674  -1.821  -0.540  0.00  0.00    +0.195 C 
ATOM     19  O   UNL     1      -3.330  -1.449  -1.495  0.00  0.00    -0.287 OA
BRANCH  18  20
ATOM     20  C   UNL     1      -2.336  -0.872   0.538  0.00  0.00    +0.026 A 
ATOM     21  C   UNL     1      -1.657  -1.317   1.677  0.00  0.00    +0.015 A 
ATOM     22  C   UNL     1      -1.345  -0.429   2.682  0.00  0.00    +0.050 A 
ATOM     23  C   UNL     1      -1.702   0.910   2.570  0.00  0.00    +0.162 A 
ATOM     24  C   UNL     1      -2.376   1.360   1.437  0.00  0.00    +0.163 A 
ATOM     25  C   UNL     1      -2.694   0.474   0.425  0.00  0.00    +0.061 A 
ATOM     26  O   UNL     1      -2.725   2.670   1.310  0.00  0.00    -0.485 OA
ATOM     27  C   UNL     1      -2.723   3.456   2.507  0.00  0.00    +0.270 C 
ATOM     28  C   UNL     1      -1.423   3.165   3.269  0.00  0.00    +0.270 C 
ATOM     29  O   UNL     1      -1.387   1.767   3.578  0.00  0.00    -0.485 OA
ENDBRANCH  18  20
ENDBRANCH   3  18
BRANCH   1  30
ATOM     30  C   UNL     1       0.297  -6.072  -0.397  0.00  0.00    +0.090 C 
BRANCH  30  31
ATOM     31  C   UNL     1       0.785  -6.279   1.038  0.00  0.00    -0.060 C 
BRANCH  31  32
ATOM     32  N   UNL     1       1.927  -7.218   1.023  0.00  0.00    +0.380 N 
ATOM     33  H   UNL     1       1.660  -8.060   0.500  0.00  0.00    -0.082 HD
BRANCH  32  35
ATOM     34  C   UNL     1       3.514  -5.324   1.108  0.00  0.00    -0.017 C 
ATOM     35  C   UNL     1       3.089  -6.589   0.359  0.00  0.00    -0.082 C 
ENDBRANCH  32  35
BRANCH  32  36
ATOM     36  C   UNL     1       2.282  -7.604   2.405  0.00  0.00    -0.082 C 
ATOM     37  C   UNL     1       3.273  -8.768   2.352  0.00  0.00    -0.017 C 
ENDBRANCH  32  36
ENDBRANCH  31  32
ENDBRANCH  30  31
ENDBRANCH   1  30
TORSDOF 10
