REMARK  Name = ZINC40172666
REMARK  11 active torsions:
REMARK  status: ('A' for Active; 'I' for Inactive)
REMARK    1  A    between atoms: C_1  and  C_2
REMARK    2  A    between atoms: C_2  and  C_3
REMARK    3  A    between atoms: C_3  and  C_5
REMARK    4  A    between atoms: C_3  and  N_22
REMARK    5  A    between atoms: N_7  and  C_8
REMARK    6  A    between atoms: C_11  and  S_14
REMARK    7  A    between atoms: S_14  and  N_17
REMARK    8  A    between atoms: C_26  and  S_27
REMARK    9  A    between atoms: S_27  and  C_28
REMARK   10  A    between atoms: C_28  and  C_29
REMARK   11  A    between atoms: C_29  and  C_30
REMARK                            x       y       z     vdW  Elec       q    Type
REMARK                         _______ _______ _______ _____ _____    ______ ____
ROOT
ATOM      1  C   UNL     1      -1.296  -0.551  -0.075  0.00  0.00    +0.178 C 
ENDROOT
BRANCH   1   2
ATOM      2  N   UNL     1      -1.789  -0.186  -1.406  0.00  0.00    -0.279 N 
ATOM      3  C   UNL     1      -1.218  -0.534  -2.597  0.00  0.00    +0.216 A 
ATOM      4  N   UNL     1      -1.944  -0.022  -3.560  0.00  0.00    -0.113 NA
ATOM      5  N   UNL     1      -3.011   0.673  -2.975  0.00  0.00    -0.121 NA
ATOM      6  C   UNL     1      -2.903   0.559  -1.673  0.00  0.00    +0.194 A 
ATOM      7  N   UNL     1      -0.068  -1.297  -2.759  0.00  0.00    -0.328 N 
ATOM      8  H   UNL     1       0.404  -1.633  -1.982  0.00  0.00    +0.145 HD
ATOM      9  H   UNL     1       0.262  -1.493  -3.650  0.00  0.00    +0.145 HD
BRANCH   6  10
ATOM     10  S   UNL     1      -3.999   1.249  -0.479  0.00  0.00    -0.086 S 
BRANCH  10  11
ATOM     11  C   UNL     1      -5.250   2.106  -1.474  0.00  0.00    +0.082 C 
BRANCH  11  12
ATOM     12  C   UNL     1      -6.279   2.759  -0.549  0.00  0.00    +0.046 C 
BRANCH  12  13
ATOM     13  C   UNL     1      -7.318   3.471  -1.376  0.00  0.00    -0.047 A 
ATOM     14  C   UNL     1      -7.132   4.794  -1.730  0.00  0.00    +0.003 A 
ATOM     15  C   UNL     1      -8.085   5.447  -2.489  0.00  0.00    +0.000 A 
ATOM     16  C   UNL     1      -9.224   4.777  -2.894  0.00  0.00    +0.000 A 
ATOM     17  C   UNL     1      -9.410   3.454  -2.541  0.00  0.00    +0.000 A 
ATOM     18  C   UNL     1      -8.455   2.800  -1.786  0.00  0.00    +0.003 A 
ENDBRANCH  12  13
ENDBRANCH  11  12
ENDBRANCH  10  11
ENDBRANCH   6  10
ENDBRANCH   1   2
BRANCH   1  19
ATOM     19  C   UNL     1      -1.264  -2.053   0.053  0.00  0.00    +0.240 C 
ATOM     20  O   UNL     1      -1.617  -2.748  -0.876  0.00  0.00    -0.273 OA
ATOM     21  N   UNL     1      -0.842  -2.622   1.199  0.00  0.00    -0.284 N 
ATOM     22  H   UNL     1      -0.488  -2.070   1.914  0.00  0.00    +0.155 HD
BRANCH  21  23
ATOM     23  C   UNL     1      -0.915  -4.010   1.359  0.00  0.00    +0.034 A 
ATOM     24  C   UNL     1       0.044  -4.676   2.111  0.00  0.00    +0.025 A 
ATOM     25  C   UNL     1      -0.031  -6.046   2.267  0.00  0.00    +0.030 A 
ATOM     26  C   UNL     1      -1.060  -6.755   1.675  0.00  0.00    +0.106 A 
ATOM     27  C   UNL     1      -2.017  -6.096   0.926  0.00  0.00    +0.030 A 
ATOM     28  C   UNL     1      -1.951  -4.725   0.771  0.00  0.00    +0.025 A 
BRANCH  26  29
ATOM     29  S   UNL     1      -1.152  -8.503   1.877  0.00  0.00    +0.061 S 
ATOM     30  O   UNL     1      -1.898  -9.000   0.774  0.00  0.00    -0.153 OA
ATOM     31  O   UNL     1       0.166  -8.949   2.167  0.00  0.00    -0.153 OA
BRANCH  29  32
ATOM     32  N   UNL     1      -2.059  -8.793   3.231  0.00  0.00    -0.177 NA
ATOM     33  C   UNL     1      -1.539  -8.912   4.601  0.00  0.00    +0.109 C 
ATOM     34  C   UNL     1      -2.741  -9.207   5.524  0.00  0.00    +0.018 C 
ATOM     35  C   UNL     1      -3.791  -9.798   4.547  0.00  0.00    +0.018 C 
ATOM     36  C   UNL     1      -3.522  -8.968   3.264  0.00  0.00    +0.109 C 
ENDBRANCH  29  32
ENDBRANCH  26  29
ENDBRANCH  21  23
ENDBRANCH   1  19
BRANCH   1  38
ATOM     37  C   UNL     1       0.062   1.537   0.112  0.00  0.00    +0.006 C 
ATOM     38  C   UNL     1       0.115   0.008   0.118  0.00  0.00    +0.031 C 
ENDBRANCH   1  38
TORSDOF 10
