REMARK  Name = ZINC63795256
REMARK  8 active torsions:
REMARK  status: ('A' for Active; 'I' for Inactive)
REMARK    1  A    between atoms: C_1  and  O_2
REMARK    2  A    between atoms: O_2  and  C_3
REMARK    3  A    between atoms: C_3  and  C_5
REMARK    4  A    between atoms: C_7  and  S_13
REMARK    5  A    between atoms: S_13  and  N_16
REMARK    6  A    between atoms: N_16  and  C_17
REMARK    7  A    between atoms: C_17  and  C_18
REMARK    8  A    between atoms: C_18  and  C_19
REMARK                            x       y       z     vdW  Elec       q    Type
REMARK                         _______ _______ _______ _____ _____    ______ ____
ROOT
ATOM      1  N   UNL     1       1.861  -2.005   5.023  0.00  0.00    -0.194 NA
ATOM      2  H   UNL     1       1.347  -1.794   5.817  0.00  0.00    +0.148 HD
ENDROOT
BRANCH   1   3
ATOM      3  S   UNL     1       1.469  -1.309   3.572  0.00  0.00    +0.037 S 
ATOM      4  O   UNL     1       2.694  -0.788   3.076  0.00  0.00    -0.158 OA
ATOM      5  O   UNL     1       0.381  -0.444   3.868  0.00  0.00    -0.158 OA
BRANCH   3   7
ATOM      6  C   UNL     1       0.448  -2.131   1.157  0.00  0.00    +0.190 C 
ATOM      7  C   UNL     1       0.908  -2.684   2.532  0.00  0.00    +0.196 C 
ATOM      8  C   UNL     1       2.028  -3.660   2.363  0.00  0.00    +0.029 C 
ATOM      9  C   UNL     1       2.720  -3.676   1.238  0.00  0.00    +0.073 C 
ATOM     10  S   UNL     1       1.998  -2.415   0.201  0.00  0.00    -0.097 S 
ATOM     11 CL   UNL     1       4.059  -4.710   0.848  0.00  0.00    -0.076 Cl
BRANCH   6  12
ATOM     12  C   UNL     1       0.110  -0.665   1.237  0.00  0.00    +0.323 C 
ATOM     13  O   UNL     1      -1.038  -0.317   1.383  0.00  0.00    -0.250 OA
BRANCH  12  15
ATOM     14  C   UNL     1       0.690   1.626   1.230  0.00  0.00    +0.280 C 
ATOM     15  O   UNL     1       1.083   0.255   1.146  0.00  0.00    -0.467 OA
ENDBRANCH  12  15
ENDBRANCH   6  12
ENDBRANCH   3   7
ENDBRANCH   1   3
BRANCH   1  16
ATOM     16  C   UNL     1       2.987  -2.939   5.106  0.00  0.00    +0.110 C 
BRANCH  16  17
ATOM     17  C   UNL     1       3.433  -3.072   6.563  0.00  0.00    +0.050 C 
BRANCH  17  18
ATOM     18  C   UNL     1       4.590  -4.033   6.649  0.00  0.00    -0.040 C 
ATOM     19  C   UNL     1       5.906  -3.722   6.658  0.00  0.00    +0.002 A 
ATOM     20  C   UNL     1       6.626  -2.444   6.593  0.00  0.00    +0.048 A 
ATOM     21  C   UNL     1       7.980  -2.451   6.622  0.00  0.00    +0.124 A 
ATOM     22  C   UNL     1       8.709  -3.647   6.713  0.00  0.00    +0.040 A 
ATOM     23  C   UNL     1       8.118  -4.858   6.776  0.00  0.00    +0.029 A 
ATOM     24  C   UNL     1       6.700  -4.968   6.753  0.00  0.00    +0.043 A 
ATOM     25  N   UNL     1       5.905  -6.010   6.801  0.00  0.00    -0.380 N 
ATOM     26  C   UNL     1       4.516  -5.540   6.748  0.00  0.00    +0.144 C 
ATOM     27  F   UNL     1       8.645  -1.277   6.562  0.00  0.00    -0.205 F 
ATOM     28  H   UNL     1       6.187  -6.935   6.865  0.00  0.00    +0.160 HD
ENDBRANCH  17  18
ENDBRANCH  16  17
ENDBRANCH   1  16
TORSDOF 7
