REMARK  Name = ZINC64450610
REMARK  8 active torsions:
REMARK  status: ('A' for Active; 'I' for Inactive)
REMARK    1  A    between atoms: C_1  and  C_2
REMARK    2  A    between atoms: C_4  and  C_7
REMARK    3  A    between atoms: C_7  and  N_8
REMARK    4  A    between atoms: C_11  and  S_19
REMARK    5  A    between atoms: S_19  and  N_22
REMARK    6  A    between atoms: N_22  and  C_23
REMARK    7  A    between atoms: N_26  and  C_29
REMARK    8  A    between atoms: C_29  and  C_30
REMARK                            x       y       z     vdW  Elec       q    Type
REMARK                         _______ _______ _______ _____ _____    ______ ____
ROOT
ATOM      1  S   UNL     1      -5.490   0.046  -1.603  0.00  0.00    +0.059 S 
ATOM      2  O   UNL     1      -6.817   0.035  -2.113  0.00  0.00    -0.153 OA
ATOM      3  O   UNL     1      -5.210   0.091  -0.211  0.00  0.00    -0.153 OA
ENDROOT
BRANCH   1   7
ATOM      4  N   UNL     1      -1.894  -3.632  -1.390  0.00  0.00    -0.258 N 
ATOM      5  C   UNL     1      -2.994  -3.070  -2.054  0.00  0.00    +0.081 A 
ATOM      6  C   UNL     1      -3.615  -1.935  -1.560  0.00  0.00    +0.055 A 
ATOM      7  C   UNL     1      -4.698  -1.397  -2.230  0.00  0.00    +0.107 A 
ATOM      8  C   UNL     1      -5.162  -1.989  -3.391  0.00  0.00    +0.032 A 
ATOM      9  C   UNL     1      -4.545  -3.122  -3.890  0.00  0.00    +0.049 A 
ATOM     10  C   UNL     1      -3.460  -3.666  -3.225  0.00  0.00    +0.143 A 
ATOM     11  O   UNL     1      -2.840  -4.777  -3.703  0.00  0.00    -0.481 OA
ATOM     12  C   UNL     1      -1.431  -4.875  -3.477  0.00  0.00    +0.325 C 
ATOM     13  C   UNL     1      -1.119  -4.524  -2.045  0.00  0.00    +0.258 C 
ATOM     14  O   UNL     1      -0.178  -5.043  -1.482  0.00  0.00    -0.271 OA
BRANCH   4  15
ATOM     15  C   UNL     1      -1.588  -3.254  -0.008  0.00  0.00    +0.193 C 
BRANCH  15  19
ATOM     16  C   UNL     1      -0.018   1.503   0.010  0.00  0.00    +0.112 C 
ATOM     17  C   UNL     1       0.002  -0.004   0.002  0.00  0.00    +0.224 A 
ATOM     18  N   UNL     1      -1.044  -0.783   0.003  0.00  0.00    -0.195 NA
ATOM     19  C   UNL     1      -0.663  -2.065  -0.006  0.00  0.00    +0.189 A 
ATOM     20  N   UNL     1       0.638  -2.118  -0.012  0.00  0.00    -0.060 NA
ATOM     21  O   UNL     1       1.097  -0.774  -0.013  0.00  0.00    -0.338 OA
ENDBRANCH  15  19
ENDBRANCH   4  15
ENDBRANCH   1   7
BRANCH   1  22
ATOM     22  N   UNL     1      -4.733   1.354  -2.280  0.00  0.00    -0.187 NA
ATOM     23  H   UNL     1      -4.238   1.972  -1.720  0.00  0.00    +0.148 HD
BRANCH  22  24
ATOM     24  C   UNL     1      -4.812   1.578  -3.726  0.00  0.00    +0.073 C 
ATOM     25  C   UNL     1      -3.574   0.983  -4.404  0.00  0.00    +0.002 C 
ATOM     26  C   UNL     1      -3.624   1.290  -5.903  0.00  0.00    -0.077 C 
ATOM     27  N   UNL     1      -3.645   2.744  -6.108  0.00  0.00    +0.382 N 
ATOM     28  C   UNL     1      -4.865   3.312  -5.522  0.00  0.00    -0.077 C 
ATOM     29  C   UNL     1      -4.864   3.082  -4.009  0.00  0.00    +0.002 C 
ATOM     30  H   UNL     1      -2.837   3.156  -5.666  0.00  0.00    -0.081 HD
BRANCH  27  31
ATOM     31  C   UNL     1      -3.614   3.034  -7.547  0.00  0.00    -0.043 C 
BRANCH  31  32
ATOM     32  C   UNL     1      -3.511   4.523  -7.757  0.00  0.00    -0.064 A 
ATOM     33  C   UNL     1      -4.659   5.287  -7.857  0.00  0.00    +0.002 A 
ATOM     34  C   UNL     1      -4.565   6.653  -8.050  0.00  0.00    +0.000 A 
ATOM     35  C   UNL     1      -3.324   7.254  -8.142  0.00  0.00    +0.000 A 
ATOM     36  C   UNL     1      -2.176   6.490  -8.041  0.00  0.00    +0.000 A 
ATOM     37  C   UNL     1      -2.270   5.125  -7.844  0.00  0.00    +0.002 A 
ENDBRANCH  31  32
ENDBRANCH  27  31
ENDBRANCH  22  24
ENDBRANCH   1  22
TORSDOF 7
