REMARK  Name = ZINC65531629
REMARK  7 active torsions:
REMARK  status: ('A' for Active; 'I' for Inactive)
REMARK    1  A    between atoms: C_1  and  C_2
REMARK    2  A    between atoms: C_2  and  C_4
REMARK    3  A    between atoms: C_2  and  N_11
REMARK    4  A    between atoms: C_4  and  C_5
REMARK    5  A    between atoms: C_5  and  C_6
REMARK    6  A    between atoms: C_14  and  C_19
REMARK    7  A    between atoms: C_15  and  C_16
REMARK                            x       y       z     vdW  Elec       q    Type
REMARK                         _______ _______ _______ _____ _____    ______ ____
ROOT
ATOM      1  N   UNL     1       0.729  -0.524   1.165  0.00  0.00    -0.332 N 
ATOM      2  C   UNL     1       2.040  -0.359   1.449  0.00  0.00    +0.174 A 
ATOM      3  N   UNL     1       2.288  -0.879   2.619  0.00  0.00    -0.346 N 
ATOM      4  C   UNL     1       1.150  -1.394   3.126  0.00  0.00    +0.067 A 
ATOM      5  C   UNL     1       0.159  -1.173   2.224  0.00  0.00    +0.047 A 
ATOM      6  H   UNL     1       3.155  -0.892   3.055  0.00  0.00    +0.167 HD
ENDROOT
BRANCH   4   7
ATOM      7  C   UNL     1       1.005  -2.075   4.436  0.00  0.00    +0.000 A 
ATOM      8  C   UNL     1       0.317  -3.283   4.524  0.00  0.00    +0.010 A 
ATOM      9  C   UNL     1       0.186  -3.912   5.746  0.00  0.00    +0.001 A 
ATOM     10  C   UNL     1       0.736  -3.345   6.881  0.00  0.00    +0.000 A 
ATOM     11  C   UNL     1       1.420  -2.146   6.800  0.00  0.00    +0.001 A 
ATOM     12  C   UNL     1       1.562  -1.511   5.583  0.00  0.00    +0.010 A 
ENDBRANCH   4   7
BRANCH   5  13
ATOM     13  C   UNL     1      -1.289  -1.569   2.362  0.00  0.00    +0.038 C 
ATOM     14  C   UNL     1      -2.345  -0.508   2.048  0.00  0.00    +0.010 C 
ATOM     15  C   UNL     1      -2.091  -0.929   3.497  0.00  0.00    +0.010 C 
ENDBRANCH   5  13
BRANCH   1  17
ATOM     16  C   UNL     1       0.177   1.435  -0.191  0.00  0.00    +0.031 C 
ATOM     17  C   UNL     1       0.044  -0.083  -0.053  0.00  0.00    +0.086 C 
BRANCH  17  18
ATOM     18  C   UNL     1       0.676  -0.763  -1.269  0.00  0.00    +0.032 C 
BRANCH  18  19
ATOM     19  C   UNL     1      -0.117  -0.400  -2.526  0.00  0.00    +0.076 C 
BRANCH  19  20
ATOM     20  C   UNL     1       0.506  -1.070  -3.724  0.00  0.00    +0.105 A 
ATOM     21  C   UNL     1       0.186  -2.287  -4.199  0.00  0.00    +0.044 A 
ATOM     22  C   UNL     1       1.010  -2.516  -5.324  0.00  0.00    +0.041 A 
ATOM     23  C   UNL     1       1.784  -1.426  -5.470  0.00  0.00    +0.195 A 
ATOM     24  O   UNL     1       1.470  -0.550  -4.501  0.00  0.00    -0.468 OA
ENDBRANCH  19  20
ENDBRANCH  18  19
ENDBRANCH  17  18
ENDBRANCH   1  17
TORSDOF 6
