REMARK  Name = ZINC18348548
REMARK  5 active torsions:
REMARK  status: ('A' for Active; 'I' for Inactive)
REMARK    1  A    between atoms: C_4  and  N_7
REMARK    2  A    between atoms: C_9  and  C_12
REMARK    3  A    between atoms: C_12  and  O_14
REMARK    4  A    between atoms: O_14  and  C_15
REMARK    5  A    between atoms: C_15  and  C_16
REMARK                            x       y       z     vdW  Elec       q    Type
REMARK                         _______ _______ _______ _____ _____    ______ ____
ROOT
ATOM      1  C   UNL     1       0.188  -0.015   0.007  0.00  0.00    +0.170 A 
ATOM      2  N   UNL     1       0.174  -0.653  -1.149  0.00  0.00    -0.214 NA
ATOM      3  C   UNL     1       0.017  -1.965  -1.228  0.00  0.00    +0.128 A 
ATOM      4  C   UNL     1      -0.154  -2.714  -0.032  0.00  0.00    +0.051 A 
ATOM      5  C   UNL     1      -0.348  -4.157   0.126  0.00  0.00    -0.025 A 
ATOM      6  C   UNL     1      -0.486  -4.621   1.385  0.00  0.00    -0.004 A 
ATOM      7  S   UNL     1      -0.370  -3.188   2.422  0.00  0.00    -0.073 S 
ATOM      8  C   UNL     1      -0.134  -1.964   1.161  0.00  0.00    +0.114 A 
ATOM      9  N   UNL     1       0.034  -0.656   1.149  0.00  0.00    -0.221 NA
ATOM     10  C   UNL     1      -0.694  -6.043   1.809  0.00  0.00    +0.043 C 
ATOM     11  C   UNL     1      -1.098  -6.864   0.576  0.00  0.00    +0.005 C 
ATOM     12  C   UNL     1      -0.138  -6.533  -0.570  0.00  0.00    +0.005 C 
ATOM     13  C   UNL     1      -0.393  -5.109  -1.066  0.00  0.00    +0.037 C 
ATOM     14  N   UNL     1       0.014  -2.598  -2.458  0.00  0.00    -0.343 N 
ATOM     15  H   UNL     1      -0.329  -3.501  -2.538  0.00  0.00    +0.144 HD
ATOM     16  H   UNL     1       0.355  -2.138  -3.241  0.00  0.00    +0.144 HD
ENDROOT
BRANCH   1  17
ATOM     17  C   UNL     1       0.379   1.480   0.021  0.00  0.00    +0.308 C 
BRANCH  17  18
ATOM     18  O   UNL     1       1.795   1.787   0.111  0.00  0.00    -0.453 OA
BRANCH  18  19
ATOM     19  C   UNL     1       2.138   3.090   0.135  0.00  0.00    +0.343 C 
ATOM     20  O   UNL     1       1.278   3.946   0.081  0.00  0.00    -0.245 OA
BRANCH  19  23
ATOM     21  N   UNL     1       5.395   4.673   0.343  0.00  0.00    -0.239 N 
ATOM     22  C   UNL     1       4.056   4.764   0.253  0.00  0.00    +0.129 A 
ATOM     23  C   UNL     1       3.557   3.476   0.225  0.00  0.00    +0.097 A 
ATOM     24  C   UNL     1       4.663   2.598   0.294  0.00  0.00    +0.149 A 
ATOM     25  N   UNL     1       5.748   3.319   0.364  0.00  0.00    -0.174 NA
BRANCH  21  29
ATOM     26  C   UNL     1       8.047   7.885   0.513  0.00  0.00    +0.000 A 
ATOM     27  C   UNL     1       8.530   6.589   0.543  0.00  0.00    +0.002 A 
ATOM     28  C   UNL     1       7.653   5.523   0.487  0.00  0.00    +0.028 A 
ATOM     29  C   UNL     1       6.287   5.753   0.401  0.00  0.00    +0.065 A 
ATOM     30  C   UNL     1       5.806   7.055   0.366  0.00  0.00    +0.028 A 
ATOM     31  C   UNL     1       6.687   8.117   0.428  0.00  0.00    +0.002 A 
ENDBRANCH  21  29
ENDBRANCH  19  23
ENDBRANCH  18  19
ENDBRANCH  17  18
ENDBRANCH   1  17
TORSDOF 5
