REMARK  Name = ZINC20700245
REMARK  3 active torsions:
REMARK  status: ('A' for Active; 'I' for Inactive)
REMARK    1  A    between atoms: C_5  and  C_7
REMARK    2  A    between atoms: C_17  and  N_24
REMARK    3  A    between atoms: C_20  and  O_23
REMARK                            x       y       z     vdW  Elec       q    Type
REMARK                         _______ _______ _______ _____ _____    ______ ____
ROOT
ATOM      1  C   UNL     1       3.658  -1.983  -0.980  0.00  0.00    +0.106 C 
ATOM      2  C   UNL     1       2.460  -2.430  -0.168  0.00  0.00    +0.029 C 
ATOM      3  C   UNL     1       1.904  -3.836  -0.420  0.00  0.00    +0.033 C 
ATOM      4  C   UNL     1       0.425  -3.644  -0.077  0.00  0.00    -0.030 C 
ATOM      5  C   UNL     1       0.079  -2.375  -0.261  0.00  0.00    -0.023 C 
ATOM      6  C   UNL     1       1.259  -1.633  -0.766  0.00  0.00    +0.051 C 
ATOM      7  C   UNL     1       1.498  -0.206  -0.454  0.00  0.00    +0.014 A 
ATOM      8  C   UNL     1       0.456   0.669  -0.220  0.00  0.00    +0.132 A 
ATOM      9  C   UNL     1       0.704   2.001   0.050  0.00  0.00    +0.037 A 
ATOM     10  C   UNL     1       2.007   2.462   0.082  0.00  0.00    +0.049 A 
ATOM     11  C   UNL     1       3.057   1.594  -0.148  0.00  0.00    +0.138 A 
ATOM     12  C   UNL     1       2.819   0.240  -0.415  0.00  0.00    +0.076 A 
ATOM     13  N   UNL     1       3.929  -0.583  -0.614  0.00  0.00    -0.334 N 
ATOM     14  H   UNL     1       4.967  -0.233  -0.509  0.00  0.00    +0.147 HD
ENDROOT
BRANCH   1  19
ATOM     15  C   UNL     1       2.577  -1.065  -4.479  0.00  0.00    +0.000 A 
ATOM     16  C   UNL     1       2.776  -2.257  -5.151  0.00  0.00    +0.001 A 
ATOM     17  C   UNL     1       3.260  -3.360  -4.474  0.00  0.00    +0.020 A 
ATOM     18  C   UNL     1       3.551  -3.271  -3.124  0.00  0.00    +0.046 A 
ATOM     19  C   UNL     1       3.347  -2.079  -2.451  0.00  0.00    -0.009 A 
ATOM     20  C   UNL     1       2.863  -0.977  -3.130  0.00  0.00    +0.007 A 
ATOM     21 CL   UNL     1       4.167  -4.654  -2.275  0.00  0.00    -0.083 Cl
ENDBRANCH   1  19
BRANCH   8  22
ATOM     22  N   UNL     1      -0.939   0.176  -0.259  0.00  0.00    +0.057 N 
ATOM     23  O   UNL     1      -1.329  -0.472  -1.214  0.00  0.00    -0.126 OA
ATOM     24  O   UNL     1      -1.696   0.417   0.663  0.00  0.00    -0.126 OA
ENDBRANCH   8  22
BRANCH  11  25
ATOM     25  O   UNL     1       4.334   2.060  -0.117  0.00  0.00    -0.505 OA
ATOM     26  H   UNL     1       5.174   1.374  -0.299  0.00  0.00    +0.292 HD
ENDBRANCH  11  25
TORSDOF 3
