REMARK  Name = ZINC21241553
REMARK  9 active torsions:
REMARK  status: ('A' for Active; 'I' for Inactive)
REMARK    1  A    between atoms: C_1  and  C_2
REMARK    2  A    between atoms: C_2  and  C_4
REMARK    3  A    between atoms: C_2  and  N_30
REMARK    4  A    between atoms: C_7  and  S_16
REMARK    5  A    between atoms: N_8  and  C_9
REMARK    6  A    between atoms: S_16  and  C_17
REMARK    7  A    between atoms: C_17  and  C_18
REMARK    8  A    between atoms: N_20  and  C_21
REMARK    9  A    between atoms: C_26  and  N_27
REMARK                            x       y       z     vdW  Elec       q    Type
REMARK                         _______ _______ _______ _____ _____    ______ ____
ROOT
ATOM      1  C   UNL     1      -9.688   0.333   0.715  0.00  0.00    +0.125 A 
ATOM      2  N   UNL     1      -8.870   1.323   0.496  0.00  0.00    -0.135 NA
ATOM      3  N   UNL     1      -7.658   0.897   0.466  0.00  0.00    -0.122 NA
ATOM      4  C   UNL     1      -7.635  -0.400   0.665  0.00  0.00    +0.197 A 
ATOM      5  N   UNL     1      -8.932  -0.803   0.825  0.00  0.00    -0.275 N 
ENDROOT
BRANCH   5   6
ATOM      6  C   UNL     1      -9.391  -2.109   1.058  0.00  0.00    +0.050 A 
ATOM      7  C   UNL     1     -10.184  -2.745   0.112  0.00  0.00    +0.029 A 
ATOM      8  C   UNL     1     -10.630  -4.032   0.339  0.00  0.00    +0.040 A 
ATOM      9  C   UNL     1     -10.298  -4.683   1.516  0.00  0.00    +0.124 A 
ATOM     10  C   UNL     1      -9.512  -4.048   2.462  0.00  0.00    +0.040 A 
ATOM     11  C   UNL     1      -9.059  -2.763   2.236  0.00  0.00    +0.029 A 
ATOM     12  F   UNL     1     -10.740  -5.940   1.739  0.00  0.00    -0.205 F 
ENDBRANCH   5   6
BRANCH   1  14
ATOM     13  C   UNL     1     -11.788   0.607  -0.575  0.00  0.00    -0.005 C 
ATOM     14  C   UNL     1     -11.189   0.421   0.820  0.00  0.00    -0.002 C 
BRANCH  14  15
ATOM     15  N   UNL     1     -11.554   1.565   1.667  0.00  0.00    +0.386 N 
ATOM     16  C   UNL     1     -10.913   1.470   2.984  0.00  0.00    -0.078 C 
ATOM     17  C   UNL     1     -11.197   2.744   3.784  0.00  0.00    -0.019 C 
ATOM     18  C   UNL     1     -12.710   2.915   3.942  0.00  0.00    -0.004 C 
ATOM     19  C   UNL     1     -13.359   2.962   2.556  0.00  0.00    -0.019 C 
ATOM     20  C   UNL     1     -13.012   1.682   1.792  0.00  0.00    -0.078 C 
ATOM     21  H   UNL     1     -11.185   2.479   1.179  0.00  0.00    -0.081 HD
ENDBRANCH  14  15
ENDBRANCH   1  14
BRANCH   4  22
ATOM     22  S   UNL     1      -6.204  -1.428   0.710  0.00  0.00    -0.076 S 
BRANCH  22  23
ATOM     23  C   UNL     1      -4.918  -0.190   0.416  0.00  0.00    +0.173 C 
BRANCH  23  24
ATOM     24  C   UNL     1      -3.567  -0.859   0.412  0.00  0.00    +0.228 C 
ATOM     25  O   UNL     1      -3.483  -2.056   0.590  0.00  0.00    -0.275 OA
ATOM     26  N   UNL     1      -2.453  -0.128   0.210  0.00  0.00    -0.283 N 
ATOM     27  H   UNL     1      -2.520   0.967   0.135  0.00  0.00    +0.155 HD
BRANCH  26  28
ATOM     28  C   UNL     1      -1.211  -0.762   0.096  0.00  0.00    +0.064 A 
ATOM     29  C   UNL     1      -1.118  -2.005  -0.518  0.00  0.00    +0.025 A 
ATOM     30  C   UNL     1       0.109  -2.628  -0.629  0.00  0.00    +0.002 A 
ATOM     31  C   UNL     1       1.244  -2.017  -0.129  0.00  0.00    +0.002 A 
ATOM     32  C   UNL     1       1.156  -0.778   0.477  0.00  0.00    +0.034 A 
ATOM     33  C   UNL     1      -0.069  -0.151   0.596  0.00  0.00    +0.147 A 
BRANCH  33  34
ATOM     34  N   UNL     1      -0.164   1.173   1.251  0.00  0.00    +0.058 N 
ATOM     35  O   UNL     1       0.821   1.668   1.770  0.00  0.00    -0.126 OA
ATOM     36  O   UNL     1      -1.226   1.770   1.267  0.00  0.00    -0.126 OA
ENDBRANCH  33  34
ENDBRANCH  26  28
ENDBRANCH  23  24
ENDBRANCH  22  23
ENDBRANCH   4  22
TORSDOF 8
