REMARK  Name = ZINC09804151
REMARK  7 active torsions:
REMARK  status: ('A' for Active; 'I' for Inactive)
REMARK    1  A    between atoms: C_1  and  C_2
REMARK    2  A    between atoms: C_4  and  C_8
REMARK    3  A    between atoms: C_5  and  C_7
REMARK    4  A    between atoms: C_14  and  C_16
REMARK    5  A    between atoms: C_19  and  N_25
REMARK    6  A    between atoms: C_20  and  N_22
REMARK    7  A    between atoms: N_25  and  C_26
REMARK                            x       y       z     vdW  Elec       q    Type
REMARK                         _______ _______ _______ _____ _____    ______ ____
ROOT
ATOM      1  C   UNL     1      -1.638   2.355  -0.242  0.00  0.00    +0.081 A 
ATOM      2  C   UNL     1      -0.553   1.331  -0.215  0.00  0.00    +0.077 A 
ATOM      3  S   UNL     1       0.858   2.341  -0.154  0.00  0.00    -0.060 S 
ATOM      4  C   UNL     1       0.036   3.925  -0.159  0.00  0.00    +0.165 A 
ATOM      5  N   UNL     1      -1.250   3.607  -0.206  0.00  0.00    -0.225 NA
ATOM      6  N   UNL     1       0.597   5.165  -0.123  0.00  0.00    -0.261 N 
ATOM      7  C   UNL     1       1.937   5.298  -0.077  0.00  0.00    +0.250 C 
ATOM      8  O   UNL     1       2.646   4.310  -0.068  0.00  0.00    -0.270 OA
ATOM      9  H   UNL     1       0.032   5.954  -0.130  0.00  0.00    +0.157 HD
ENDROOT
BRANCH   1  13
ATOM     10  C   UNL     1      -5.413  -0.938  -0.432  0.00  0.00    +0.051 C 
ATOM     11  C   UNL     1      -4.735   0.407  -0.388  0.00  0.00    -0.012 A 
ATOM     12  C   UNL     1      -3.417   0.667  -0.334  0.00  0.00    +0.021 A 
ATOM     13  C   UNL     1      -2.997   1.998  -0.299  0.00  0.00    +0.011 A 
ATOM     14  C   UNL     1      -4.071   3.002  -0.321  0.00  0.00    -0.004 A 
ATOM     15  S   UNL     1      -5.495   2.018  -0.396  0.00  0.00    -0.098 S 
ATOM     16  C   UNL     1      -3.961   4.505  -0.288  0.00  0.00    +0.052 C 
ENDBRANCH   1  13
BRANCH   7  17
ATOM     17  C   UNL     1       2.544   6.641  -0.038  0.00  0.00    +0.039 A 
ATOM     18  C   UNL     1       1.731   7.778  -0.054  0.00  0.00    +0.015 A 
ATOM     19  C   UNL     1       2.293   9.022  -0.013  0.00  0.00    +0.026 A 
ATOM     20  C   UNL     1       3.678   9.163   0.035  0.00  0.00    +0.058 A 
ATOM     21  C   UNL     1       4.496   8.036   0.046  0.00  0.00    +0.148 A 
ATOM     22  C   UNL     1       3.935   6.780   0.010  0.00  0.00    +0.047 A 
BRANCH  21  23
ATOM     23  N   UNL     1       5.967   8.190   0.097  0.00  0.00    +0.058 N 
ATOM     24  O   UNL     1       6.736   7.128   0.231  0.00  0.00    -0.126 OA
ATOM     25  O   UNL     1       6.508   9.387   0.008  0.00  0.00    -0.126 OA
ENDBRANCH  21  23
BRANCH  20  26
ATOM     26  N   UNL     1       4.245  10.432   0.071  0.00  0.00    -0.339 N 
ATOM     27  H   UNL     1       5.207  10.535   0.009  0.00  0.00    +0.146 HD
BRANCH  26  28
ATOM     28  C   UNL     1       3.388  11.613   0.204  0.00  0.00    +0.071 C 
ATOM     29  C   UNL     1       3.626  12.771  -0.768  0.00  0.00    +0.024 C 
ATOM     30  C   UNL     1       4.040  12.906   0.699  0.00  0.00    +0.024 C 
ENDBRANCH  26  28
ENDBRANCH  20  26
ENDBRANCH   7  17
TORSDOF 5
