REMARK  Name = ZINC14233689
REMARK  7 active torsions:
REMARK  status: ('A' for Active; 'I' for Inactive)
REMARK    1  A    between atoms: C_2  and  C_3
REMARK    2  A    between atoms: C_3  and  N_4
REMARK    3  A    between atoms: N_4  and  S_5
REMARK    4  A    between atoms: S_5  and  C_8
REMARK    5  A    between atoms: C_11  and  C_14
REMARK    6  A    between atoms: N_16  and  N_17
REMARK    7  A    between atoms: C_18  and  C_20
REMARK                            x       y       z     vdW  Elec       q    Type
REMARK                         _______ _______ _______ _____ _____    ______ ____
ROOT
ATOM      1  C   UNL     1      -3.120   3.066   4.885  0.00  0.00    +0.260 C 
ATOM      2  O   UNL     1      -3.929   2.304   5.377  0.00  0.00    -0.269 OA
ATOM      3  N   UNL     1      -2.920   4.282   5.432  0.00  0.00    -0.230 N 
ATOM      4  H   UNL     1      -2.275   4.890   5.039  0.00  0.00    +0.173 HD
ENDROOT
BRANCH   1   8
ATOM      5  C   UNL     1      -0.927   1.900   1.439  0.00  0.00    +0.105 A 
ATOM      6  C   UNL     1      -0.715   3.146   2.002  0.00  0.00    +0.029 A 
ATOM      7  C   UNL     1      -1.427   3.533   3.118  0.00  0.00    +0.015 A 
ATOM      8  C   UNL     1      -2.357   2.660   3.686  0.00  0.00    +0.038 A 
ATOM      9  C   UNL     1      -2.562   1.402   3.117  0.00  0.00    +0.015 A 
ATOM     10  C   UNL     1      -1.846   1.030   1.998  0.00  0.00    +0.029 A 
BRANCH   5  11
ATOM     11  S   UNL     1      -0.017   1.417   0.010  0.00  0.00    +0.059 S 
ATOM     12  O   UNL     1       0.002  -0.004   0.002  0.00  0.00    -0.153 OA
ATOM     13  O   UNL     1       1.172   2.195   0.003  0.00  0.00    -0.153 OA
BRANCH  11  14
ATOM     14  N   UNL     1      -0.897   1.885  -1.312  0.00  0.00    -0.186 NA
ATOM     15  H   UNL     1      -1.263   1.218  -1.913  0.00  0.00    +0.148 HD
BRANCH  14  16
ATOM     16  C   UNL     1      -1.125   3.309  -1.574  0.00  0.00    +0.132 C 
BRANCH  16  18
ATOM     17  C   UNL     1      -2.737   4.123  -3.217  0.00  0.00    +0.005 C 
ATOM     18  C   UNL     1      -1.614   3.488  -2.988  0.00  0.00    -0.018 C 
ENDBRANCH  16  18
ENDBRANCH  14  16
ENDBRANCH  11  14
ENDBRANCH   5  11
ENDBRANCH   1   8
BRANCH   3  19
ATOM     19  N   UNL     1      -3.644   4.666   6.568  0.00  0.00    -0.234 N 
ATOM     20  C   UNL     1      -3.444   5.882   7.115  0.00  0.00    +0.235 C 
ATOM     21  O   UNL     1      -2.637   6.642   6.624  0.00  0.00    -0.274 OA
ATOM     22  H   UNL     1      -4.289   4.058   6.961  0.00  0.00    +0.173 HD
BRANCH  20  23
ATOM     23  C   UNL     1      -4.222   6.295   8.337  0.00  0.00    +0.049 C 
ATOM     24  C   UNL     1      -5.719   6.275   8.019  0.00  0.00    +0.019 C 
ATOM     25  C   UNL     1      -6.509   6.696   9.260  0.00  0.00    -0.009 C 
ATOM     26  C   UNL     1      -6.095   8.109   9.674  0.00  0.00    +0.007 C 
ATOM     27  C   UNL     1      -4.598   8.129   9.992  0.00  0.00    -0.009 C 
ATOM     28  C   UNL     1      -3.808   7.709   8.751  0.00  0.00    +0.019 C 
ATOM     29  C   UNL     1      -4.307   7.156  11.136  0.00  0.00    +0.007 C 
ATOM     30  C   UNL     1      -4.721   5.743  10.722  0.00  0.00    -0.009 C 
ATOM     31  C   UNL     1      -6.218   5.723  10.404  0.00  0.00    +0.007 C 
ATOM     32  C   UNL     1      -3.931   5.322   9.481  0.00  0.00    +0.019 C 
ENDBRANCH  20  23
ENDBRANCH   3  19
TORSDOF 7
