REMARK  Name = ZINC64727849
REMARK  8 active torsions:
REMARK  status: ('A' for Active; 'I' for Inactive)
REMARK    1  A    between atoms: C_7  and  C_10
REMARK    2  A    between atoms: C_10  and  C_11
REMARK    3  A    between atoms: C_11  and  C_13
REMARK    4  A    between atoms: C_11  and  N_24
REMARK    5  A    between atoms: N_15  and  C_16
REMARK    6  A    between atoms: C_16  and  C_17
REMARK    7  A    between atoms: C_17  and  C_18
REMARK    8  A    between atoms: C_25  and  C_27
REMARK                            x       y       z     vdW  Elec       q    Type
REMARK                         _______ _______ _______ _____ _____    ______ ____
ROOT
ATOM      1  C   UNL     1       0.457  -3.653  -1.462  0.00  0.00    +0.163 C 
ENDROOT
BRANCH   1   2
ATOM      2  C   UNL     1      -0.578  -4.750  -1.471  0.00  0.00    +0.234 C 
ATOM      3  O   UNL     1      -0.231  -5.909  -1.548  0.00  0.00    -0.274 OA
ATOM      4  N   UNL     1      -1.887  -4.441  -1.394  0.00  0.00    -0.313 N 
ATOM      5  H   UNL     1      -2.164  -3.513  -1.333  0.00  0.00    +0.149 HD
BRANCH   4   6
ATOM      6  C   UNL     1      -2.893  -5.507  -1.403  0.00  0.00    +0.108 C 
BRANCH   6   7
ATOM      7  C   UNL     1      -4.290  -4.891  -1.306  0.00  0.00    +0.049 C 
BRANCH   7   8
ATOM      8  C   UNL     1      -5.324  -5.987  -1.316  0.00  0.00    -0.072 C 
ATOM      9  C   UNL     1      -5.764  -6.416  -0.177  0.00  0.00    -0.028 C 
ATOM     10  C   UNL     1      -6.783  -7.507  -0.026  0.00  0.00    +0.027 C 
ATOM     11  C   UNL     1      -7.519  -7.727  -1.349  0.00  0.00    +0.004 C 
ATOM     12  C   UNL     1      -6.477  -7.862  -2.467  0.00  0.00    +0.005 C 
ATOM     13  C   UNL     1      -5.784  -6.508  -2.646  0.00  0.00    +0.030 C 
ENDBRANCH   7   8
ENDBRANCH   6   7
ENDBRANCH   4   6
ENDBRANCH   1   2
BRANCH   1  14
ATOM     14  N   UNL     1       1.712  -4.162  -2.020  0.00  0.00    -0.300 N 
ATOM     15  C   UNL     1       2.336  -5.203  -1.437  0.00  0.00    +0.246 C 
ATOM     16  O   UNL     1       1.858  -5.722  -0.446  0.00  0.00    -0.270 OA
ATOM     17  H   UNL     1       2.094  -3.748  -2.811  0.00  0.00    +0.150 HD
BRANCH  15  18
ATOM     18  C   UNL     1       3.603  -5.716  -2.000  0.00  0.00    +0.055 A 
ATOM     19  C   UNL     1       4.158  -5.120  -3.134  0.00  0.00    +0.014 A 
ATOM     20  C   UNL     1       5.340  -5.603  -3.654  0.00  0.00    +0.001 A 
ATOM     21  C   UNL     1       5.977  -6.676  -3.056  0.00  0.00    +0.001 A 
ATOM     22  C   UNL     1       5.433  -7.273  -1.933  0.00  0.00    +0.021 A 
ATOM     23  C   UNL     1       4.253  -6.796  -1.397  0.00  0.00    +0.053 A 
ATOM     24 CL   UNL     1       3.575  -7.540   0.017  0.00  0.00    -0.083 Cl
ENDBRANCH  15  18
ENDBRANCH   1  14
BRANCH   1  25
ATOM     25  C   UNL     1       0.691  -3.186  -0.024  0.00  0.00    +0.065 C 
BRANCH  25  32
ATOM     26  C   UNL     1      -0.016   1.348   0.009  0.00  0.00    +0.001 A 
ATOM     27  C   UNL     1       1.166   2.101   0.002  0.00  0.00    +0.002 A 
ATOM     28  C   UNL     1       2.391   1.535  -0.013  0.00  0.00    +0.026 A 
ATOM     29  C   UNL     1       2.529   0.120  -0.022  0.00  0.00    +0.043 A 
ATOM     30  N   UNL     1       3.587  -0.654  -0.037  0.00  0.00    -0.380 N 
ATOM     31  C   UNL     1       3.143  -2.053  -0.041  0.00  0.00    +0.144 C 
ATOM     32  C   UNL     1       1.631  -2.008  -0.025  0.00  0.00    -0.039 C 
ATOM     33  C   UNL     1       1.295  -0.698  -0.014  0.00  0.00    -0.001 A 
ATOM     34  C   UNL     1       0.002  -0.004   0.002  0.00  0.00    +0.010 A 
ATOM     35  H   UNL     1       4.509  -0.353  -0.045  0.00  0.00    +0.160 HD
ENDBRANCH  25  32
ENDBRANCH   1  25
TORSDOF 8
