REMARK  Name = ZINC20464677
REMARK  11 active torsions:
REMARK  status: ('A' for Active; 'I' for Inactive)
REMARK    1  A    between atoms: C_4  and  C_7
REMARK    2  A    between atoms: C_7  and  N_8
REMARK    3  A    between atoms: N_8  and  C_9
REMARK    4  A    between atoms: N_8  and  C_16
REMARK    5  A    between atoms: C_9  and  C_10
REMARK    6  A    between atoms: C_16  and  C_17
REMARK    7  A    between atoms: C_19  and  N_29
REMARK    8  A    between atoms: C_21  and  O_28
REMARK    9  A    between atoms: C_23  and  C_26
REMARK   10  A    between atoms: C_26  and  O_27
REMARK   11  A    between atoms: N_32  and  C_35
REMARK                            x       y       z     vdW  Elec       q    Type
REMARK                         _______ _______ _______ _____ _____    ______ ____
ROOT
ATOM      1  C   UNL     1      -3.882  -0.346   0.727  0.00  0.00    +0.122 C 
ATOM      2  C   UNL     1      -3.289  -1.153  -0.444  0.00  0.00    +0.115 C 
ATOM      3  C   UNL     1      -2.030  -0.351  -0.857  0.00  0.00    +0.165 C 
ATOM      4  C   UNL     1      -2.335   1.053  -0.278  0.00  0.00    +0.174 C 
ATOM      5  O   UNL     1      -3.006   0.769   0.969  0.00  0.00    -0.369 OA
ENDROOT
BRANCH   2   6
ATOM      6  N   UNL     1      -2.917  -2.503  -0.002  0.00  0.00    -0.292 NA
ATOM      7  C   UNL     1      -1.873  -3.072  -0.867  0.00  0.00    +0.104 C 
ATOM      8  C   UNL     1      -1.458  -4.442  -0.327  0.00  0.00    +0.120 C 
ATOM      9  N   UNL     1      -2.634  -5.323  -0.277  0.00  0.00    -0.327 N 
ATOM     10  C   UNL     1      -3.677  -4.754   0.589  0.00  0.00    +0.120 C 
ATOM     11  C   UNL     1      -4.092  -3.384   0.049  0.00  0.00    +0.104 C 
BRANCH   9  12
ATOM     12  C   UNL     1      -2.280  -6.607   0.144  0.00  0.00    +0.030 A 
ATOM     13  C   UNL     1      -2.896  -7.170   1.254  0.00  0.00    +0.023 A 
ATOM     14  C   UNL     1      -2.547  -8.442   1.664  0.00  0.00    +0.002 A 
ATOM     15  C   UNL     1      -1.577  -9.150   0.978  0.00  0.00    +0.000 A 
ATOM     16  C   UNL     1      -0.958  -8.590  -0.125  0.00  0.00    +0.002 A 
ATOM     17  C   UNL     1      -1.306  -7.321  -0.543  0.00  0.00    +0.023 A 
ENDBRANCH   9  12
ENDBRANCH   2   6
BRANCH   3  18
ATOM     18  O   UNL     1      -0.855  -0.905  -0.262  0.00  0.00    -0.388 OA
ATOM     19  H   UNL     1       0.127  -0.449  -0.457  0.00  0.00    +0.210 HD
ENDBRANCH   3  18
BRANCH   1  20
ATOM     20  C   UNL     1      -3.968  -1.227   1.975  0.00  0.00    -0.044 C 
BRANCH  20  21
ATOM     21  N   UNL     1      -4.396  -0.413   3.121  0.00  0.00    +0.387 N 
ATOM     22  H   UNL     1      -3.735   0.464   3.178  0.00  0.00    -0.081 HD
BRANCH  21  23
ATOM     23  C   UNL     1      -5.772   0.069   2.939  0.00  0.00    -0.042 C 
BRANCH  23  27
ATOM     24  C   UNL     1      -6.559   3.213   5.722  0.00  0.00    +0.000 A 
ATOM     25  C   UNL     1      -5.940   3.494   4.518  0.00  0.00    +0.000 A 
ATOM     26  C   UNL     1      -5.685   2.477   3.617  0.00  0.00    +0.002 A 
ATOM     27  C   UNL     1      -6.049   1.178   3.921  0.00  0.00    -0.064 A 
ATOM     28  C   UNL     1      -6.673   0.897   5.122  0.00  0.00    +0.002 A 
ATOM     29  C   UNL     1      -6.924   1.914   6.024  0.00  0.00    +0.000 A 
ENDBRANCH  23  27
ENDBRANCH  21  23
BRANCH  21  30
ATOM     30  C   UNL     1      -4.263  -1.162   4.377  0.00  0.00    -0.042 C 
BRANCH  30  31
ATOM     31  C   UNL     1      -2.808  -1.252   4.757  0.00  0.00    -0.064 A 
ATOM     32  C   UNL     1      -2.077  -2.380   4.432  0.00  0.00    +0.002 A 
ATOM     33  C   UNL     1      -0.741  -2.460   4.777  0.00  0.00    +0.000 A 
ATOM     34  C   UNL     1      -0.137  -1.417   5.454  0.00  0.00    +0.000 A 
ATOM     35  C   UNL     1      -0.869  -0.291   5.782  0.00  0.00    +0.000 A 
ATOM     36  C   UNL     1      -2.204  -0.209   5.434  0.00  0.00    +0.002 A 
ENDBRANCH  30  31
ENDBRANCH  21  30
ENDBRANCH  20  21
ENDBRANCH   1  20
BRANCH   4  37
ATOM     37  C   UNL     1      -1.038   1.826  -0.027  0.00  0.00    +0.190 C 
BRANCH  37  38
ATOM     38  O   UNL     1      -1.349   3.138   0.444  0.00  0.00    -0.392 OA
ATOM     39  H   UNL     1      -0.539   3.844   0.680  0.00  0.00    +0.210 HD
ENDBRANCH  37  38
ENDBRANCH   4  37
TORSDOF 11
