REMARK  Name = ZINC64540572
REMARK  9 active torsions:
REMARK  status: ('A' for Active; 'I' for Inactive)
REMARK    1  A    between atoms: C_1  and  C_2
REMARK    2  A    between atoms: C_2  and  C_4
REMARK    3  A    between atoms: C_2  and  N_12
REMARK    4  A    between atoms: C_4  and  C_5
REMARK    5  A    between atoms: C_5  and  C_6
REMARK    6  A    between atoms: C_13  and  C_15
REMARK    7  A    between atoms: C_15  and  C_17
REMARK    8  A    between atoms: C_15  and  C_18
REMARK    9  A    between atoms: C_24  and  C_26
REMARK                            x       y       z     vdW  Elec       q    Type
REMARK                         _______ _______ _______ _____ _____    ______ ____
ROOT
ATOM      1  C   UNL     1      -0.191  -1.204   4.756  0.00  0.00    +0.004 C 
ATOM      2  C   UNL     1      -1.336  -2.161   4.417  0.00  0.00    +0.023 C 
ATOM      3  C   UNL     1      -2.325  -2.203   5.587  0.00  0.00    +0.108 C 
ATOM      4  N   UNL     1      -1.592  -2.549   6.813  0.00  0.00    -0.300 N 
ATOM      5  C   UNL     1      -0.417  -1.748   7.184  0.00  0.00    +0.108 C 
ATOM      6  C   UNL     1       0.549  -1.711   5.996  0.00  0.00    +0.023 C 
ATOM      7  C   UNL     1      -1.990  -3.581   7.582  0.00  0.00    +0.242 C 
ATOM      8  O   UNL     1      -2.961  -4.235   7.266  0.00  0.00    -0.273 OA
ENDROOT
BRANCH   7   9
ATOM      9  C   UNL     1      -1.228  -3.924   8.837  0.00  0.00    +0.190 C 
ATOM     10  C   UNL     1       0.190  -4.324   8.493  0.00  0.00    +0.016 C 
ATOM     11  C   UNL     1       0.335  -5.597   8.925  0.00  0.00    -0.004 A 
ATOM     12  C   UNL     1       1.461  -6.537   8.887  0.00  0.00    +0.010 A 
ATOM     13  C   UNL     1       1.302  -7.774   9.412  0.00  0.00    +0.001 A 
ATOM     14  C   UNL     1       0.090  -8.179   9.989  0.00  0.00    +0.002 A 
ATOM     15  C   UNL     1      -0.989  -7.371  10.061  0.00  0.00    +0.026 A 
ATOM     16  C   UNL     1      -0.933  -6.049   9.540  0.00  0.00    +0.043 A 
ATOM     17  N   UNL     1      -1.829  -5.091   9.491  0.00  0.00    -0.370 N 
ATOM     18  H   UNL     1      -2.737  -5.145   9.830  0.00  0.00    +0.161 HD
ENDBRANCH   7   9
BRANCH   1  19
ATOM     19  C   UNL     1       0.780  -1.133   3.576  0.00  0.00    +0.075 C 
ATOM     20  C   UNL     1       1.924  -0.175   3.914  0.00  0.00    +0.017 C 
BRANCH  19  22
ATOM     21  N   UNL     1       0.711  -0.489   1.189  0.00  0.00    -0.312 N 
ATOM     22  C   UNL     1       0.051  -0.633   2.355  0.00  0.00    +0.216 C 
ATOM     23  O   UNL     1      -1.129  -0.361   2.423  0.00  0.00    -0.276 OA
ATOM     24  H   UNL     1       1.654  -0.707   1.135  0.00  0.00    +0.149 HD
BRANCH  21  26
ATOM     25  C   UNL     1      -0.019   1.526   0.010  0.00  0.00    +0.028 C 
ATOM     26  C   UNL     1       0.002  -0.004   0.002  0.00  0.00    +0.070 C 
BRANCH  26  27
ATOM     27  C   UNL     1       0.718  -0.497  -1.257  0.00  0.00    +0.026 C 
BRANCH  27  28
ATOM     28  C   UNL     1       0.630  -2.023  -1.329  0.00  0.00    +0.037 C 
BRANCH  28  29
ATOM     29  C   UNL     1       1.336  -2.509  -2.568  0.00  0.00    -0.047 A 
ATOM     30  C   UNL     1       0.638  -2.639  -3.755  0.00  0.00    +0.003 A 
ATOM     31  C   UNL     1       1.285  -3.085  -4.892  0.00  0.00    +0.000 A 
ATOM     32  C   UNL     1       2.630  -3.400  -4.843  0.00  0.00    +0.000 A 
ATOM     33  C   UNL     1       3.328  -3.270  -3.657  0.00  0.00    +0.000 A 
ATOM     34  C   UNL     1       2.682  -2.820  -2.521  0.00  0.00    +0.003 A 
ENDBRANCH  28  29
ENDBRANCH  27  28
ENDBRANCH  26  27
ENDBRANCH  21  26
ENDBRANCH  19  22
ENDBRANCH   1  19
TORSDOF 7
