REMARK  Name = ZINC39639420
REMARK  10 active torsions:
REMARK  status: ('A' for Active; 'I' for Inactive)
REMARK    1  A    between atoms: C_1  and  C_2
REMARK    2  A    between atoms: C_5  and  C_8
REMARK    3  A    between atoms: C_8  and  C_10
REMARK    4  A    between atoms: C_8  and  N_11
REMARK    5  A    between atoms: C_12  and  C_14
REMARK    6  A    between atoms: C_25  and  C_27
REMARK    7  A    between atoms: C_27  and  C_28
REMARK    8  A    between atoms: C_28  and  C_29
REMARK    9  A    between atoms: C_32  and  O_35
REMARK   10  A    between atoms: O_35  and  C_36
REMARK                            x       y       z     vdW  Elec       q    Type
REMARK                         _______ _______ _______ _____ _____    ______ ____
ROOT
ATOM      1  C   UNL     1       2.460  -6.468   1.999  0.00  0.00    +0.100 C 
ATOM      2  C   UNL     1       1.730  -6.497   3.361  0.00  0.00    +0.121 C 
ATOM      3  N   UNL     1       1.236  -7.888   3.492  0.00  0.00    -0.300 N 
ATOM      4  C   UNL     1       2.335  -8.722   2.948  0.00  0.00    +0.115 C 
ATOM      5  C   UNL     1       2.858  -7.930   1.734  0.00  0.00    -0.004 C 
ATOM      6  C   UNL     1       4.375  -8.055   1.635  0.00  0.00    -0.010 C 
ATOM      7  C   UNL     1       4.744  -9.505   1.313  0.00  0.00    -0.082 C 
ATOM      8  N   UNL     1       4.118  -9.901   0.046  0.00  0.00    +0.379 N 
ATOM      9  C   UNL     1       2.656  -9.868   0.178  0.00  0.00    -0.082 C 
ATOM     10  C   UNL     1       2.199  -8.432   0.453  0.00  0.00    -0.010 C 
ATOM     11  C   UNL     1       0.055  -8.302   3.992  0.00  0.00    +0.216 C 
ATOM     12  O   UNL     1      -0.205  -9.486   4.033  0.00  0.00    -0.276 OA
ATOM     13  H   UNL     1       4.403  -9.264  -0.682  0.00  0.00    -0.086 HD
ATOM     14  H   UNL     1       4.411 -10.836  -0.195  0.00  0.00    -0.086 HD
ENDROOT
BRANCH   1  16
ATOM     15  N   UNL     1       2.036  -5.337  -0.159  0.00  0.00    -0.308 N 
ATOM     16  C   UNL     1       1.534  -5.972   0.919  0.00  0.00    +0.219 C 
ATOM     17  O   UNL     1       0.338  -6.144   1.019  0.00  0.00    -0.275 OA
ATOM     18  H   UNL     1       2.993  -5.200  -0.239  0.00  0.00    +0.149 HD
BRANCH  15  19
ATOM     19  C   UNL     1       1.136  -4.855  -1.210  0.00  0.00    +0.100 C 
ATOM     20  C   UNL     1       0.601  -3.473  -0.828  0.00  0.00    +0.033 C 
BRANCH  19  25
ATOM     21  C   UNL     1       4.022  -4.487  -6.202  0.00  0.00    +0.044 C 
ATOM     22  C   UNL     1       3.269  -4.583  -4.900  0.00  0.00    -0.050 A 
ATOM     23  C   UNL     1       1.970  -5.053  -4.886  0.00  0.00    +0.004 A 
ATOM     24  C   UNL     1       1.279  -5.142  -3.692  0.00  0.00    +0.006 A 
ATOM     25  C   UNL     1       1.889  -4.760  -2.512  0.00  0.00    -0.027 A 
ATOM     26  C   UNL     1       3.189  -4.290  -2.525  0.00  0.00    +0.006 A 
ATOM     27  C   UNL     1       3.881  -4.206  -3.719  0.00  0.00    +0.004 A 
ENDBRANCH  19  25
ENDBRANCH  15  19
ENDBRANCH   1  16
BRANCH  11  28
ATOM     28  C   UNL     1      -0.942  -7.293   4.502  0.00  0.00    +0.100 C 
BRANCH  28  29
ATOM     29  C   UNL     1      -2.188  -8.020   5.012  0.00  0.00    +0.044 C 
BRANCH  29  30
ATOM     30  C   UNL     1      -3.185  -7.011   5.521  0.00  0.00    -0.047 A 
ATOM     31  C   UNL     1      -3.150  -6.615   6.846  0.00  0.00    +0.007 A 
ATOM     32  C   UNL     1      -4.063  -5.691   7.315  0.00  0.00    +0.046 A 
ATOM     33  C   UNL     1      -5.015  -5.160   6.457  0.00  0.00    +0.120 A 
ATOM     34  C   UNL     1      -5.047  -5.559   5.129  0.00  0.00    +0.046 A 
ATOM     35  C   UNL     1      -4.129  -6.479   4.663  0.00  0.00    +0.007 A 
BRANCH  33  36
ATOM     36  O   UNL     1      -5.915  -4.251   6.917  0.00  0.00    -0.495 OA
ATOM     37  C   UNL     1      -6.866  -3.747   5.977  0.00  0.00    +0.277 C 
ENDBRANCH  33  36
ENDBRANCH  29  30
ENDBRANCH  28  29
ENDBRANCH  11  28
TORSDOF 7
