REMARK  Name = ZINC48953702
REMARK  6 active torsions:
REMARK  status: ('A' for Active; 'I' for Inactive)
REMARK    1  A    between atoms: C_1  and  C_2
REMARK    2  A    between atoms: C_2  and  N_3
REMARK    3  A    between atoms: N_3  and  C_4
REMARK    4  A    between atoms: N_3  and  C_11
REMARK    5  A    between atoms: C_4  and  C_5
REMARK    6  A    between atoms: C_16  and  N_17
REMARK                            x       y       z     vdW  Elec       q    Type
REMARK                         _______ _______ _______ _____ _____    ______ ____
ROOT
ATOM      1  C   UNL     1      -0.041  -0.714  -2.377  0.00  0.00    +0.051 A 
ATOM      2  C   UNL     1      -0.216   0.303  -3.303  0.00  0.00    +0.030 A 
ATOM      3  C   UNL     1      -0.935   0.071  -4.460  0.00  0.00    -0.024 A 
ATOM      4  C   UNL     1      -1.484  -1.182  -4.699  0.00  0.00    +0.038 A 
ATOM      5  C   UNL     1      -1.312  -2.204  -3.776  0.00  0.00    +0.048 A 
ATOM      6  C   UNL     1      -0.587  -1.975  -2.618  0.00  0.00    +0.048 A 
ATOM      7  N   UNL     1      -2.212  -1.412  -5.874  0.00  0.00    -0.285 N 
ATOM      8  C   UNL     1      -2.083  -0.587  -6.929  0.00  0.00    +0.218 C 
ATOM      9  O   UNL     1      -2.732  -0.792  -7.933  0.00  0.00    -0.275 OA
ATOM     10  C   UNL     1      -1.144   0.588  -6.877  0.00  0.00    +0.101 C 
ATOM     11  C   UNL     1      -1.125   1.177  -5.466  0.00  0.00    +0.046 C 
ATOM     12  H   UNL     1      -2.814  -2.171  -5.927  0.00  0.00    +0.155 HD
ENDROOT
BRANCH   6  13
ATOM     13  N   UNL     1      -0.407  -3.005  -1.687  0.00  0.00    -0.356 N 
ATOM     14  H   UNL     1       0.098  -2.843  -0.875  0.00  0.00    +0.142 HD
ATOM     15  H   UNL     1      -0.786  -3.882  -1.855  0.00  0.00    +0.142 HD
ENDBRANCH   6  13
BRANCH   1  16
ATOM     16  N   UNL     1       0.688  -0.476  -1.203  0.00  0.00    -0.326 N 
BRANCH  16  18
ATOM     17  C   UNL     1      -0.019   1.526   0.010  0.00  0.00    +0.024 C 
ATOM     18  C   UNL     1       0.002  -0.004   0.002  0.00  0.00    +0.102 C 
ENDBRANCH  16  18
BRANCH  16  19
ATOM     19  C   UNL     1       2.135  -0.701  -1.182  0.00  0.00    +0.136 C 
BRANCH  19  20
ATOM     20  C   UNL     1       2.421  -2.145  -0.763  0.00  0.00    +0.135 C 
ATOM     21  C   UNL     1       3.949  -2.394  -0.701  0.00  0.00    +0.035 C 
ATOM     22  C   UNL     1       4.014  -3.575   0.305  0.00  0.00    +0.031 C 
ATOM     23  C   UNL     1       2.847  -3.255   1.263  0.00  0.00    +0.160 C 
ATOM     24  O   UNL     1       1.946  -2.380   0.571  0.00  0.00    -0.375 OA
ENDBRANCH  19  20
ENDBRANCH  16  19
ENDBRANCH   1  16
TORSDOF 5
