REMARK  Name = ZINC19221786
REMARK  6 active torsions:
REMARK  status: ('A' for Active; 'I' for Inactive)
REMARK    1  A    between atoms: C_1  and  C_2
REMARK    2  A    between atoms: C_7  and  C_12
REMARK    3  A    between atoms: N_14  and  C_15
REMARK    4  A    between atoms: C_15  and  C_17
REMARK    5  A    between atoms: C_15  and  C_18
REMARK    6  A    between atoms: C_25  and  C_27
REMARK                            x       y       z     vdW  Elec       q    Type
REMARK                         _______ _______ _______ _____ _____    ______ ____
ROOT
ATOM      1  C   UNL     1       0.114  -6.826   4.430  0.00  0.00    +0.117 C 
ATOM      2  C   UNL     1       1.559  -7.311   4.570  0.00  0.00    +0.034 C 
ENDROOT
BRANCH   1   3
ATOM      3  C   UNL     1      -0.483  -6.626   5.799  0.00  0.00    +0.043 A 
ATOM      4  C   UNL     1      -1.512  -7.402   6.209  0.00  0.00    +0.095 A 
ATOM      5  C   UNL     1      -2.067  -7.212   7.490  0.00  0.00    +0.275 A 
ATOM      6  N   UNL     1      -1.571  -6.257   8.301  0.00  0.00    -0.180 N 
ATOM      7  C   UNL     1      -0.532  -5.477   7.881  0.00  0.00    +0.138 A 
ATOM      8  N   UNL     1       0.017  -5.666   6.627  0.00  0.00    -0.342 N 
ATOM      9  C   UNL     1      -0.241  -4.608   8.890  0.00  0.00    +0.071 A 
ATOM     10  C   UNL     1      -1.120  -4.866   9.944  0.00  0.00    +0.069 A 
ATOM     11  N   UNL     1      -1.913  -5.848   9.596  0.00  0.00    -0.167 NA
ATOM     12  O   UNL     1      -2.994  -7.909   7.864  0.00  0.00    -0.266 OA
ATOM     13  H   UNL     1       0.757  -5.111   6.334  0.00  0.00    +0.167 HD
BRANCH  10  14
ATOM     14  C   UNL     1      -1.150  -4.136  11.262  0.00  0.00    +0.044 C 
ATOM     15  C   UNL     1      -0.787  -2.664  11.040  0.00  0.00    +0.038 C 
ATOM     16  C   UNL     1      -0.744  -1.949  12.393  0.00  0.00    +0.160 C 
ATOM     17  O   UNL     1       0.201  -2.601  13.245  0.00  0.00    -0.380 OA
ATOM     18  C   UNL     1      -0.113  -3.967  13.525  0.00  0.00    +0.160 C 
ATOM     19  C   UNL     1      -0.131  -4.763  12.218  0.00  0.00    +0.038 C 
ENDBRANCH  10  14
ENDBRANCH   1   3
BRANCH   1  22
ATOM     20  C   UNL     1       0.088  -5.558   2.350  0.00  0.00    +0.261 C 
ATOM     21  O   UNL     1       0.100  -6.611   1.742  0.00  0.00    -0.269 OA
ATOM     22  N   UNL     1       0.094  -5.558   3.698  0.00  0.00    -0.302 N 
ATOM     23  H   UNL     1       0.085  -4.718   4.183  0.00  0.00    +0.150 HD
BRANCH  20  30
ATOM     24  C   UNL     1      -0.018   1.503   0.010  0.00  0.00    +0.044 C 
ATOM     25  C   UNL     1       0.002  -0.004   0.002  0.00  0.00    -0.048 A 
ATOM     26  C   UNL     1       0.006  -0.685  -1.209  0.00  0.00    +0.004 A 
ATOM     27  C   UNL     1       0.024  -2.049  -1.239  0.00  0.00    +0.010 A 
ATOM     28  C   UNL     1       0.040  -2.772  -0.039  0.00  0.00    +0.000 A 
ATOM     29  C   UNL     1       0.060  -4.156   0.263  0.00  0.00    +0.040 A 
ATOM     30  C   UNL     1       0.068  -4.284   1.615  0.00  0.00    +0.103 A 
ATOM     31  N   UNL     1       0.053  -3.028   2.189  0.00  0.00    -0.351 N 
ATOM     32  H   UNL     1       0.056  -2.842   3.142  0.00  0.00    +0.166 HD
ATOM     33  C   UNL     1       0.036  -2.084   1.190  0.00  0.00    +0.047 A 
ATOM     34  C   UNL     1       0.023  -0.692   1.194  0.00  0.00    +0.029 A 
ENDBRANCH  20  30
ENDBRANCH   1  22
TORSDOF 4
