REMARK  Name = ZINC36066308
REMARK  9 active torsions:
REMARK  status: ('A' for Active; 'I' for Inactive)
REMARK    1  A    between atoms: C_1  and  C_2
REMARK    2  A    between atoms: C_2  and  C_3
REMARK    3  A    between atoms: C_2  and  C_4
REMARK    4  A    between atoms: C_4  and  C_5
REMARK    5  A    between atoms: C_5  and  N_6
REMARK    6  A    between atoms: C_7  and  C_31
REMARK    7  A    between atoms: C_15  and  C_21
REMARK    8  A    between atoms: N_23  and  C_24
REMARK    9  A    between atoms: N_33  and  C_34
REMARK                            x       y       z     vdW  Elec       q    Type
REMARK                         _______ _______ _______ _____ _____    ______ ____
ROOT
ATOM      1  N   UNL     1      -3.527  -0.778  -1.948  0.00  0.00    -0.287 N 
ATOM      2  C   UNL     1      -4.062  -2.114  -2.362  0.00  0.00    +0.198 C 
ATOM      3  C   UNL     1      -5.529  -1.837  -2.476  0.00  0.00    +0.127 C 
ATOM      4  C   UNL     1      -5.874  -0.978  -3.679  0.00  0.00    +0.009 C 
ATOM      5  C   UNL     1      -7.191  -0.830  -3.649  0.00  0.00    +0.004 C 
ATOM      6  C   UNL     1      -7.643  -1.559  -2.377  0.00  0.00    +0.155 C 
ATOM      7  O   UNL     1      -6.653  -2.668  -2.309  0.00  0.00    -0.358 OA
ATOM      8  C   UNL     1      -7.152  -0.580  -1.241  0.00  0.00    +0.123 C 
ATOM      9  C   UNL     1      -5.673  -0.959  -1.169  0.00  0.00    +0.128 C 
ATOM     10  C   UNL     1      -4.518  -0.057  -1.327  0.00  0.00    +0.223 C 
ATOM     11  O   UNL     1      -4.456   1.103  -0.978  0.00  0.00    -0.275 OA
ENDROOT
BRANCH   8  12
ATOM     12  C   UNL     1      -7.343   0.859  -1.647  0.00  0.00    +0.224 C 
ATOM     13  O   UNL     1      -6.383   1.594  -1.742  0.00  0.00    -0.275 OA
ATOM     14  N   UNL     1      -8.579   1.328  -1.903  0.00  0.00    -0.285 N 
ATOM     15  H   UNL     1      -9.338   0.723  -1.902  0.00  0.00    +0.155 HD
BRANCH  14  16
ATOM     16  C   UNL     1      -8.770   2.689  -2.172  0.00  0.00    +0.033 A 
ATOM     17  C   UNL     1      -9.764   3.091  -3.054  0.00  0.00    +0.025 A 
ATOM     18  C   UNL     1      -9.950   4.434  -3.317  0.00  0.00    +0.022 A 
ATOM     19  C   UNL     1      -9.146   5.378  -2.703  0.00  0.00    +0.041 A 
ATOM     20  C   UNL     1      -8.155   4.980  -1.823  0.00  0.00    +0.022 A 
ATOM     21  C   UNL     1      -7.969   3.639  -1.552  0.00  0.00    +0.025 A 
ATOM     22 CL   UNL     1      -9.382   7.066  -3.037  0.00  0.00    -0.084 Cl
ENDBRANCH  14  16
ENDBRANCH   8  12
BRANCH   2  23
ATOM     23  C   UNL     1      -3.789  -3.154  -1.305  0.00  0.00    +0.237 C 
ATOM     24  O   UNL     1      -3.522  -2.812  -0.173  0.00  0.00    -0.274 OA
ATOM     25  N   UNL     1      -3.843  -4.463  -1.619  0.00  0.00    -0.311 N 
ATOM     26  H   UNL     1      -4.056  -4.736  -2.526  0.00  0.00    +0.149 HD
BRANCH  25  27
ATOM     27  C   UNL     1      -3.579  -5.474  -0.593  0.00  0.00    +0.073 C 
ATOM     28  C   UNL     1      -2.071  -5.711  -0.487  0.00  0.00    +0.022 C 
ATOM     29  C   UNL     1      -1.794  -6.767   0.585  0.00  0.00    +0.002 C 
ATOM     30  C   UNL     1      -2.491  -8.075   0.205  0.00  0.00    +0.000 C 
ATOM     31  C   UNL     1      -3.999  -7.838   0.099  0.00  0.00    +0.002 C 
ATOM     32  C   UNL     1      -4.275  -6.782  -0.973  0.00  0.00    +0.022 C 
ENDBRANCH  25  27
ENDBRANCH   2  23
BRANCH   1  33
ATOM     33  C   UNL     1      -2.155  -0.314  -2.166  0.00  0.00    +0.109 C 
BRANCH  33  34
ATOM     34  C   UNL     1      -1.287  -0.709  -0.969  0.00  0.00    +0.022 C 
BRANCH  34  36
ATOM     35  C   UNL     1       0.169   1.306  -1.225  0.00  0.00    +0.007 C 
ATOM     36  C   UNL     1       0.146  -0.224  -1.197  0.00  0.00    -0.016 C 
ATOM     37  C   UNL     1       1.041  -0.726  -0.062  0.00  0.00    +0.007 C 
ENDBRANCH  34  36
ENDBRANCH  33  34
ENDBRANCH   1  33
TORSDOF 7
