REMARK  Name = ZINC38597539
REMARK  6 active torsions:
REMARK  status: ('A' for Active; 'I' for Inactive)
REMARK    1  A    between atoms: C_10  and  C_11
REMARK    2  A    between atoms: N_13  and  C_14
REMARK    3  A    between atoms: C_14  and  C_15
REMARK    4  A    between atoms: C_15  and  C_17
REMARK    5  A    between atoms: C_15  and  N_22
REMARK    6  A    between atoms: N_25  and  C_28
REMARK                            x       y       z     vdW  Elec       q    Type
REMARK                         _______ _______ _______ _____ _____    ______ ____
ROOT
ATOM      1  C   UNL     1       8.517  -0.829  -0.120  0.00  0.00    +0.017 C 
ENDROOT
BRANCH   1   2
ATOM      2  N   UNL     1       8.424  -1.669  -1.322  0.00  0.00    +0.389 N 
ATOM      3  C   UNL     1       9.620  -2.514  -1.420  0.00  0.00    -0.059 C 
ATOM      4  C   UNL     1       9.579  -3.307  -2.731  0.00  0.00    +0.086 C 
ATOM      5  N   UNL     1       8.308  -4.045  -2.790  0.00  0.00    -0.333 N 
ATOM      6  C   UNL     1       7.063  -3.302  -2.539  0.00  0.00    +0.086 C 
ATOM      7  C   UNL     1       7.223  -2.510  -1.238  0.00  0.00    -0.059 C 
ATOM      8  H   UNL     1       8.363  -1.080  -2.139  0.00  0.00    -0.081 HD
BRANCH   5   9
ATOM      9  C   UNL     1       8.284  -5.413  -3.075  0.00  0.00    +0.030 A 
ATOM     10  C   UNL     1       7.070  -6.066  -3.251  0.00  0.00    +0.026 A 
ATOM     11  C   UNL     1       7.049  -7.418  -3.533  0.00  0.00    +0.040 A 
ATOM     12  C   UNL     1       8.236  -8.122  -3.641  0.00  0.00    +0.124 A 
ATOM     13  C   UNL     1       9.447  -7.474  -3.466  0.00  0.00    +0.040 A 
ATOM     14  C   UNL     1       9.473  -6.121  -3.189  0.00  0.00    +0.026 A 
ATOM     15  F   UNL     1       8.213  -9.445  -3.917  0.00  0.00    -0.205 F 
ENDBRANCH   5   9
ENDBRANCH   1   2
BRANCH   1  16
ATOM     16  C   UNL     1       9.799  -0.039  -0.158  0.00  0.00    +0.093 A 
ATOM     17  C   UNL     1      10.605   0.202   0.891  0.00  0.00    +0.043 A 
ATOM     18  C   UNL     1      11.686   0.976   0.408  0.00  0.00    +0.041 A 
ATOM     19  C   UNL     1      11.475   1.162  -0.907  0.00  0.00    +0.195 A 
ATOM     20  O   UNL     1      10.333   0.540  -1.246  0.00  0.00    -0.469 OA
ENDBRANCH   1  16
BRANCH   1  21
ATOM     21  C   UNL     1       7.326   0.131  -0.076  0.00  0.00    +0.097 C 
BRANCH  21  24
ATOM     22  C   UNL     1       6.367   1.889  -1.464  0.00  0.00    +0.245 C 
ATOM     23  O   UNL     1       5.583   2.129  -0.566  0.00  0.00    -0.270 OA
ATOM     24  N   UNL     1       7.279   0.908  -1.317  0.00  0.00    -0.312 N 
ATOM     25  H   UNL     1       7.904   0.716  -2.034  0.00  0.00    +0.149 HD
BRANCH  22  35
ATOM     26  C   UNL     1       3.280   5.472  -3.400  0.00  0.00    +0.001 A 
ATOM     27  C   UNL     1       3.304   4.744  -2.212  0.00  0.00    +0.001 A 
ATOM     28  C   UNL     1       4.284   3.829  -1.971  0.00  0.00    +0.009 A 
ATOM     29  C   UNL     1       5.284   3.615  -2.930  0.00  0.00    -0.006 A 
ATOM     30  C   UNL     1       5.261   4.353  -4.138  0.00  0.00    -0.017 A 
ATOM     31  C   UNL     1       4.235   5.289  -4.353  0.00  0.00    +0.008 A 
ATOM     32  C   UNL     1       6.263   4.138  -5.100  0.00  0.00    +0.008 A 
ATOM     33  C   UNL     1       7.248   3.225  -4.869  0.00  0.00    +0.001 A 
ATOM     34  C   UNL     1       7.287   2.491  -3.691  0.00  0.00    +0.013 A 
ATOM     35  C   UNL     1       6.319   2.671  -2.713  0.00  0.00    +0.044 A 
ENDBRANCH  22  35
ENDBRANCH  21  24
ENDBRANCH   1  21
TORSDOF 6
