REMARK  Name = ZINC20518962
REMARK  5 active torsions:
REMARK  status: ('A' for Active; 'I' for Inactive)
REMARK    1  A    between atoms: C_5  and  O_8
REMARK    2  A    between atoms: O_8  and  C_9
REMARK    3  A    between atoms: C_9  and  C_10
REMARK    4  A    between atoms: C_10  and  C_11
REMARK    5  A    between atoms: C_11  and  C_12
REMARK                            x       y       z     vdW  Elec       q    Type
REMARK                         _______ _______ _______ _____ _____    ______ ____
ROOT
ATOM      1  O   UNL     1      -2.423   3.803   0.045  0.00  0.00    -0.490 OA
ENDROOT
BRANCH   1   6
ATOM      2  C   UNL     1      -0.013   1.076   0.008  0.00  0.00    +0.034 A 
ATOM      3  C   UNL     1       1.176   1.783   0.000  0.00  0.00    +0.020 A 
ATOM      4  C   UNL     1       1.161   3.167   0.008  0.00  0.00    +0.034 A 
ATOM      5  C   UNL     1      -0.044   3.845   0.023  0.00  0.00    +0.062 A 
ATOM      6  C   UNL     1      -1.237   3.138   0.030  0.00  0.00    +0.148 A 
ATOM      7  C   UNL     1      -1.219   1.750   0.017  0.00  0.00    +0.062 A 
ATOM      8 BR   UNL     1      -2.844   0.782   0.020  0.00  0.00    -0.046 Br
ATOM      9 BR   UNL     1      -0.064   5.736   0.033  0.00  0.00    -0.046 Br
ATOM     10 BR   UNL     1       2.825   0.858  -0.021  0.00  0.00    -0.050 Br
ENDBRANCH   1   6
BRANCH   1  11
ATOM     11  C   UNL     1      -3.001   4.127  -1.222  0.00  0.00    +0.229 C 
BRANCH  11  12
ATOM     12  C   UNL     1      -4.321   4.868  -1.005  0.00  0.00    +0.048 C 
BRANCH  12  13
ATOM     13  C   UNL     1      -4.940   5.215  -2.361  0.00  0.00    +0.072 C 
BRANCH  13  14
ATOM     14  C   UNL     1      -6.241   5.945  -2.148  0.00  0.00    +0.063 C 
ATOM     15  N   UNL     1      -6.661   6.181  -0.948  0.00  0.00    -0.391 N 
ATOM     16  N   UNL     1      -6.979   6.359  -3.225  0.00  0.00    -0.348 N 
ATOM     17  H   UNL     1      -7.610   6.714  -0.792  0.00  0.00    +0.157 HD
ATOM     18  H   UNL     1      -7.928   6.891  -3.070  0.00  0.00    +0.143 HD
ATOM     19  H   UNL     1      -6.622   6.158  -4.246  0.00  0.00    +0.143 HD
ATOM     20  H   UNL     1      -6.068   5.848  -0.082  0.00  0.00    +0.157 HD
ENDBRANCH  13  14
ENDBRANCH  12  13
ENDBRANCH  11  12
ENDBRANCH   1  11
TORSDOF 5
