REMARK  Name = ZINC15676192
REMARK  5 active torsions:
REMARK  status: ('A' for Active; 'I' for Inactive)
REMARK    1  A    between atoms: C_3  and  C_31
REMARK    2  A    between atoms: C_6  and  C_7
REMARK    3  A    between atoms: C_7  and  N_8
REMARK    4  A    between atoms: C_9  and  C_11
REMARK    5  A    between atoms: N_24  and  C_25
REMARK                            x       y       z     vdW  Elec       q    Type
REMARK                         _______ _______ _______ _____ _____    ______ ____
ROOT
ATOM      1  C   UNL     1      -3.311  -1.946  -3.021  0.00  0.00    +0.169 C 
ATOM      2  C   UNL     1      -3.519  -0.605  -3.737  0.00  0.00    +0.087 C 
ATOM      3  C   UNL     1      -4.801   0.014  -3.245  0.00  0.00    +0.040 A 
ATOM      4  C   UNL     1      -5.783  -0.653  -2.603  0.00  0.00    +0.054 A 
ATOM      5  N   UNL     1      -6.761   0.212  -2.325  0.00  0.00    -0.348 N 
ATOM      6  C   UNL     1      -6.423   1.395  -2.768  0.00  0.00    +0.171 A 
ATOM      7  N   UNL     1      -5.204   1.311  -3.349  0.00  0.00    -0.349 N 
ATOM      8  H   UNL     1      -4.710   2.037  -3.760  0.00  0.00    +0.166 HD
ATOM      9  C   UNL     1      -5.722  -2.127  -2.278  0.00  0.00    +0.165 C 
ATOM     10  N   UNL     1      -4.578  -2.693  -3.018  0.00  0.00    -0.268 N 
ATOM     11  C   UNL     1      -4.690  -3.863  -3.677  0.00  0.00    +0.303 C 
ATOM     12  O   UNL     1      -3.770  -4.267  -4.361  0.00  0.00    -0.253 OA
ATOM     13  N   UNL     1      -5.824  -4.586  -3.578  0.00  0.00    -0.296 N 
ATOM     14  H   UNL     1      -6.584  -4.231  -3.091  0.00  0.00    +0.151 HD
ATOM     15  H   UNL     1      -7.589  -0.002  -1.868  0.00  0.00    +0.166 HD
ENDROOT
BRANCH  13  16
ATOM     16  C   UNL     1      -5.906  -5.908  -4.204  0.00  0.00    +0.074 C 
ATOM     17  C   UNL     1      -6.308  -5.752  -5.672  0.00  0.00    +0.022 C 
ATOM     18  C   UNL     1      -6.395  -7.133  -6.326  0.00  0.00    +0.002 C 
ATOM     19  C   UNL     1      -7.442  -7.977  -5.598  0.00  0.00    +0.000 C 
ATOM     20  C   UNL     1      -7.040  -8.133  -4.130  0.00  0.00    +0.002 C 
ATOM     21  C   UNL     1      -6.954  -6.753  -3.476  0.00  0.00    +0.022 C 
ENDBRANCH  13  16
BRANCH   1  23
ATOM     22  N   UNL     1      -1.729  -1.021  -1.359  0.00  0.00    -0.310 N 
ATOM     23  C   UNL     1      -2.870  -1.696  -1.601  0.00  0.00    +0.234 C 
ATOM     24  O   UNL     1      -3.542  -2.102  -0.677  0.00  0.00    -0.274 OA
ATOM     25  H   UNL     1      -1.192  -0.696  -2.098  0.00  0.00    +0.149 HD
BRANCH  22  26
ATOM     26  C   UNL     1      -1.301  -0.778   0.021  0.00  0.00    +0.139 C 
BRANCH  26  32
ATOM     27  C   UNL     1      -0.021   1.373   0.022  0.00  0.00    +0.006 A 
ATOM     28  C   UNL     1       1.168   2.078   0.019  0.00  0.00    +0.013 A 
ATOM     29  C   UNL     1       2.373   1.401   0.009  0.00  0.00    +0.055 A 
ATOM     30  C   UNL     1       2.390   0.019   0.003  0.00  0.00    +0.013 A 
ATOM     31  C   UNL     1       1.201  -0.686   0.007  0.00  0.00    +0.006 A 
ATOM     32  C   UNL     1      -0.004  -0.009   0.016  0.00  0.00    -0.030 A 
BRANCH  29  33
ATOM     33  C   UNL     1       3.670   2.170   0.003  0.00  0.00    +0.417 C 
ATOM     34  F   UNL     1       4.079   2.403   1.321  0.00  0.00    -0.166 F 
ATOM     35  F   UNL     1       4.649   1.428  -0.665  0.00  0.00    -0.166 F 
ATOM     36  F   UNL     1       3.484   3.393  -0.650  0.00  0.00    -0.166 F 
ENDBRANCH  29  33
ENDBRANCH  26  32
ENDBRANCH  22  26
ENDBRANCH   1  23
TORSDOF 5
