REMARK  Name = ZINC63506238
REMARK  11 active torsions:
REMARK  status: ('A' for Active; 'I' for Inactive)
REMARK    1  A    between atoms: C_4  and  N_7
REMARK    2  A    between atoms: C_8  and  N_34
REMARK    3  A    between atoms: C_9  and  C_12
REMARK    4  A    between atoms: C_12  and  S_13
REMARK    5  A    between atoms: S_13  and  C_14
REMARK    6  A    between atoms: C_14  and  C_15
REMARK    7  A    between atoms: C_15  and  C_16
REMARK    8  A    between atoms: N_18  and  C_19
REMARK    9  A    between atoms: C_19  and  C_20
REMARK   10  A    between atoms: C_20  and  N_21
REMARK   11  A    between atoms: N_24  and  C_27
REMARK                            x       y       z     vdW  Elec       q    Type
REMARK                         _______ _______ _______ _____ _____    ______ ____
ROOT
ATOM      1  C   UNL     1       6.563  -7.306  -0.625  0.00  0.00    +0.106 C 
ENDROOT
BRANCH   1   2
ATOM      2  C   UNL     1       7.331  -8.456  -0.027  0.00  0.00    +0.214 C 
ATOM      3  O   UNL     1       7.891  -8.322   1.041  0.00  0.00    -0.276 OA
ATOM      4  N   UNL     1       7.396  -9.634  -0.678  0.00  0.00    -0.314 N 
ATOM      5  H   UNL     1       6.949  -9.742  -1.532  0.00  0.00    +0.149 HD
BRANCH   4   6
ATOM      6  C   UNL     1       8.143 -10.752  -0.097  0.00  0.00    +0.119 C 
BRANCH   6   7
ATOM      7  C   UNL     1       8.060 -11.962  -1.030  0.00  0.00    +0.103 C 
BRANCH   7   8
ATOM      8  N   UNL     1       8.809 -13.083  -0.447  0.00  0.00    -0.298 NA
ATOM      9  C   UNL     1       8.178 -13.547   0.796  0.00  0.00    +0.103 C 
ATOM     10  C   UNL     1       9.082 -14.589   1.465  0.00  0.00    +0.120 C 
ATOM     11  N   UNL     1       9.381 -15.646   0.486  0.00  0.00    -0.325 N 
ATOM     12  C   UNL     1       9.887 -15.247  -0.836  0.00  0.00    +0.120 C 
ATOM     13  C   UNL     1       8.952 -14.180  -1.414  0.00  0.00    +0.103 C 
BRANCH  11  14
ATOM     14  C   UNL     1       9.188 -16.994   0.805  0.00  0.00    +0.065 A 
ATOM     15  C   UNL     1       7.968 -17.603   0.546  0.00  0.00    +0.026 A 
ATOM     16  C   UNL     1       7.781 -18.935   0.861  0.00  0.00    +0.002 A 
ATOM     17  C   UNL     1       8.807 -19.662   1.435  0.00  0.00    +0.003 A 
ATOM     18  C   UNL     1      10.025 -19.060   1.695  0.00  0.00    +0.040 A 
ATOM     19  C   UNL     1      10.221 -17.729   1.377  0.00  0.00    +0.144 A 
ATOM     20  F   UNL     1      11.412 -17.142   1.625  0.00  0.00    -0.204 F 
ENDBRANCH  11  14
ENDBRANCH   7   8
ENDBRANCH   6   7
ENDBRANCH   4   6
ENDBRANCH   1   2
BRANCH   1  21
ATOM     21  C   UNL     1       6.647  -6.096   0.308  0.00  0.00    +0.078 C 
BRANCH  21  22
ATOM     22  S   UNL     1       5.722  -4.712  -0.411  0.00  0.00    -0.155 S 
BRANCH  22  23
ATOM     23  C   UNL     1       5.918  -3.376   0.800  0.00  0.00    +0.109 C 
BRANCH  23  26
ATOM     24  N   UNL     1       3.623  -0.652  -0.036  0.00  0.00    -0.216 N 
ATOM     25  C   UNL     1       3.890  -1.835   0.581  0.00  0.00    +0.145 A 
ATOM     26  C   UNL     1       5.187  -2.150   0.318  0.00  0.00    +0.025 A 
ATOM     27  C   UNL     1       5.722  -1.133  -0.478  0.00  0.00    +0.141 A 
ATOM     28  N   UNL     1       4.789  -0.241  -0.695  0.00  0.00    -0.173 NA
BRANCH  24  32
ATOM     29  C   UNL     1      -0.017   1.379   0.010  0.00  0.00    +0.000 A 
ATOM     30  C   UNL     1       1.170   2.089   0.002  0.00  0.00    +0.002 A 
ATOM     31  C   UNL     1       2.377   1.419  -0.013  0.00  0.00    +0.028 A 
ATOM     32  C   UNL     1       2.400   0.031  -0.021  0.00  0.00    +0.068 A 
ATOM     33  C   UNL     1       1.207  -0.680  -0.013  0.00  0.00    +0.028 A 
ATOM     34  C   UNL     1       0.002  -0.004   0.002  0.00  0.00    +0.002 A 
ENDBRANCH  24  32
BRANCH  25  35
ATOM     35  N   UNL     1       2.995  -2.589   1.345  0.00  0.00    -0.308 N 
ATOM     36  C   UNL     1       2.824  -3.942   1.267  0.00  0.00    +0.092 A 
ATOM     37  C   UNL     1       1.877  -4.299   2.159  0.00  0.00    +0.019 A 
ATOM     38  C   UNL     1       1.447  -3.126   2.812  0.00  0.00    +0.019 A 
ATOM     39  C   UNL     1       2.150  -2.096   2.299  0.00  0.00    +0.092 A 
ENDBRANCH  25  35
ENDBRANCH  23  26
ENDBRANCH  22  23
ENDBRANCH  21  22
ENDBRANCH   1  21
TORSDOF 11
