REMARK  Name = ZINC21914902
REMARK  10 active torsions:
REMARK  status: ('A' for Active; 'I' for Inactive)
REMARK    1  A    between atoms: C_1  and  C_2
REMARK    2  A    between atoms: C_3  and  C_26
REMARK    3  A    between atoms: C_7  and  C_12
REMARK    4  A    between atoms: C_8  and  C_11
REMARK    5  A    between atoms: N_14  and  C_15
REMARK    6  A    between atoms: C_15  and  C_16
REMARK    7  A    between atoms: C_16  and  C_17
REMARK    8  A    between atoms: C_17  and  N_18
REMARK    9  A    between atoms: N_18  and  C_19
REMARK   10  A    between atoms: N_18  and  C_20
REMARK                            x       y       z     vdW  Elec       q    Type
REMARK                         _______ _______ _______ _____ _____    ______ ____
ROOT
ATOM      1  C   UNL     1       2.001   6.657   1.017  0.00  0.00    +0.068 C 
ATOM      2  C   UNL     1       1.355   5.332   0.702  0.00  0.00    +0.070 A 
ATOM      3  C   UNL     1       2.034   4.126   0.484  0.00  0.00    +0.049 A 
ATOM      4  C   UNL     1       1.068   3.147   0.225  0.00  0.00    +0.164 A 
ATOM      5  N   UNL     1       1.163   1.840  -0.046  0.00  0.00    -0.235 NA
ATOM      6  C   UNL     1       0.094   1.112  -0.257  0.00  0.00    +0.128 A 
ATOM      7  C   UNL     1      -1.189   1.707  -0.207  0.00  0.00    +0.076 A 
ATOM      8  C   UNL     1      -1.291   3.055   0.076  0.00  0.00    +0.056 A 
ATOM      9  N   UNL     1      -0.152   3.770   0.289  0.00  0.00    -0.217 N 
ATOM     10  N   UNL     1       0.067   5.120   0.587  0.00  0.00    -0.169 NA
ATOM     11  C   UNL     1      -2.639   3.723   0.144  0.00  0.00    +0.066 C 
ENDROOT
BRANCH   3  12
ATOM     12  C   UNL     1       3.501   3.925   0.522  0.00  0.00    -0.013 A 
ATOM     13  C   UNL     1       4.071   3.115   1.504  0.00  0.00    +0.009 A 
ATOM     14  C   UNL     1       5.438   2.927   1.530  0.00  0.00    +0.001 A 
ATOM     15  C   UNL     1       6.243   3.549   0.593  0.00  0.00    +0.000 A 
ATOM     16  C   UNL     1       5.684   4.357  -0.380  0.00  0.00    +0.001 A 
ATOM     17  C   UNL     1       4.318   4.549  -0.421  0.00  0.00    +0.009 A 
ENDBRANCH   3  12
BRANCH   7  18
ATOM     18  C   UNL     1      -2.400   0.898  -0.450  0.00  0.00    +0.247 C 
ATOM     19  O   UNL     1      -3.487   1.438  -0.516  0.00  0.00    -0.270 OA
ATOM     20  N   UNL     1      -2.299  -0.438  -0.598  0.00  0.00    -0.311 N 
ATOM     21  H   UNL     1      -1.315  -0.925  -0.538  0.00  0.00    +0.149 HD
BRANCH  20  22
ATOM     22  C   UNL     1      -3.501  -1.240  -0.839  0.00  0.00    +0.102 C 
BRANCH  22  23
ATOM     23  C   UNL     1      -3.112  -2.714  -0.969  0.00  0.00    +0.000 C 
BRANCH  23  24
ATOM     24  C   UNL     1      -4.368  -3.552  -1.221  0.00  0.00    -0.077 C 
BRANCH  24  25
ATOM     25  N   UNL     1      -3.994  -4.967  -1.345  0.00  0.00    +0.380 N 
ATOM     26  C   UNL     1      -3.178  -5.193  -2.546  0.00  0.00    -0.096 C 
ATOM     27  H   UNL     1      -3.388  -5.236  -0.468  0.00  0.00    -0.082 HD
BRANCH  25  28
ATOM     28  C   UNL     1      -5.186  -5.827  -1.351  0.00  0.00    -0.069 C 
ATOM     29  C   UNL     1      -5.957  -5.637  -0.043  0.00  0.00    -0.015 C 
ATOM     30  C   UNL     1      -7.198  -6.533  -0.048  0.00  0.00    -0.002 C 
ATOM     31  C   UNL     1      -6.770  -7.996  -0.180  0.00  0.00    -0.000 C 
ATOM     32  C   UNL     1      -5.998  -8.186  -1.487  0.00  0.00    -0.002 C 
ATOM     33  C   UNL     1      -4.758  -7.290  -1.482  0.00  0.00    -0.015 C 
ENDBRANCH  25  28
ENDBRANCH  24  25
ENDBRANCH  23  24
ENDBRANCH  22  23
ENDBRANCH  20  22
ENDBRANCH   7  18
TORSDOF 7
