REMARK  Name = ZINC14829959
REMARK  5 active torsions:
REMARK  status: ('A' for Active; 'I' for Inactive)
REMARK    1  A    between atoms: C_3  and  S_28
REMARK    2  A    between atoms: C_6  and  N_7
REMARK    3  A    between atoms: C_8  and  C_10
REMARK    4  A    between atoms: C_16  and  C_18
REMARK    5  A    between atoms: S_28  and  N_31
REMARK                            x       y       z     vdW  Elec       q    Type
REMARK                         _______ _______ _______ _____ _____    ______ ____
ROOT
ATOM      1  N   UNL     1       2.082  -6.133  -1.361  0.00  0.00    -0.284 N 
ATOM      2  C   UNL     1       1.966  -4.791  -1.392  0.00  0.00    +0.238 C 
ATOM      3  O   UNL     1       2.461  -4.119  -0.511  0.00  0.00    -0.273 OA
ATOM      4  H   UNL     1       1.744  -6.666  -2.098  0.00  0.00    +0.155 HD
ENDROOT
BRANCH   2   5
ATOM      5  C   UNL     1       1.223  -4.124  -2.520  0.00  0.00    +0.162 C 
ATOM      6  C   UNL     1       1.926  -4.419  -3.862  0.00  0.00    +0.033 C 
ATOM      7  C   UNL     1       2.794  -3.153  -4.086  0.00  0.00    +0.021 C 
ATOM      8  C   UNL     1       1.878  -2.044  -3.504  0.00  0.00    +0.108 C 
ATOM      9  N   UNL     1       1.234  -2.666  -2.333  0.00  0.00    -0.289 N 
ATOM     10  C   UNL     1       0.732  -2.006  -1.270  0.00  0.00    +0.222 C 
ATOM     11  O   UNL     1       0.284  -2.626  -0.329  0.00  0.00    -0.275 OA
BRANCH  10  12
ATOM     12  C   UNL     1       0.728  -0.499  -1.252  0.00  0.00    +0.048 C 
ATOM     13  C   UNL     1      -0.104  -0.006  -0.066  0.00  0.00    +0.019 C 
ATOM     14  C   UNL     1      -0.108   1.523  -0.047  0.00  0.00    -0.009 C 
ATOM     15  C   UNL     1       1.327   2.036   0.088  0.00  0.00    +0.007 C 
ATOM     16  C   UNL     1       2.159   1.543  -1.098  0.00  0.00    -0.009 C 
ATOM     17  C   UNL     1       2.163   0.013  -1.117  0.00  0.00    +0.019 C 
ATOM     18  C   UNL     1       1.550   2.067  -2.400  0.00  0.00    +0.007 C 
ATOM     19  C   UNL     1       0.115   1.555  -2.535  0.00  0.00    -0.009 C 
ATOM     20  C   UNL     1      -0.716   2.048  -1.349  0.00  0.00    +0.007 C 
ATOM     21  C   UNL     1       0.119   0.025  -2.554  0.00  0.00    +0.019 C 
ENDBRANCH  10  12
ENDBRANCH   2   5
BRANCH   1  27
ATOM     22  C   UNL     1       3.755  -6.149   0.381  0.00  0.00    +0.025 A 
ATOM     23  C   UNL     1       4.347  -6.767   1.465  0.00  0.00    +0.030 A 
ATOM     24  C   UNL     1       3.885  -7.995   1.901  0.00  0.00    +0.106 A 
ATOM     25  C   UNL     1       2.826  -8.607   1.256  0.00  0.00    +0.030 A 
ATOM     26  C   UNL     1       2.226  -7.992   0.174  0.00  0.00    +0.025 A 
ATOM     27  C   UNL     1       2.687  -6.758  -0.266  0.00  0.00    +0.034 A 
BRANCH  24  28
ATOM     28  S   UNL     1       4.648  -8.782   3.280  0.00  0.00    +0.061 S 
ATOM     29  O   UNL     1       5.262  -7.755   4.046  0.00  0.00    -0.153 OA
ATOM     30  O   UNL     1       3.681  -9.667   3.829  0.00  0.00    -0.153 OA
BRANCH  28  31
ATOM     31  N   UNL     1       5.873  -9.727   2.689  0.00  0.00    -0.177 NA
ATOM     32  C   UNL     1       5.626 -11.127   2.317  0.00  0.00    +0.109 C 
ATOM     33  C   UNL     1       6.105 -11.341   0.873  0.00  0.00    +0.017 C 
ATOM     34  C   UNL     1       7.569 -10.910   0.759  0.00  0.00    +0.003 C 
ATOM     35  C   UNL     1       7.691  -9.421   1.091  0.00  0.00    +0.017 C 
ATOM     36  C   UNL     1       7.229  -9.184   2.532  0.00  0.00    +0.109 C 
ENDBRANCH  28  31
ENDBRANCH  24  28
ENDBRANCH   1  27
TORSDOF 5
