REMARK  Name = ZINC01306054
REMARK  6 active torsions:
REMARK  status: ('A' for Active; 'I' for Inactive)
REMARK    1  A    between atoms: C_1  and  C_2
REMARK    2  A    between atoms: C_2  and  C_4
REMARK    3  A    between atoms: C_2  and  S_13
REMARK    4  A    between atoms: N_6  and  C_7
REMARK    5  A    between atoms: S_13  and  C_14
REMARK    6  A    between atoms: N_30  and  C_31
REMARK                            x       y       z     vdW  Elec       q    Type
REMARK                         _______ _______ _______ _____ _____    ______ ____
ROOT
ATOM      1  C   UNL     1      -2.462   0.885  -1.368  0.00  0.00    +0.199 A 
ATOM      2  N   UNL     1      -2.852   0.058  -0.429  0.00  0.00    -0.120 NA
ATOM      3  N   UNL     1      -4.157  -0.352  -0.726  0.00  0.00    -0.109 NA
ATOM      4  C   UNL     1      -4.526   0.237  -1.839  0.00  0.00    +0.240 A 
ATOM      5  N   UNL     1      -3.488   1.025  -2.265  0.00  0.00    -0.249 N 
ATOM      6  C   UNL     1      -3.611   1.767  -3.418  0.00  0.00    +0.102 A 
ATOM      7  C   UNL     1      -4.772   1.752  -4.184  0.00  0.00    +0.074 A 
ATOM      8  C   UNL     1      -4.755   2.592  -5.383  0.00  0.00    -0.023 A 
ATOM      9  C   UNL     1      -3.617   3.280  -5.605  0.00  0.00    -0.004 A 
ATOM     10  S   UNL     1      -2.556   2.843  -4.257  0.00  0.00    -0.074 S 
ATOM     11  C   UNL     1      -3.328   4.207  -6.746  0.00  0.00    +0.043 C 
ATOM     12  C   UNL     1      -4.385   3.974  -7.836  0.00  0.00    +0.005 C 
ATOM     13  C   UNL     1      -5.771   3.962  -7.185  0.00  0.00    +0.005 C 
ATOM     14  C   UNL     1      -5.938   2.699  -6.338  0.00  0.00    +0.037 C 
ATOM     15  C   UNL     1      -5.872   0.892  -3.689  0.00  0.00    +0.264 A 
ATOM     16  O   UNL     1      -6.921   0.826  -4.305  0.00  0.00    -0.267 OA
ATOM     17  N   UNL     1      -5.704   0.178  -2.564  0.00  0.00    -0.280 N 
ATOM     18  C   UNL     1      -6.800  -0.668  -2.083  0.00  0.00    +0.155 C 
ENDROOT
BRANCH   1  19
ATOM     19  S   UNL     1      -0.894   1.684  -1.457  0.00  0.00    -0.073 S 
BRANCH  19  21
ATOM     20  C   UNL     1      -0.725   1.593   1.272  0.00  0.00    +0.029 C 
ATOM     21  C   UNL     1      -0.014   1.089   0.014  0.00  0.00    +0.137 C 
BRANCH  21  22
ATOM     22  C   UNL     1       1.401   1.606  -0.004  0.00  0.00    +0.230 C 
ATOM     23  O   UNL     1       1.668   2.622  -0.611  0.00  0.00    -0.274 OA
ATOM     24  N   UNL     1       2.371   0.940   0.654  0.00  0.00    -0.285 N 
ATOM     25  H   UNL     1       2.146   0.166   1.194  0.00  0.00    +0.155 HD
BRANCH  24  26
ATOM     26  C   UNL     1       3.700   1.365   0.558  0.00  0.00    +0.033 A 
ATOM     27  C   UNL     1       4.730   0.433   0.561  0.00  0.00    +0.023 A 
ATOM     28  C   UNL     1       6.042   0.856   0.461  0.00  0.00    +0.002 A 
ATOM     29  C   UNL     1       6.330   2.205   0.370  0.00  0.00    +0.000 A 
ATOM     30  C   UNL     1       5.307   3.135   0.373  0.00  0.00    +0.002 A 
ATOM     31  C   UNL     1       3.993   2.719   0.467  0.00  0.00    +0.023 A 
ENDBRANCH  24  26
ENDBRANCH  21  22
ENDBRANCH  19  21
ENDBRANCH   1  19
TORSDOF 4
