REMARK  Name = ZINC40857149
REMARK  9 active torsions:
REMARK  status: ('A' for Active; 'I' for Inactive)
REMARK    1  A    between atoms: C_1  and  C_2
REMARK    2  A    between atoms: C_2  and  C_3
REMARK    3  A    between atoms: C_3  and  C_4
REMARK    4  A    between atoms: C_4  and  C_6
REMARK    5  A    between atoms: C_4  and  N_18
REMARK    6  A    between atoms: N_8  and  C_9
REMARK    7  A    between atoms: C_10  and  C_16
REMARK    8  A    between atoms: C_11  and  C_15
REMARK    9  A    between atoms: C_12  and  C_14
REMARK                            x       y       z     vdW  Elec       q    Type
REMARK                         _______ _______ _______ _____ _____    ______ ____
ROOT
ATOM      1  C   UNL     1       1.550  -2.512  -2.439  0.00  0.00    +0.203 C 
ATOM      2  O   UNL     1       0.991  -2.888  -3.448  0.00  0.00    -0.277 OA
ATOM      3  N   UNL     1       2.895  -2.528  -2.369  0.00  0.00    -0.280 N 
ATOM      4  H   UNL     1       3.342  -2.227  -1.562  0.00  0.00    +0.155 HD
ENDROOT
BRANCH   3   5
ATOM      5  C   UNL     1       3.642  -2.975  -3.450  0.00  0.00    +0.090 A 
ATOM      6  C   UNL     1       5.021  -3.066  -3.554  0.00  0.00    +0.083 A 
ATOM      7  C   UNL     1       5.544  -3.569  -4.803  0.00  0.00    -0.021 A 
ATOM      8  C   UNL     1       4.627  -3.897  -5.734  0.00  0.00    -0.007 A 
ATOM      9  S   UNL     1       3.082  -3.535  -4.929  0.00  0.00    -0.077 S 
ATOM     10  C   UNL     1       4.855  -4.442  -7.120  0.00  0.00    +0.052 C 
ATOM     11  C   UNL     1       7.023  -3.719  -5.050  0.00  0.00    +0.046 C 
BRANCH   6  12
ATOM     12  C   UNL     1       5.884  -2.679  -2.479  0.00  0.00    +0.102 C 
ATOM     13  N   UNL     1       6.568  -2.373  -1.625  0.00  0.00    -0.191 NA
ENDBRANCH   6  12
ENDBRANCH   3   5
BRANCH   1  14
ATOM     14  C   UNL     1       0.739  -2.027  -1.265  0.00  0.00    +0.013 C 
BRANCH  14  15
ATOM     15  N   UNL     1      -0.635  -2.535  -1.375  0.00  0.00    +0.386 N 
ATOM     16  H   UNL     1      -1.050  -2.200  -2.232  0.00  0.00    -0.089 HD
ATOM     17  H   UNL     1      -0.621  -3.544  -1.381  0.00  0.00    -0.089 HD
ATOM     18  H   UNL     1      -1.178  -2.210  -0.589  0.00  0.00    -0.089 HD
ENDBRANCH  14  15
BRANCH  14  19
ATOM     19  C   UNL     1       0.718  -0.497  -1.257  0.00  0.00    -0.007 C 
BRANCH  19  21
ATOM     20  C   UNL     1      -0.019   1.526   0.010  0.00  0.00    +0.004 C 
ATOM     21  C   UNL     1       0.002  -0.004   0.002  0.00  0.00    -0.005 C 
ENDBRANCH  19  21
ENDBRANCH  14  19
ENDBRANCH   1  14
TORSDOF 6
