REMARK  Name = ZINC22697078
REMARK  7 active torsions:
REMARK  status: ('A' for Active; 'I' for Inactive)
REMARK    1  A    between atoms: C_1  and  C_2
REMARK    2  A    between atoms: C_2  and  N_3
REMARK    3  A    between atoms: C_4  and  C_33
REMARK    4  A    between atoms: C_7  and  C_10
REMARK    5  A    between atoms: C_10  and  C_12
REMARK    6  A    between atoms: C_10  and  N_19
REMARK    7  A    between atoms: N_22  and  C_25
REMARK                            x       y       z     vdW  Elec       q    Type
REMARK                         _______ _______ _______ _____ _____    ______ ____
ROOT
ATOM      1  C   UNL     1      -3.946  -2.032   2.333  0.00  0.00    +0.002 C 
ENDROOT
BRANCH   1   6
ATOM      2  N   UNL     1      -2.051   1.067   1.365  0.00  0.00    -0.313 N 
ATOM      3  C   UNL     1      -3.025   1.837   0.813  0.00  0.00    +0.023 A 
ATOM      4  C   UNL     1      -4.296   1.391   0.729  0.00  0.00    +0.072 A 
ATOM      5  C   UNL     1      -4.626   0.115   1.226  0.00  0.00    +0.188 A 
ATOM      6  C   UNL     1      -3.630  -0.661   1.791  0.00  0.00    +0.054 A 
ATOM      7  C   UNL     1      -2.326  -0.158   1.851  0.00  0.00    +0.257 A 
ATOM      8  O   UNL     1      -1.435  -0.831   2.347  0.00  0.00    -0.267 OA
ATOM      9  O   UNL     1      -5.898  -0.345   1.153  0.00  0.00    -0.287 OA
ATOM     10  C   UNL     1      -2.680   3.205   0.284  0.00  0.00    +0.064 C 
BRANCH   2  12
ATOM     11  C   UNL     1      -0.509   2.401   2.715  0.00  0.00    +0.027 C 
ATOM     12  C   UNL     1      -0.680   1.579   1.436  0.00  0.00    +0.122 C 
ENDBRANCH   2  12
ENDBRANCH   1   6
BRANCH   1  13
ATOM     13  C   UNL     1      -3.279  -3.077   1.476  0.00  0.00    -0.056 A 
ATOM     14  C   UNL     1      -1.972  -3.448   1.729  0.00  0.00    +0.004 A 
ATOM     15  C   UNL     1      -1.362  -4.410   0.947  0.00  0.00    +0.020 A 
ATOM     16  C   UNL     1      -2.056  -4.994  -0.098  0.00  0.00    +0.041 A 
ATOM     17  C   UNL     1      -3.363  -4.618  -0.355  0.00  0.00    +0.020 A 
ATOM     18  C   UNL     1      -3.974  -3.660   0.432  0.00  0.00    +0.004 A 
ATOM     19 CL   UNL     1      -1.289  -6.198  -1.085  0.00  0.00    -0.084 Cl
ENDBRANCH   1  13
BRANCH   1  20
ATOM     20  N   UNL     1      -3.449  -2.139   3.711  0.00  0.00    +0.389 N 
ATOM     21  C   UNL     1      -3.784  -3.447   4.291  0.00  0.00    -0.058 C 
ATOM     22  C   UNL     1      -3.182  -3.550   5.695  0.00  0.00    +0.086 C 
ATOM     23  N   UNL     1      -3.702  -2.457   6.529  0.00  0.00    -0.331 N 
ATOM     24  C   UNL     1      -3.366  -1.149   5.949  0.00  0.00    +0.086 C 
ATOM     25  C   UNL     1      -3.969  -1.047   4.545  0.00  0.00    -0.058 C 
ATOM     26  H   UNL     1      -2.353  -2.052   3.682  0.00  0.00    -0.080 HD
BRANCH  23  27
ATOM     27  C   UNL     1      -3.229  -2.560   7.841  0.00  0.00    +0.065 A 
ATOM     28  C   UNL     1      -3.663  -1.664   8.809  0.00  0.00    +0.026 A 
ATOM     29  C   UNL     1      -3.196  -1.770  10.105  0.00  0.00    +0.002 A 
ATOM     30  C   UNL     1      -2.292  -2.761  10.438  0.00  0.00    +0.003 A 
ATOM     31  C   UNL     1      -1.854  -3.653   9.476  0.00  0.00    +0.040 A 
ATOM     32  C   UNL     1      -2.319  -3.556   8.178  0.00  0.00    +0.144 A 
ATOM     33  F   UNL     1      -1.890  -4.427   7.238  0.00  0.00    -0.204 F 
ENDBRANCH  23  27
ENDBRANCH   1  20
TORSDOF 5
