REMARK  Name = ZINC23586144
REMARK  12 active torsions:
REMARK  status: ('A' for Active; 'I' for Inactive)
REMARK    1  A    between atoms: C_1  and  C_2
REMARK    2  A    between atoms: C_2  and  O_3
REMARK    3  A    between atoms: O_3  and  C_4
REMARK    4  A    between atoms: C_9  and  N_10
REMARK    5  A    between atoms: C_11  and  S_15
REMARK    6  A    between atoms: S_15  and  C_16
REMARK    7  A    between atoms: C_16  and  C_17
REMARK    8  A    between atoms: N_19  and  C_20
REMARK    9  A    between atoms: C_21  and  C_33
REMARK   10  A    between atoms: N_23  and  C_26
REMARK   11  A    between atoms: C_24  and  C_25
REMARK   12  A    between atoms: C_29  and  C_32
REMARK                            x       y       z     vdW  Elec       q    Type
REMARK                         _______ _______ _______ _____ _____    ______ ____
ROOT
ATOM      1  C   UNL     1      -3.768   3.722   8.494  0.00  0.00    +0.228 C 
ATOM      2  O   UNL     1      -2.644   3.694   8.949  0.00  0.00    -0.275 OA
ATOM      3  N   UNL     1      -4.831   3.631   9.318  0.00  0.00    -0.282 N 
ATOM      4  H   UNL     1      -5.848   3.585   8.900  0.00  0.00    +0.155 HD
ENDROOT
BRANCH   3   5
ATOM      5  C   UNL     1      -4.641   3.595  10.711  0.00  0.00    +0.078 A 
ATOM      6  C   UNL     1      -3.657   2.861  11.392  0.00  0.00    +0.082 A 
ATOM      7  N   UNL     1      -3.792   3.083  12.675  0.00  0.00    -0.170 NA
ATOM      8  N   UNL     1      -4.870   3.957  12.862  0.00  0.00    -0.235 N 
ATOM      9  C   UNL     1      -5.379   4.260  11.637  0.00  0.00    +0.063 A 
ATOM     10  C   UNL     1      -6.548   5.168  11.358  0.00  0.00    +0.068 C 
ATOM     11  C   UNL     1      -2.620   1.973  10.755  0.00  0.00    +0.069 C 
BRANCH   8  12
ATOM     12  C   UNL     1      -5.341   4.435  14.092  0.00  0.00    +0.066 A 
ATOM     13  C   UNL     1      -4.443   4.838  15.072  0.00  0.00    +0.028 A 
ATOM     14  C   UNL     1      -4.911   5.315  16.281  0.00  0.00    +0.005 A 
ATOM     15  C   UNL     1      -6.271   5.379  16.521  0.00  0.00    -0.050 A 
ATOM     16  C   UNL     1      -7.168   4.972  15.550  0.00  0.00    +0.005 A 
ATOM     17  C   UNL     1      -6.706   4.501  14.336  0.00  0.00    +0.028 A 
ATOM     18  C   UNL     1      -6.777   5.894  17.844  0.00  0.00    +0.044 C 
ENDBRANCH   8  12
ENDBRANCH   3   5
BRANCH   1  19
ATOM     19  C   UNL     1      -3.976   3.860   7.008  0.00  0.00    +0.173 C 
BRANCH  19  20
ATOM     20  S   UNL     1      -2.369   3.958   6.181  0.00  0.00    -0.075 S 
BRANCH  20  22
ATOM     21  N   UNL     1      -2.096   4.222   3.416  0.00  0.00    -0.184 N 
ATOM     22  C   UNL     1      -2.896   4.109   4.506  0.00  0.00    +0.215 A 
ATOM     23  N   UNL     1      -4.139   4.134   4.076  0.00  0.00    -0.101 NA
ATOM     24  N   UNL     1      -4.171   4.254   2.798  0.00  0.00    -0.022 NA
ATOM     25  N   UNL     1      -2.975   4.320   2.323  0.00  0.00    -0.038 NA
BRANCH  21  31
ATOM     26  C   UNL     1      -0.002   3.443   2.480  0.00  0.00    +0.146 A 
ATOM     27  C   UNL     1       1.383   3.471   2.452  0.00  0.00    +0.048 A 
ATOM     28  C   UNL     1       2.076   4.289   3.325  0.00  0.00    +0.004 A 
ATOM     29  C   UNL     1       1.390   5.080   4.229  0.00  0.00    +0.002 A 
ATOM     30  C   UNL     1       0.009   5.057   4.263  0.00  0.00    +0.031 A 
ATOM     31  C   UNL     1      -0.693   4.243   3.386  0.00  0.00    +0.111 A 
BRANCH  26  32
ATOM     32  O   UNL     1      -0.685   2.640   1.622  0.00  0.00    -0.490 OA
BRANCH  32  34
ATOM     33  C   UNL     1      -0.845   1.019  -0.164  0.00  0.00    +0.048 C 
ATOM     34  C   UNL     1       0.090   1.851   0.716  0.00  0.00    +0.226 C 
ENDBRANCH  32  34
ENDBRANCH  26  32
ENDBRANCH  21  31
ENDBRANCH  20  22
ENDBRANCH  19  20
ENDBRANCH   1  19
TORSDOF 8
