REMARK  Name = ZINC20272038
REMARK  4 active torsions:
REMARK  status: ('A' for Active; 'I' for Inactive)
REMARK    1  A    between atoms: C_1  and  C_2
REMARK    2  A    between atoms: C_6  and  C_8
REMARK    3  A    between atoms: C_11  and  C_14
REMARK    4  A    between atoms: N_16  and  C_18
REMARK                            x       y       z     vdW  Elec       q    Type
REMARK                         _______ _______ _______ _____ _____    ______ ____
ROOT
ATOM      1  C   UNL     1      -0.018   1.503   0.010  0.00  0.00    +0.070 C 
ATOM      2  C   UNL     1       0.002  -0.004   0.002  0.00  0.00    +0.087 A 
ATOM      3  C   UNL     1       0.008  -0.823  -1.149  0.00  0.00    +0.131 A 
ATOM      4  C   UNL     1       0.028  -2.144  -0.709  0.00  0.00    +0.157 A 
ATOM      5  N   UNL     1       0.034  -2.929  -1.834  0.00  0.00    -0.323 N 
ATOM      6  C   UNL     1       0.017  -2.091  -2.918  0.00  0.00    +0.140 A 
ATOM      7  N   UNL     1       0.002  -0.847  -2.504  0.00  0.00    -0.224 NA
ATOM      8  N   UNL     1       0.034  -2.112   0.650  0.00  0.00    -0.243 N 
ATOM      9  N   UNL     1       0.023  -0.772   1.056  0.00  0.00    -0.172 NA
ATOM     10  H   UNL     1       0.047  -3.898  -1.857  0.00  0.00    +0.169 HD
ENDROOT
BRANCH   6  11
ATOM     11  C   UNL     1       0.017  -2.522  -4.332  0.00  0.00    +0.017 A 
ATOM     12  C   UNL     1       0.028  -3.882  -4.647  0.00  0.00    +0.013 A 
ATOM     13  C   UNL     1       0.028  -4.284  -5.963  0.00  0.00    +0.019 A 
ATOM     14  C   UNL     1       0.016  -3.330  -6.984  0.00  0.00    +0.052 A 
ATOM     15  C   UNL     1       0.004  -1.968  -6.668  0.00  0.00    +0.019 A 
ATOM     16  C   UNL     1      -0.001  -1.568  -5.352  0.00  0.00    +0.013 A 
BRANCH  14  17
ATOM     17  C   UNL     1       0.016  -3.747  -8.354  0.00  0.00    +0.099 C 
ATOM     18  N   UNL     1       0.017  -4.079  -9.441  0.00  0.00    -0.191 NA
ENDBRANCH  14  17
ENDBRANCH   6  11
BRANCH   8  19
ATOM     19  C   UNL     1       0.053  -3.278   1.537  0.00  0.00    +0.109 C 
ATOM     20  C   UNL     1      -1.192  -3.264   2.426  0.00  0.00    +0.027 C 
ATOM     21  C   UNL     1      -1.172  -4.482   3.352  0.00  0.00    +0.002 C 
ATOM     22  C   UNL     1       0.081  -4.435   4.229  0.00  0.00    +0.000 C 
ATOM     23  C   UNL     1       1.326  -4.449   3.340  0.00  0.00    +0.002 C 
ATOM     24  C   UNL     1       1.306  -3.231   2.414  0.00  0.00    +0.027 C 
ENDBRANCH   8  19
TORSDOF 3
