REMARK  Name = ZINC16392908
REMARK  14 active torsions:
REMARK  status: ('A' for Active; 'I' for Inactive)
REMARK    1  A    between atoms: C_1  and  C_2
REMARK    2  A    between atoms: C_2  and  O_3
REMARK    3  A    between atoms: O_3  and  C_4
REMARK    4  A    between atoms: C_5  and  C_12
REMARK    5  A    between atoms: C_9  and  O_10
REMARK    6  A    between atoms: O_10  and  C_11
REMARK    7  A    between atoms: C_17  and  C_22
REMARK    8  A    between atoms: C_25  and  N_28
REMARK    9  A    between atoms: N_28  and  C_29
REMARK   10  A    between atoms: N_28  and  C_30
REMARK   11  A    between atoms: C_32  and  C_38
REMARK   12  A    between atoms: C_33  and  C_34
REMARK   13  A    between atoms: C_34  and  O_36
REMARK   14  A    between atoms: O_36  and  C_37
REMARK                            x       y       z     vdW  Elec       q    Type
REMARK                         _______ _______ _______ _____ _____    ______ ____
ROOT
ATOM      1  C   UNL     1       1.214   3.378  -0.160  0.00  0.00    +0.096 C 
ATOM      2  C   UNL     1       1.413   1.884  -0.092  0.00  0.00    +0.024 C 
ATOM      3  C   UNL     1       0.400   1.069   0.269  0.00  0.00    +0.016 C 
ATOM      4  C   UNL     1       0.593  -0.425   0.343  0.00  0.00    +0.059 C 
ATOM      5  C   UNL     1       2.043  -0.738   0.715  0.00  0.00    +0.032 C 
ATOM      6  C   UNL     1       2.962  -0.108  -0.338  0.00  0.00    +0.088 C 
ATOM      7  C   UNL     1       2.682   1.368  -0.410  0.00  0.00    +0.162 C 
ATOM      8  O   UNL     1       3.567   2.127  -0.750  0.00  0.00    -0.292 OA
ATOM      9  N   UNL     1      -0.832   1.585   0.571  0.00  0.00    -0.321 N 
ATOM     10  C   UNL     1      -1.186   2.836   0.151  0.00  0.00    +0.016 C 
ATOM     11  C   UNL     1      -0.245   3.724  -0.212  0.00  0.00    +0.065 C 
ATOM     12  C   UNL     1      -2.642   3.222   0.093  0.00  0.00    +0.061 C 
ATOM     13  H   UNL     1      -1.548   0.991   1.158  0.00  0.00    +0.152 HD
ENDROOT
BRANCH   1  15
ATOM     14  C   UNL     1       2.846   4.948   0.913  0.00  0.00    +0.166 A 
ATOM     15  C   UNL     1       1.831   4.016   1.058  0.00  0.00    +0.010 A 
ATOM     16  C   UNL     1       1.380   3.675   2.320  0.00  0.00    +0.008 A 
ATOM     17  C   UNL     1       1.947   4.254   3.439  0.00  0.00    +0.004 A 
ATOM     18  C   UNL     1       2.960   5.185   3.302  0.00  0.00    +0.049 A 
ATOM     19  C   UNL     1       3.413   5.535   2.040  0.00  0.00    +0.162 A 
BRANCH  19  20
ATOM     20  O   UNL     1       4.410   6.450   1.903  0.00  0.00    -0.491 OA
ATOM     21  C   UNL     1       4.944   7.011   3.103  0.00  0.00    +0.277 C 
ENDBRANCH  19  20
BRANCH  14  22
ATOM     22  O   UNL     1       3.287   5.287  -0.328  0.00  0.00    -0.488 OA
BRANCH  22  24
ATOM     23  C   UNL     1       3.240   6.606  -2.352  0.00  0.00    +0.048 C 
ATOM     24  C   UNL     1       2.713   6.452  -0.924  0.00  0.00    +0.226 C 
ENDBRANCH  22  24
ENDBRANCH  14  22
ENDBRANCH   1  15
BRANCH   5  25
ATOM     25  C   UNL     1       2.249  -2.231   0.738  0.00  0.00    -0.043 A 
ATOM     26  C   UNL     1       2.026  -2.976  -0.405  0.00  0.00    +0.006 A 
ATOM     27  C   UNL     1       2.219  -4.344  -0.389  0.00  0.00    +0.023 A 
ATOM     28  C   UNL     1       2.627  -4.972   0.781  0.00  0.00    +0.029 A 
ATOM     29  C   UNL     1       2.845  -4.221   1.929  0.00  0.00    +0.023 A 
ATOM     30  C   UNL     1       2.655  -2.853   1.905  0.00  0.00    +0.006 A 
BRANCH  28  31
ATOM     31  N   UNL     1       2.817  -6.355   0.803  0.00  0.00    -0.336 N 
ATOM     32  C   UNL     1       3.247  -7.016   2.038  0.00  0.00    +0.129 C 
ATOM     33  C   UNL     1       2.587  -7.146  -0.409  0.00  0.00    +0.129 C 
ENDBRANCH  28  31
ENDBRANCH   5  25
BRANCH  11  34
ATOM     34  C   UNL     1      -0.637   5.010  -0.652  0.00  0.00    +0.337 C 
ATOM     35  O   UNL     1      -0.623   5.277  -1.840  0.00  0.00    -0.245 OA
BRANCH  34  36
ATOM     36  O   UNL     1      -1.027   5.940   0.244  0.00  0.00    -0.465 OA
ATOM     37  C   UNL     1      -1.410   7.217  -0.271  0.00  0.00    +0.280 C 
ENDBRANCH  34  36
ENDBRANCH  11  34
TORSDOF 8
