REMARK  Name = ZINC13425512
REMARK  7 active torsions:
REMARK  status: ('A' for Active; 'I' for Inactive)
REMARK    1  A    between atoms: C_1  and  C_2
REMARK    2  A    between atoms: C_2  and  O_3
REMARK    3  A    between atoms: O_3  and  C_4
REMARK    4  A    between atoms: C_4  and  C_6
REMARK    5  A    between atoms: C_19  and  C_22
REMARK    6  A    between atoms: C_25  and  S_28
REMARK    7  A    between atoms: S_28  and  N_31
REMARK                            x       y       z     vdW  Elec       q    Type
REMARK                         _______ _______ _______ _____ _____    ______ ____
ROOT
ATOM      1  C   UNL     1      -5.205   3.271   2.008  0.00  0.00    +0.059 A 
ATOM      2  C   UNL     1      -4.913   3.227   3.375  0.00  0.00    +0.017 A 
ATOM      3  C   UNL     1      -3.809   2.593   3.806  0.00  0.00    +0.024 A 
ATOM      4  C   UNL     1      -2.913   2.016   2.908  0.00  0.00    +0.031 A 
ATOM      5  C   UNL     1      -3.189   2.055   1.539  0.00  0.00    -0.019 A 
ATOM      6  C   UNL     1      -4.329   2.677   1.094  0.00  0.00    +0.021 A 
ATOM      7  C   UNL     1      -2.234   1.398   0.620  0.00  0.00    +0.049 C 
ATOM      8  C   UNL     1      -2.088   1.820  -0.796  0.00  0.00    -0.023 C 
ATOM      9  C   UNL     1      -0.827   1.630  -1.167  0.00  0.00    -0.030 C 
ATOM     10  C   UNL     1      -0.013   1.086   0.008  0.00  0.00    +0.033 C 
ATOM     11  C   UNL     1      -0.807   1.618   1.208  0.00  0.00    +0.029 C 
ATOM     12  C   UNL     1      -0.765   0.800   2.486  0.00  0.00    +0.105 C 
ATOM     13  N   UNL     1      -1.746   1.431   3.395  0.00  0.00    -0.336 N 
ATOM     14  H   UNL     1      -1.574   1.437   4.350  0.00  0.00    +0.147 HD
ENDROOT
BRANCH  12  15
ATOM     15  C   UNL     1       0.614   0.850   3.092  0.00  0.00    -0.027 A 
ATOM     16  C   UNL     1       1.004   1.952   3.830  0.00  0.00    +0.007 A 
ATOM     17  C   UNL     1       2.268   1.996   4.389  0.00  0.00    +0.029 A 
ATOM     18  C   UNL     1       3.144   0.943   4.202  0.00  0.00    +0.105 A 
ATOM     19  C   UNL     1       2.755  -0.156   3.460  0.00  0.00    +0.029 A 
ATOM     20  C   UNL     1       1.490  -0.202   2.904  0.00  0.00    +0.007 A 
BRANCH  18  21
ATOM     21  S   UNL     1       4.756   1.002   4.910  0.00  0.00    +0.061 S 
ATOM     22  O   UNL     1       4.683   1.895   6.014  0.00  0.00    -0.153 OA
ATOM     23  O   UNL     1       5.189  -0.344   5.047  0.00  0.00    -0.153 OA
BRANCH  21  24
ATOM     24  N   UNL     1       5.755   1.709   3.795  0.00  0.00    -0.172 NA
ATOM     25  C   UNL     1       6.473   0.898   2.799  0.00  0.00    +0.137 C 
ATOM     26  C   UNL     1       6.220   1.508   1.411  0.00  0.00    +0.177 C 
ATOM     27  O   UNL     1       6.540   2.901   1.445  0.00  0.00    -0.377 OA
ATOM     28  C   UNL     1       5.731   3.666   2.342  0.00  0.00    +0.177 C 
ATOM     29  C   UNL     1       5.956   3.167   3.774  0.00  0.00    +0.137 C 
ENDBRANCH  21  24
ENDBRANCH  18  21
ENDBRANCH  12  15
BRANCH   1  30
ATOM     30  C   UNL     1      -6.429   3.941   1.533  0.00  0.00    +0.339 C 
ATOM     31  O   UNL     1      -6.680   3.977   0.345  0.00  0.00    -0.245 OA
BRANCH  30  32
ATOM     32  O   UNL     1      -7.271   4.512   2.417  0.00  0.00    -0.461 OA
BRANCH  32  34
ATOM     33  C   UNL     1      -9.284   5.741   3.024  0.00  0.00    +0.048 C 
ATOM     34  C   UNL     1      -8.457   5.154   1.878  0.00  0.00    +0.229 C 
ENDBRANCH  32  34
ENDBRANCH  30  32
ENDBRANCH   1  30
TORSDOF 6
