REMARK  Name = ZINC00867080
REMARK  5 active torsions:
REMARK  status: ('A' for Active; 'I' for Inactive)
REMARK    1  A    between atoms: C_1  and  C_2
REMARK    2  A    between atoms: C_5  and  C_8
REMARK    3  A    between atoms: C_11  and  C_36
REMARK    4  A    between atoms: C_16  and  C_18
REMARK    5  A    between atoms: C_26  and  C_28
REMARK                            x       y       z     vdW  Elec       q    Type
REMARK                         _______ _______ _______ _____ _____    ______ ____
ROOT
ATOM      1  C   UNL     1      -0.808  -4.039   1.246  0.00  0.00    +0.104 C 
ATOM      2  C   UNL     1      -2.163  -4.707   1.508  0.00  0.00    +0.063 C 
ATOM      3  C   UNL     1      -2.062  -6.213   1.240  0.00  0.00    +0.215 C 
ATOM      4  N   UNL     1      -0.896  -6.745   1.951  0.00  0.00    -0.237 N 
ATOM      5  C   UNL     1       0.139  -5.971   2.394  0.00  0.00    +0.137 A 
ATOM      6  C   UNL     1       1.034  -6.775   3.003  0.00  0.00    +0.112 A 
ATOM      7  C   UNL     1       0.536  -8.096   2.934  0.00  0.00    +0.167 A 
ATOM      8  N   UNL     1      -0.623  -8.067   2.300  0.00  0.00    -0.163 NA
ATOM      9 CL   UNL     1       2.526  -6.278   3.738  0.00  0.00    -0.078 Cl
ATOM     10  N   UNL     1       0.181  -4.586   2.195  0.00  0.00    -0.321 N 
ATOM     11  H   UNL     1       0.819  -4.019   2.655  0.00  0.00    +0.148 HD
ENDROOT
BRANCH   7  12
ATOM     12  C   UNL     1       1.197  -9.300   3.477  0.00  0.00    +0.268 C 
ATOM     13  O   UNL     1       2.303  -9.215   3.974  0.00  0.00    -0.268 OA
ATOM     14  N   UNL     1       0.575 -10.494   3.420  0.00  0.00    -0.293 N 
ATOM     15  C   UNL     1      -0.698 -10.641   2.699  0.00  0.00    +0.127 C 
ATOM     16  C   UNL     1      -0.546 -11.757   1.658  0.00  0.00    +0.127 C 
ATOM     17  N   UNL     1       0.035 -12.936   2.315  0.00  0.00    -0.295 N 
ATOM     18  C   UNL     1       1.308 -12.790   3.036  0.00  0.00    +0.127 C 
ATOM     19  C   UNL     1       1.159 -11.675   4.072  0.00  0.00    +0.127 C 
ATOM     20  C   UNL     1      -0.588 -14.130   2.259  0.00  0.00    +0.247 C 
ATOM     21  O   UNL     1      -0.152 -15.073   2.889  0.00  0.00    -0.270 OA
BRANCH  20  22
ATOM     22  C   UNL     1      -1.800 -14.292   1.429  0.00  0.00    +0.037 A 
ATOM     23  C   UNL     1      -1.938 -13.573   0.240  0.00  0.00    +0.013 A 
ATOM     24  C   UNL     1      -3.072 -13.730  -0.530  0.00  0.00    +0.001 A 
ATOM     25  C   UNL     1      -4.072 -14.597  -0.126  0.00  0.00    +0.000 A 
ATOM     26  C   UNL     1      -3.942 -15.312   1.051  0.00  0.00    +0.001 A 
ATOM     27  C   UNL     1      -2.810 -15.169   1.827  0.00  0.00    +0.013 A 
ENDBRANCH  20  22
ENDBRANCH   7  12
BRANCH   1  32
ATOM     28  C   UNL     1      -1.284   1.669   2.008  0.00  0.00    +0.044 C 
ATOM     29  C   UNL     1      -1.160   0.181   1.809  0.00  0.00    -0.050 A 
ATOM     30  C   UNL     1      -1.177  -0.350   0.533  0.00  0.00    +0.004 A 
ATOM     31  C   UNL     1      -1.063  -1.716   0.350  0.00  0.00    +0.006 A 
ATOM     32  C   UNL     1      -0.932  -2.550   1.444  0.00  0.00    -0.027 A 
ATOM     33  C   UNL     1      -0.914  -2.020   2.721  0.00  0.00    +0.006 A 
ATOM     34  C   UNL     1      -1.024  -0.654   2.903  0.00  0.00    +0.004 A 
ENDBRANCH   1  32
BRANCH   3  35
ATOM     35  C   UNL     1      -3.331  -6.908   1.740  0.00  0.00    +0.412 C 
ATOM     36  F   UNL     1      -4.442  -6.389   1.068  0.00  0.00    -0.168 F 
ATOM     37  F   UNL     1      -3.237  -8.282   1.495  0.00  0.00    -0.168 F 
ATOM     38  F   UNL     1      -3.472  -6.688   3.114  0.00  0.00    -0.168 F 
ENDBRANCH   3  35
TORSDOF 4
