REMARK  Name = ZINC12557434
REMARK  12 active torsions:
REMARK  status: ('A' for Active; 'I' for Inactive)
REMARK    1  A    between atoms: C_1  and  C_2
REMARK    2  A    between atoms: C_5  and  C_7
REMARK    3  A    between atoms: C_7  and  N_65
REMARK    4  A    between atoms: C_8  and  N_65
REMARK    5  A    between atoms: C_9  and  C_10
REMARK    6  A    between atoms: C_9  and  N_65
REMARK    7  A    between atoms: C_10  and  C_12
REMARK    8  A    between atoms: C_14  and  C_33
REMARK    9  A    between atoms: N_15  and  C_18
REMARK   10  A    between atoms: C_16  and  C_17
REMARK   11  A    between atoms: C_22  and  S_24
REMARK   12  A    between atoms: S_24  and  N_27
REMARK                            x       y       z     vdW  Elec       q    Type
REMARK                         _______ _______ _______ _____ _____    ______ ____
ROOT
ATOM      1  C   UNL     1       4.153   7.190  -3.167  0.00  0.00    +0.037 A 
ATOM      2  C   UNL     1       4.838   8.079  -2.219  0.00  0.00    +0.034 A 
ATOM      3  C   UNL     1       5.661   8.851  -2.948  0.00  0.00    +0.022 A 
ATOM      4  N   UNL     1       5.540   8.514  -4.267  0.00  0.00    -0.317 N 
ATOM      5  C   UNL     1       4.646   7.517  -4.417  0.00  0.00    +0.031 A 
ATOM      6  C   UNL     1       4.250   6.873  -5.720  0.00  0.00    +0.064 C 
ATOM      7  C   UNL     1       6.570   9.920  -2.400  0.00  0.00    +0.064 C 
ENDROOT
BRANCH   4   8
ATOM      8  C   UNL     1       6.251   9.115  -5.315  0.00  0.00    +0.048 A 
ATOM      9  C   UNL     1       7.164   8.373  -6.052  0.00  0.00    +0.026 A 
ATOM     10  C   UNL     1       7.863   8.968  -7.084  0.00  0.00    +0.004 A 
ATOM     11  C   UNL     1       7.653  10.302  -7.384  0.00  0.00    +0.028 A 
ATOM     12  C   UNL     1       6.744  11.043  -6.652  0.00  0.00    +0.107 A 
ATOM     13  C   UNL     1       6.038  10.452  -5.622  0.00  0.00    +0.054 A 
BRANCH  12  14
ATOM     14  S   UNL     1       6.481  12.742  -7.038  0.00  0.00    +0.061 S 
ATOM     15  O   UNL     1       5.982  13.354  -5.856  0.00  0.00    -0.153 OA
ATOM     16  O   UNL     1       7.657  13.197  -7.693  0.00  0.00    -0.153 OA
BRANCH  14  17
ATOM     17  N   UNL     1       5.261  12.807  -8.156  0.00  0.00    -0.172 NA
ATOM     18  C   UNL     1       5.553  12.763  -9.598  0.00  0.00    +0.137 C 
ATOM     19  C   UNL     1       4.663  11.682 -10.234  0.00  0.00    +0.177 C 
ATOM     20  O   UNL     1       3.302  11.921  -9.868  0.00  0.00    -0.377 OA
ATOM     21  C   UNL     1       3.049  11.833  -8.464  0.00  0.00    +0.177 C 
ATOM     22  C   UNL     1       3.855  12.916  -7.737  0.00  0.00    +0.137 C 
ENDBRANCH  14  17
ENDBRANCH  12  14
ENDBRANCH   4   8
BRANCH   1  23
ATOM     23  C   UNL     1       3.157   6.164  -2.853  0.00  0.00    +0.149 C 
ATOM     24  O   UNL     1       2.670   5.498  -3.743  0.00  0.00    -0.294 OA
BRANCH  23  25
ATOM     25  C   UNL     1       2.737   5.935  -1.424  0.00  0.00    +0.002 C 
BRANCH  25  27
ATOM     26  C   UNL     1       0.493   5.270  -2.043  0.00  0.00    -0.095 C 
ATOM     27  N   UNL     1       1.746   4.839  -1.388  0.00  0.00    +0.387 N 
ATOM     28  H   UNL     1       2.125   4.030  -1.894  0.00  0.00    -0.081 HD
BRANCH  27  29
ATOM     29  C   UNL     1       1.476   4.447   0.011  0.00  0.00    -0.003 C 
BRANCH  29  34
ATOM     30  C   UNL     1      -2.533   1.387   0.021  0.00  0.00    +0.086 C 
ATOM     31  C   UNL     1      -1.103   1.863   0.017  0.00  0.00    +0.102 A 
ATOM     32  C   UNL     1      -0.013   1.076   0.008  0.00  0.00    +0.044 A 
ATOM     33  C   UNL     1       1.111   1.934   0.002  0.00  0.00    +0.043 A 
ATOM     34  C   UNL     1       0.640   3.193   0.012  0.00  0.00    +0.089 A 
ATOM     35  O   UNL     1      -0.702   3.144   0.024  0.00  0.00    -0.467 OA
ENDBRANCH  29  34
ENDBRANCH  27  29
ENDBRANCH  25  27
ENDBRANCH  23  25
ENDBRANCH   1  23
TORSDOF 8
