REMARK  Name = ZINC33085505
REMARK  10 active torsions:
REMARK  status: ('A' for Active; 'I' for Inactive)
REMARK    1  A    between atoms: C_1  and  C_2
REMARK    2  A    between atoms: C_5  and  N_9
REMARK    3  A    between atoms: C_6  and  C_8
REMARK    4  A    between atoms: C_10  and  C_12
REMARK    5  A    between atoms: C_13  and  C_37
REMARK    6  A    between atoms: C_17  and  S_29
REMARK    7  A    between atoms: C_20  and  C_22
REMARK    8  A    between atoms: C_25  and  O_28
REMARK    9  A    between atoms: S_29  and  C_30
REMARK   10  A    between atoms: C_30  and  C_31
REMARK                            x       y       z     vdW  Elec       q    Type
REMARK                         _______ _______ _______ _____ _____    ______ ____
ROOT
ATOM      1  C   UNL     1      -2.443   3.625   7.058  0.00  0.00    +0.060 C 
ATOM      2  C   UNL     1      -1.627   3.860   8.097  0.00  0.00    +0.018 C 
ATOM      3  N   UNL     1      -2.092   4.328   9.301  0.00  0.00    -0.287 N 
ATOM      4  C   UNL     1      -3.399   4.794   9.345  0.00  0.00    +0.219 A 
ATOM      5  N   UNL     1      -4.016   5.480  10.269  0.00  0.00    -0.187 NA
ATOM      6  C   UNL     1      -5.278   5.719   9.882  0.00  0.00    +0.211 A 
ATOM      7  N   UNL     1      -5.472   5.180   8.697  0.00  0.00    -0.141 NA
ATOM      8  N   UNL     1      -4.272   4.573   8.331  0.00  0.00    -0.220 N 
ATOM      9  C   UNL     1      -3.933   3.828   7.122  0.00  0.00    +0.177 C 
ATOM     10  C   UNL     1      -0.150   3.607   7.935  0.00  0.00    +0.061 C 
ATOM     11  H   UNL     1      -1.436   4.324  10.184  0.00  0.00    +0.155 HD
ENDROOT
BRANCH   9  12
ATOM     12  C   UNL     1      -4.622   2.487   7.149  0.00  0.00    -0.018 A 
ATOM     13  C   UNL     1      -4.356   1.596   8.171  0.00  0.00    +0.009 A 
ATOM     14  C   UNL     1      -4.991   0.369   8.201  0.00  0.00    +0.046 A 
ATOM     15  C   UNL     1      -5.885   0.027   7.197  0.00  0.00    +0.117 A 
ATOM     16  C   UNL     1      -6.145   0.921   6.169  0.00  0.00    +0.046 A 
ATOM     17  C   UNL     1      -5.513   2.149   6.147  0.00  0.00    +0.009 A 
BRANCH  15  18
ATOM     18  O   UNL     1      -6.505  -1.182   7.221  0.00  0.00    -0.507 OA
ATOM     19  H   UNL     1      -7.214  -1.452   6.425  0.00  0.00    +0.292 HD
ENDBRANCH  15  18
ENDBRANCH   9  12
BRANCH   1  21
ATOM     20  N   UNL     1      -1.647   1.843   5.674  0.00  0.00    -0.281 N 
ATOM     21  C   UNL     1      -1.877   3.159   5.848  0.00  0.00    +0.248 C 
ATOM     22  O   UNL     1      -1.596   3.948   4.964  0.00  0.00    -0.270 OA
ATOM     23  H   UNL     1      -1.984   1.121   6.433  0.00  0.00    +0.155 HD
BRANCH  20  28
ATOM     24  C   UNL     1       1.053   0.024   1.029  0.00  0.00    +0.044 C 
ATOM     25  C   UNL     1       0.336   0.507   2.264  0.00  0.00    -0.050 A 
ATOM     26  C   UNL     1       0.534   1.799   2.715  0.00  0.00    +0.005 A 
ATOM     27  C   UNL     1      -0.122   2.245   3.846  0.00  0.00    +0.024 A 
ATOM     28  C   UNL     1      -0.981   1.394   4.529  0.00  0.00    +0.037 A 
ATOM     29  C   UNL     1      -1.178   0.098   4.073  0.00  0.00    -0.029 A 
ATOM     30  C   UNL     1      -0.523  -0.340   2.938  0.00  0.00    +0.008 A 
ATOM     31  C   UNL     1      -2.109  -0.829   4.812  0.00  0.00    +0.045 C 
ENDBRANCH  20  28
ENDBRANCH   1  21
BRANCH   6  32
ATOM     32  S   UNL     1      -6.480   6.613  10.809  0.00  0.00    -0.080 S 
BRANCH  32  33
ATOM     33  C   UNL     1      -5.604   7.085  12.325  0.00  0.00    +0.112 C 
BRANCH  33  34
ATOM     34  C   UNL     1      -6.532   7.866  13.220  0.00  0.00    -0.037 A 
ATOM     35  C   UNL     1      -6.599   9.242  13.112  0.00  0.00    +0.004 A 
ATOM     36  C   UNL     1      -7.454   9.958  13.930  0.00  0.00    +0.000 A 
ATOM     37  C   UNL     1      -8.233   9.299  14.861  0.00  0.00    +0.000 A 
ATOM     38  C   UNL     1      -8.162   7.923  14.972  0.00  0.00    +0.000 A 
ATOM     39  C   UNL     1      -7.311   7.206  14.151  0.00  0.00    +0.004 A 
ENDBRANCH  33  34
ENDBRANCH  32  33
ENDBRANCH   6  32
TORSDOF 7
