REMARK  Name = ZINC25500454
REMARK  5 active torsions:
REMARK  status: ('A' for Active; 'I' for Inactive)
REMARK    1  A    between atoms: C_4  and  C_7
REMARK    2  A    between atoms: N_11  and  O_12
REMARK    3  A    between atoms: C_14  and  C_25
REMARK    4  A    between atoms: C_16  and  C_17
REMARK    5  A    between atoms: C_16  and  C_19
REMARK                            x       y       z     vdW  Elec       q    Type
REMARK                         _______ _______ _______ _____ _____    ______ ____
ROOT
ATOM      1  C   UNL     1       2.377   1.295  -0.053  0.00  0.00    +0.050 C 
ATOM      2  C   UNL     1       3.226   1.760   1.135  0.00  0.00    +0.064 C 
ATOM      3  C   UNL     1       3.800   3.122   0.812  0.00  0.00    +0.059 C 
ATOM      4  N   UNL     1       3.673   4.098   1.629  0.00  0.00    -0.096 NA
ATOM      5  C   UNL     1       4.529   3.299  -0.502  0.00  0.00    +0.064 C 
ATOM      6  C   UNL     1       3.633   2.779  -1.630  0.00  0.00    +0.050 C 
ATOM      7  C   UNL     1       3.221   1.337  -1.328  0.00  0.00    +0.096 C 
ENDROOT
BRANCH   1  11
ATOM      8  C   UNL     1      -0.996   3.881  -0.491  0.00  0.00    +0.000 A 
ATOM      9  C   UNL     1       0.282   4.409  -0.465  0.00  0.00    +0.000 A 
ATOM     10  C   UNL     1       1.373   3.572  -0.329  0.00  0.00    +0.004 A 
ATOM     11  C   UNL     1       1.187   2.207  -0.208  0.00  0.00    -0.042 A 
ATOM     12  C   UNL     1      -0.090   1.679  -0.229  0.00  0.00    +0.004 A 
ATOM     13  C   UNL     1      -1.182   2.516  -0.371  0.00  0.00    +0.000 A 
ENDBRANCH   1  11
BRANCH   7  14
ATOM     14  C   UNL     1       2.415   0.794  -2.480  0.00  0.00    -0.026 A 
ATOM     15  C   UNL     1       1.169   0.241  -2.252  0.00  0.00    +0.005 A 
ATOM     16  C   UNL     1       0.428  -0.253  -3.309  0.00  0.00    +0.000 A 
ATOM     17  C   UNL     1       0.937  -0.202  -4.593  0.00  0.00    +0.000 A 
ATOM     18  C   UNL     1       2.185   0.347  -4.821  0.00  0.00    +0.000 A 
ATOM     19  C   UNL     1       2.924   0.845  -3.764  0.00  0.00    +0.005 A 
ENDBRANCH   7  14
BRANCH   6  20
ATOM     20  C   UNL     1       4.389   2.823  -2.933  0.00  0.00    -0.042 A 
ATOM     21  C   UNL     1       5.563   2.108  -3.075  0.00  0.00    +0.004 A 
ATOM     22  C   UNL     1       6.254   2.144  -4.272  0.00  0.00    +0.000 A 
ATOM     23  C   UNL     1       5.776   2.904  -5.324  0.00  0.00    +0.000 A 
ATOM     24  C   UNL     1       4.604   3.623  -5.180  0.00  0.00    +0.000 A 
ATOM     25  C   UNL     1       3.910   3.582  -3.985  0.00  0.00    +0.004 A 
ENDBRANCH   6  20
BRANCH   4  26
ATOM     26  O   UNL     1       2.988   3.912   2.854  0.00  0.00    -0.409 OA
ATOM     27  H   UNL     1       2.878   4.751   3.556  0.00  0.00    +0.328 HD
ENDBRANCH   4  26
BRANCH   7  28
ATOM     28  C   UNL     1       4.426   0.512  -1.144  0.00  0.00    +0.075 C 
ATOM     29  N   UNL     1       5.356  -0.125  -1.002  0.00  0.00    -0.196 NA
ENDBRANCH   7  28
TORSDOF 5
