REMARK  Name = ZINC59831324
REMARK  11 active torsions:
REMARK  status: ('A' for Active; 'I' for Inactive)
REMARK    1  A    between atoms: C_1  and  C_2
REMARK    2  A    between atoms: C_3  and  C_11
REMARK    3  A    between atoms: C_4  and  C_10
REMARK    4  A    between atoms: N_5  and  C_7
REMARK    5  A    between atoms: C_7  and  C_8
REMARK    6  A    between atoms: N_12  and  N_13
REMARK    7  A    between atoms: C_16  and  S_19
REMARK    8  A    between atoms: S_19  and  C_20
REMARK    9  A    between atoms: C_20  and  C_21
REMARK   10  A    between atoms: N_23  and  C_24
REMARK   11  A    between atoms: N_23  and  C_30
REMARK                            x       y       z     vdW  Elec       q    Type
REMARK                         _______ _______ _______ _____ _____    ______ ____
ROOT
ATOM      1  N   UNL     1       0.070   1.280  -5.058  0.00  0.00    -0.205 N 
ATOM      2  C   UNL     1       0.039   2.654  -5.204  0.00  0.00    +0.232 A 
ATOM      3  N   UNL     1      -0.016   3.535  -4.227  0.00  0.00    -0.186 NA
ATOM      4  C   UNL     1      -0.030   4.772  -4.737  0.00  0.00    +0.211 A 
ATOM      5  N   UNL     1       0.016   4.694  -6.046  0.00  0.00    -0.144 NA
ATOM      6  N   UNL     1       0.067   3.329  -6.373  0.00  0.00    -0.245 N 
ATOM      7  H   UNL     1       0.115   0.710  -5.842  0.00  0.00    +0.177 HD
ATOM      8  H   UNL     1       0.111   2.947  -7.264  0.00  0.00    +0.192 HD
ENDROOT
BRANCH   1  10
ATOM      9  C   UNL     1       0.064  -0.579  -3.642  0.00  0.00    +0.141 C 
ATOM     10  N   UNL     1       0.035   0.711  -3.779  0.00  0.00    -0.187 NA
BRANCH   9  13
ATOM     11  C   UNL     1      -0.085   1.016  -0.905  0.00  0.00    +0.068 C 
ATOM     12  C   UNL     1      -0.039  -0.481  -1.068  0.00  0.00    +0.069 A 
ATOM     13  C   UNL     1       0.027  -1.179  -2.293  0.00  0.00    +0.038 A 
ATOM     14  C   UNL     1       0.052  -2.525  -1.997  0.00  0.00    +0.045 A 
ATOM     15  N   UNL     1       0.003  -2.643  -0.655  0.00  0.00    -0.264 N 
ATOM     16  N   UNL     1      -0.047  -1.358  -0.101  0.00  0.00    -0.175 NA
ATOM     17  C   UNL     1       0.120  -3.656  -2.990  0.00  0.00    +0.066 C 
BRANCH  15  18
ATOM     18  C   UNL     1       0.007  -3.901   0.096  0.00  0.00    +0.170 C 
BRANCH  18  19
ATOM     19  C   UNL     1       1.428  -4.294   0.409  0.00  0.00    -0.012 C 
ATOM     20  C   UNL     1       1.787  -4.522   1.648  0.00  0.00    +0.006 C 
ENDBRANCH  18  19
ENDBRANCH  15  18
ENDBRANCH   9  13
ENDBRANCH   1  10
BRANCH   4  21
ATOM     21  S   UNL     1      -0.100   6.264  -3.803  0.00  0.00    -0.075 S 
BRANCH  21  22
ATOM     22  C   UNL     1      -0.090   7.571  -5.061  0.00  0.00    +0.174 C 
BRANCH  22  23
ATOM     23  C   UNL     1      -0.147   8.917  -4.387  0.00  0.00    +0.234 C 
ATOM     24  O   UNL     1      -0.286   8.988  -3.184  0.00  0.00    -0.274 OA
ATOM     25  N   UNL     1      -0.045  10.043  -5.120  0.00  0.00    -0.240 N 
BRANCH  25  26
ATOM     26  C   UNL     1      -0.005   9.966  -6.518  0.00  0.00    +0.041 A 
ATOM     27  C   UNL     1      -1.118   9.524  -7.222  0.00  0.00    +0.024 A 
ATOM     28  C   UNL     1      -1.076   9.450  -8.601  0.00  0.00    +0.002 A 
ATOM     29  C   UNL     1       0.072   9.815  -9.280  0.00  0.00    +0.000 A 
ATOM     30  C   UNL     1       1.181  10.256  -8.581  0.00  0.00    +0.002 A 
ATOM     31  C   UNL     1       1.144  10.338  -7.203  0.00  0.00    +0.024 A 
ENDBRANCH  25  26
BRANCH  25  32
ATOM     32  C   UNL     1       0.022  11.289  -4.485  0.00  0.00    +0.041 A 
ATOM     33  C   UNL     1       1.018  11.541  -3.551  0.00  0.00    +0.024 A 
ATOM     34  C   UNL     1       1.082  12.771  -2.926  0.00  0.00    +0.002 A 
ATOM     35  C   UNL     1       0.155  13.751  -3.230  0.00  0.00    +0.000 A 
ATOM     36  C   UNL     1      -0.838  13.504  -4.160  0.00  0.00    +0.002 A 
ATOM     37  C   UNL     1      -0.903  12.278  -4.793  0.00  0.00    +0.024 A 
ENDBRANCH  25  32
ENDBRANCH  22  23
ENDBRANCH  21  22
ENDBRANCH   4  21
TORSDOF 9
