REMARK  Name = ZINC09454401
REMARK  4 active torsions:
REMARK  status: ('A' for Active; 'I' for Inactive)
REMARK    1  A    between atoms: C_5  and  C_7
REMARK    2  A    between atoms: C_8  and  C_26
REMARK    3  A    between atoms: C_8  and  C_30
REMARK    4  A    between atoms: N_16  and  C_19
REMARK                            x       y       z     vdW  Elec       q    Type
REMARK                         _______ _______ _______ _____ _____    ______ ____
ROOT
ATOM      1  C   UNL     1       0.913   5.377  -1.807  0.00  0.00    +0.109 C 
ATOM      2  C   UNL     1       1.882   3.236  -1.230  0.00  0.00    +0.264 C 
ATOM      3  C   UNL     1       0.764   3.127  -0.232  0.00  0.00    +0.098 A 
ATOM      4  C   UNL     1       0.754   2.085   0.711  0.00  0.00    +0.262 A 
ATOM      5  O   UNL     1       1.657   1.267   0.733  0.00  0.00    -0.267 OA
ATOM      6  N   UNL     1      -0.263   1.998   1.591  0.00  0.00    -0.274 N 
ATOM      7  H   UNL     1      -0.272   1.261   2.266  0.00  0.00    +0.173 HD
ATOM      8  C   UNL     1      -1.267   2.894   1.571  0.00  0.00    +0.335 A 
ATOM      9  O   UNL     1      -2.177   2.792   2.371  0.00  0.00    -0.246 OA
ATOM     10  N   UNL     1      -1.275   3.906   0.683  0.00  0.00    -0.250 N 
ATOM     11  C   UNL     1      -0.256   4.031  -0.230  0.00  0.00    +0.124 A 
ATOM     12  N   UNL     1      -0.255   5.061  -1.141  0.00  0.00    -0.286 N 
ATOM     13  H   UNL     1      -1.067   5.561  -1.316  0.00  0.00    +0.155 HD
ATOM     14  N   UNL     1       1.984   4.581  -1.899  0.00  0.00    -0.348 N 
ATOM     15  H   UNL     1       2.832   4.872  -2.399  0.00  0.00    +0.162 HD
ENDROOT
BRANCH   1  20
ATOM     16  C   UNL     1       0.077   8.811  -3.078  0.00  0.00    +0.001 A 
ATOM     17  C   UNL     1       1.241   9.143  -3.750  0.00  0.00    +0.003 A 
ATOM     18  C   UNL     1       2.299   8.254  -3.792  0.00  0.00    +0.039 A 
ATOM     19  C   UNL     1       2.202   7.029  -3.157  0.00  0.00    +0.134 A 
ATOM     20  C   UNL     1       1.027   6.688  -2.483  0.00  0.00    +0.048 A 
ATOM     21  C   UNL     1      -0.035   7.591  -2.446  0.00  0.00    +0.014 A 
ATOM     22  F   UNL     1       3.239   6.163  -3.194  0.00  0.00    -0.205 F 
ENDBRANCH   1  20
BRANCH  10  23
ATOM     23  C   UNL     1      -2.329   4.829   0.685  0.00  0.00    +0.053 A 
ATOM     24  C   UNL     1      -3.464   4.591  -0.078  0.00  0.00    +0.028 A 
ATOM     25  C   UNL     1      -4.504   5.501  -0.071  0.00  0.00    +0.022 A 
ATOM     26  C   UNL     1      -4.410   6.654   0.689  0.00  0.00    +0.041 A 
ATOM     27  C   UNL     1      -3.278   6.896   1.447  0.00  0.00    +0.022 A 
ATOM     28  C   UNL     1      -2.238   5.987   1.446  0.00  0.00    +0.028 A 
ATOM     29 CL   UNL     1      -5.715   7.798   0.691  0.00  0.00    -0.084 Cl
ENDBRANCH  10  23
BRANCH   2  30
ATOM     30  C   UNL     1       3.214   2.991  -0.518  0.00  0.00    +0.426 C 
ATOM     31  F   UNL     1       3.364   1.623  -0.266  0.00  0.00    -0.167 F 
ATOM     32  F   UNL     1       4.265   3.433  -1.329  0.00  0.00    -0.167 F 
ATOM     33  F   UNL     1       3.232   3.692   0.692  0.00  0.00    -0.167 F 
ENDBRANCH   2  30
BRANCH   2  34
ATOM     34  C   UNL     1       1.692   2.172  -2.313  0.00  0.00    +0.426 C 
ATOM     35  F   UNL     1       0.466   2.376  -2.956  0.00  0.00    -0.167 F 
ATOM     36  F   UNL     1       2.729   2.267  -3.247  0.00  0.00    -0.167 F 
ATOM     37  F   UNL     1       1.706   0.902  -1.728  0.00  0.00    -0.167 F 
ENDBRANCH   2  34
TORSDOF 4
