REMARK  Name = ZINC39653126
REMARK  14 active torsions:
REMARK  status: ('A' for Active; 'I' for Inactive)
REMARK    1  A    between atoms: C_1  and  C_2
REMARK    2  A    between atoms: C_2  and  C_3
REMARK    3  A    between atoms: C_3  and  C_4
REMARK    4  A    between atoms: C_4  and  C_5
REMARK    5  A    between atoms: C_5  and  C_7
REMARK    6  A    between atoms: C_5  and  C_8
REMARK    7  A    between atoms: C_12  and  C_21
REMARK    8  A    between atoms: N_23  and  C_24
REMARK    9  A    between atoms: C_24  and  C_25
REMARK   10  A    between atoms: C_25  and  C_26
REMARK   11  A    between atoms: C_28  and  O_34
REMARK   12  A    between atoms: C_30  and  O_32
REMARK   13  A    between atoms: O_32  and  C_33
REMARK   14  A    between atoms: O_34  and  C_35
REMARK                            x       y       z     vdW  Elec       q    Type
REMARK                         _______ _______ _______ _____ _____    ______ ____
ROOT
ATOM      1  C   UNL     1      -2.990  -4.337   0.307  0.00  0.00    +0.218 C 
ATOM      2  O   UNL     1      -1.997  -4.999   0.522  0.00  0.00    -0.275 OA
ATOM      3  N   UNL     1      -4.179  -4.946   0.126  0.00  0.00    -0.300 N 
ATOM      4  C   UNL     1      -5.469  -4.323  -0.253  0.00  0.00    +0.121 C 
ATOM      5  C   UNL     1      -6.114  -5.327  -1.234  0.00  0.00    +0.100 C 
ATOM      6  C   UNL     1      -5.470  -6.680  -0.891  0.00  0.00    -0.004 C 
ATOM      7  C   UNL     1      -4.490  -6.389   0.255  0.00  0.00    +0.115 C 
ATOM      8  C   UNL     1      -4.713  -7.226  -2.098  0.00  0.00    -0.010 C 
ATOM      9  C   UNL     1      -4.129  -8.599  -1.750  0.00  0.00    -0.082 C 
ATOM     10  N   UNL     1      -5.215  -9.513  -1.373  0.00  0.00    +0.379 N 
ATOM     11  C   UNL     1      -5.878  -9.027  -0.157  0.00  0.00    -0.082 C 
ATOM     12  C   UNL     1      -6.535  -7.673  -0.437  0.00  0.00    -0.010 C 
ATOM     13  H   UNL     1      -5.886  -9.562  -2.124  0.00  0.00    -0.086 HD
ATOM     14  H   UNL     1      -4.835 -10.432  -1.204  0.00  0.00    -0.086 HD
ENDROOT
BRANCH   5  15
ATOM     15  C   UNL     1      -7.605  -5.384  -1.023  0.00  0.00    +0.218 C 
ATOM     16  O   UNL     1      -8.071  -5.159   0.074  0.00  0.00    -0.275 OA
ATOM     17  N   UNL     1      -8.421  -5.685  -2.053  0.00  0.00    -0.315 N 
ATOM     18  H   UNL     1      -8.048  -5.865  -2.930  0.00  0.00    +0.149 HD
BRANCH  17  19
ATOM     19  C   UNL     1      -9.870  -5.740  -1.847  0.00  0.00    +0.109 C 
BRANCH  19  20
ATOM     20  C   UNL     1     -10.559  -6.100  -3.165  0.00  0.00    +0.054 C 
BRANCH  20  21
ATOM     21  C   UNL     1     -12.050  -6.158  -2.953  0.00  0.00    -0.039 A 
ATOM     22  C   UNL     1     -12.648  -7.345  -2.577  0.00  0.00    +0.049 A 
ATOM     23  C   UNL     1     -14.021  -7.400  -2.381  0.00  0.00    +0.124 A 
ATOM     24  C   UNL     1     -14.792  -6.263  -2.564  0.00  0.00    +0.091 A 
ATOM     25  C   UNL     1     -14.190  -5.073  -2.941  0.00  0.00    +0.124 A 
ATOM     26  C   UNL     1     -12.816  -5.021  -3.130  0.00  0.00    +0.049 A 
BRANCH  25  27
ATOM     27  O   UNL     1     -14.943  -3.956  -3.121  0.00  0.00    -0.495 OA
ATOM     28  C   UNL     1     -16.350  -4.081  -2.904  0.00  0.00    +0.277 C 
ENDBRANCH  25  27
BRANCH  23  29
ATOM     29  O   UNL     1     -14.609  -8.569  -2.012  0.00  0.00    -0.495 OA
ATOM     30  C   UNL     1     -16.026  -8.552  -1.828  0.00  0.00    +0.277 C 
ENDBRANCH  23  29
ENDBRANCH  20  21
ENDBRANCH  19  20
ENDBRANCH  17  19
ENDBRANCH   5  15
BRANCH   1  31
ATOM     31  C   UNL     1      -2.894  -2.835   0.241  0.00  0.00    +0.072 C 
ATOM     32  C   UNL     1      -2.586  -2.406  -1.195  0.00  0.00    +0.017 C 
BRANCH  31  33
ATOM     33  C   UNL     1      -1.776  -2.354   1.168  0.00  0.00    +0.012 C 
BRANCH  33  34
ATOM     34  C   UNL     1      -1.760  -0.824   1.197  0.00  0.00    +0.000 C 
BRANCH  34  36
ATOM     35  C   UNL     1      -0.626   1.186   2.153  0.00  0.00    +0.004 C 
ATOM     36  C   UNL     1      -0.642  -0.344   2.124  0.00  0.00    -0.003 C 
ENDBRANCH  34  36
ENDBRANCH  33  34
ENDBRANCH  31  33
ENDBRANCH   1  31
TORSDOF 10
