REMARK  Name = ZINC59959390
REMARK  11 active torsions:
REMARK  status: ('A' for Active; 'I' for Inactive)
REMARK    1  A    between atoms: C_1  and  C_2
REMARK    2  A    between atoms: C_3  and  C_21
REMARK    3  A    between atoms: C_5  and  C_6
REMARK    4  A    between atoms: C_9  and  C_12
REMARK    5  A    between atoms: C_12  and  C_13
REMARK    6  A    between atoms: C_12  and  C_14
REMARK    7  A    between atoms: N_17  and  C_18
REMARK    8  A    between atoms: C_18  and  C_19
REMARK    9  A    between atoms: C_18  and  C_20
REMARK   10  A    between atoms: C_21  and  O_23
REMARK   11  A    between atoms: O_23  and  C_24
REMARK                            x       y       z     vdW  Elec       q    Type
REMARK                         _______ _______ _______ _____ _____    ______ ____
ROOT
ATOM      1  C   UNL     1      -0.124   1.494   0.030  0.00  0.00    +0.062 C 
ATOM      2  C   UNL     1       0.035  -0.004   0.002  0.00  0.00    +0.026 C 
ATOM      3  C   UNL     1      -0.156  -0.779  -1.099  0.00  0.00    +0.088 C 
ATOM      4  C   UNL     1       0.107  -2.177  -0.673  0.00  0.00    +0.053 C 
ATOM      5  C   UNL     1       0.042  -3.309  -1.432  0.00  0.00    +0.022 C 
ATOM      6  C   UNL     1       0.455  -2.067   0.756  0.00  0.00    +0.252 C 
ATOM      7  O   UNL     1       0.746  -2.982   1.504  0.00  0.00    -0.270 OA
ATOM      8  N   UNL     1       0.395  -0.760   1.073  0.00  0.00    -0.268 N 
ENDROOT
BRANCH   5   9
ATOM      9  C   UNL     1       0.174  -4.626  -0.799  0.00  0.00    -0.024 A 
ATOM     10  C   UNL     1      -0.418  -4.872   0.446  0.00  0.00    +0.008 A 
ATOM     11  C   UNL     1      -0.289  -6.112   1.034  0.00  0.00    +0.004 A 
ATOM     12  C   UNL     1       0.422  -7.114   0.396  0.00  0.00    -0.045 A 
ATOM     13  C   UNL     1       1.011  -6.880  -0.835  0.00  0.00    +0.004 A 
ATOM     14  C   UNL     1       0.887  -5.647  -1.440  0.00  0.00    +0.008 A 
BRANCH  12  15
ATOM     15  C   UNL     1       0.558  -8.466   1.046  0.00  0.00    +0.013 C 
ATOM     16  C   UNL     1      -0.050  -9.534   0.135  0.00  0.00    +0.012 C 
ATOM     17  C   UNL     1       2.039  -8.775   1.276  0.00  0.00    +0.012 C 
ENDBRANCH  12  15
ENDBRANCH   5   9
BRANCH   8  18
ATOM     18  C   UNL     1       0.678  -0.222   2.406  0.00  0.00    +0.075 C 
ATOM     19  C   UNL     1      -0.290  -0.834   3.420  0.00  0.00    +0.028 C 
ATOM     20  C   UNL     1       2.115  -0.567   2.801  0.00  0.00    +0.028 C 
ENDBRANCH   8  18
BRANCH   3  21
ATOM     21  C   UNL     1      -0.544  -0.325  -2.438  0.00  0.00    +0.341 C 
ATOM     22  O   UNL     1      -0.729   0.858  -2.650  0.00  0.00    -0.245 OA
BRANCH  21  23
ATOM     23  O   UNL     1      -0.696  -1.220  -3.436  0.00  0.00    -0.464 OA
ATOM     24  C   UNL     1      -1.075  -0.708  -4.715  0.00  0.00    +0.280 C 
ENDBRANCH  21  23
ENDBRANCH   3  21
TORSDOF 5
