REMARK  Name = ZINC08572939
REMARK  3 active torsions:
REMARK  status: ('A' for Active; 'I' for Inactive)
REMARK    1  A    between atoms: C_7  and  C_8
REMARK    2  A    between atoms: N_9  and  N_10
REMARK    3  A    between atoms: C_11  and  C_12
REMARK                            x       y       z     vdW  Elec       q    Type
REMARK                         _______ _______ _______ _____ _____    ______ ____
ROOT
ATOM      1  N   UNL     1      -2.340  -2.721  -0.229  0.00  0.00    -0.157 NA
ATOM      2  C   UNL     1      -2.328  -4.034  -0.306  0.00  0.00    +0.169 C 
ATOM      3  N   UNL     1      -1.127  -4.713  -0.317  0.00  0.00    -0.340 N 
ATOM      4  H   UNL     1      -0.291  -4.220  -0.328  0.00  0.00    +0.144 HD
ATOM      5  H   UNL     1      -1.117  -5.683  -0.313  0.00  0.00    +0.144 HD
ENDROOT
BRANCH   2   6
ATOM      6  C   UNL     1      -3.599  -4.781  -0.382  0.00  0.00    +0.189 A 
ATOM      7  C   UNL     1      -4.940  -4.191  -0.479  0.00  0.00    +0.191 A 
ATOM      8  N   UNL     1      -5.812  -5.161  -0.525  0.00  0.00    -0.033 NA
ATOM      9  O   UNL     1      -5.106  -6.387  -0.462  0.00  0.00    -0.240 OA
ATOM     10  N   UNL     1      -3.724  -6.085  -0.379  0.00  0.00    -0.044 NA
ATOM     11  N   UNL     1      -5.231  -2.834  -0.515  0.00  0.00    -0.339 N 
ATOM     12  H   UNL     1      -4.511  -2.185  -0.544  0.00  0.00    +0.144 HD
ATOM     13  H   UNL     1      -6.154  -2.536  -0.512  0.00  0.00    +0.144 HD
ENDBRANCH   2   6
BRANCH   1  15
ATOM     14  C   UNL     1      -1.242  -0.763  -0.086  0.00  0.00    +0.115 C 
ATOM     15  N   UNL     1      -1.230  -2.068  -0.163  0.00  0.00    -0.282 N 
ATOM     16  H   UNL     1      -0.385  -2.546  -0.170  0.00  0.00    +0.188 HD
BRANCH  14  23
ATOM     17  C   UNL     1       0.021   1.372   0.082  0.00  0.00    +0.033 A 
ATOM     18  C   UNL     1       1.211   2.069   0.053  0.00  0.00    +0.043 A 
ATOM     19  C   UNL     1       2.406   1.404  -0.170  0.00  0.00    +0.044 A 
ATOM     20  C   UNL     1       2.419   0.035  -0.367  0.00  0.00    +0.090 A 
ATOM     21  C   UNL     1       1.234  -0.682  -0.342  0.00  0.00    +0.206 A 
ATOM     22  O   UNL     1       1.246  -2.026  -0.536  0.00  0.00    -0.286 OA
ATOM     23  C   UNL     1       0.021  -0.013  -0.116  0.00  0.00    +0.042 A 
ATOM     24 CL   UNL     1       3.923  -0.786  -0.646  0.00  0.00    -0.080 Cl
ATOM     25 CL   UNL     1       1.211   3.788   0.298  0.00  0.00    -0.083 Cl
ENDBRANCH  14  23
ENDBRANCH   1  15
TORSDOF 3
