REMARK  Name = ZINC44269549
REMARK  3 active torsions:
REMARK  status: ('A' for Active; 'I' for Inactive)
REMARK    1  A    between atoms: C_5  and  C_7
REMARK    2  A    between atoms: C_8  and  C_13
REMARK    3  A    between atoms: C_11  and  N_12
REMARK                            x       y       z     vdW  Elec       q    Type
REMARK                         _______ _______ _______ _____ _____    ______ ____
ROOT
ATOM      1  C   UNL     1       1.247  -2.163  -0.022  0.00  0.00    +0.072 A 
ATOM      2  C   UNL     1       1.269  -3.045   1.148  0.00  0.00    +0.124 A 
ATOM      3  N   UNL     1       1.288  -4.279   0.702  0.00  0.00    -0.075 NA
ATOM      4  O   UNL     1       1.281  -4.254  -0.711  0.00  0.00    -0.339 OA
ATOM      5  C   UNL     1       1.251  -2.981  -1.134  0.00  0.00    +0.224 A 
ENDROOT
BRANCH   2   6
ATOM      6  C   UNL     1       1.268  -2.622   2.569  0.00  0.00    +0.023 A 
ATOM      7  C   UNL     1       1.240  -1.267   2.895  0.00  0.00    +0.014 A 
ATOM      8  C   UNL     1       1.240  -0.878   4.219  0.00  0.00    +0.039 A 
ATOM      9  C   UNL     1       1.267  -1.831   5.224  0.00  0.00    +0.125 A 
ATOM     10  C   UNL     1       1.295  -3.179   4.906  0.00  0.00    +0.059 A 
ATOM     11  C   UNL     1       1.290  -3.579   3.584  0.00  0.00    +0.053 A 
ATOM     12 CL   UNL     1       1.319  -5.268   3.186  0.00  0.00    -0.083 Cl
ATOM     13  F   UNL     1       1.266  -1.445   6.519  0.00  0.00    -0.205 F 
ENDBRANCH   2   6
BRANCH   1  18
ATOM     14  C   UNL     1      -0.017   1.376   0.010  0.00  0.00    +0.001 A 
ATOM     15  C   UNL     1       1.170   2.087   0.002  0.00  0.00    +0.001 A 
ATOM     16  C   UNL     1       2.382   1.421  -0.013  0.00  0.00    +0.020 A 
ATOM     17  C   UNL     1       2.414   0.040  -0.021  0.00  0.00    +0.049 A 
ATOM     18  C   UNL     1       1.220  -0.682  -0.013  0.00  0.00    +0.008 A 
ATOM     19  C   UNL     1       0.002  -0.004   0.002  0.00  0.00    +0.010 A 
ATOM     20 CL   UNL     1       3.936  -0.795  -0.040  0.00  0.00    -0.083 Cl
ENDBRANCH   1  18
BRANCH   5  21
ATOM     21  N   UNL     1       1.230  -2.564  -2.449  0.00  0.00    -0.327 N 
ATOM     22  H   UNL     1       1.211  -1.616  -2.656  0.00  0.00    +0.145 HD
ATOM     23  H   UNL     1       1.235  -3.217  -3.165  0.00  0.00    +0.145 HD
ENDBRANCH   5  21
TORSDOF 3
