REMARK  Name = ZINC02155200
REMARK  10 active torsions:
REMARK  status: ('A' for Active; 'I' for Inactive)
REMARK    1  A    between atoms: C_1  and  C_2
REMARK    2  A    between atoms: C_2  and  C_3
REMARK    3  A    between atoms: C_2  and  C_4
REMARK    4  A    between atoms: C_4  and  O_6
REMARK    5  A    between atoms: O_6  and  C_7
REMARK    6  A    between atoms: C_15  and  O_18
REMARK    7  A    between atoms: O_18  and  C_19
REMARK    8  A    between atoms: C_22  and  C_25
REMARK    9  A    between atoms: C_25  and  O_27
REMARK   10  A    between atoms: O_27  and  C_28
REMARK                            x       y       z     vdW  Elec       q    Type
REMARK                         _______ _______ _______ _____ _____    ______ ____
ROOT
ATOM      1  C   UNL     1       2.611  -0.634  -2.593  0.00  0.00    +0.135 A 
ATOM      2  C   UNL     1       1.968  -1.365  -3.590  0.00  0.00    +0.047 A 
ATOM      3  C   UNL     1       2.660  -1.796  -4.685  0.00  0.00    +0.019 A 
ATOM      4  C   UNL     1       4.019  -1.502  -4.805  0.00  0.00    +0.068 A 
ATOM      5  C   UNL     1       4.676  -0.765  -3.804  0.00  0.00    +0.142 A 
ATOM      6  C   UNL     1       3.957  -0.330  -2.699  0.00  0.00    +0.093 A 
ATOM      7  O   UNL     1       5.989  -0.488  -3.930  0.00  0.00    -0.459 OA
ATOM      8  C   UNL     1       6.710  -0.890  -4.985  0.00  0.00    +0.245 A 
ATOM      9  C   UNL     1       6.182  -1.601  -6.001  0.00  0.00    +0.210 A 
ATOM     10  C   UNL     1       4.801  -1.949  -5.971  0.00  0.00    +0.234 A 
ATOM     11  O   UNL     1       4.289  -2.592  -6.872  0.00  0.00    -0.283 OA
ENDROOT
BRANCH   1  12
ATOM     12  O   UNL     1       1.909  -0.212  -1.510  0.00  0.00    -0.426 OA
BRANCH  12  13
ATOM     13  C   UNL     1       1.599  -1.117  -0.567  0.00  0.00    +0.315 C 
ATOM     14  O   UNL     1       1.864  -2.284  -0.739  0.00  0.00    -0.250 OA
BRANCH  13  16
ATOM     15  C   UNL     1      -0.419  -0.022   0.368  0.00  0.00    +0.019 C 
ATOM     16  C   UNL     1       0.921  -0.679   0.705  0.00  0.00    +0.092 C 
ATOM     17  C   UNL     1       0.682  -1.895   1.601  0.00  0.00    +0.019 C 
ENDBRANCH  13  16
ENDBRANCH  12  13
ENDBRANCH   1  12
BRANCH   9  18
ATOM     18  O   UNL     1       6.962  -1.983  -7.049  0.00  0.00    -0.449 OA
BRANCH  18  19
ATOM     19  C   UNL     1       6.716  -1.427  -8.262  0.00  0.00    +0.129 A 
ATOM     20  C   UNL     1       5.643  -0.557  -8.421  0.00  0.00    +0.047 A 
ATOM     21  C   UNL     1       5.390   0.009  -9.651  0.00  0.00    +0.018 A 
ATOM     22  C   UNL     1       6.214  -0.293 -10.739  0.00  0.00    +0.059 A 
ATOM     23  C   UNL     1       7.292  -1.168 -10.575  0.00  0.00    +0.018 A 
ATOM     24  C   UNL     1       7.541  -1.725  -9.341  0.00  0.00    +0.047 A 
BRANCH  22  25
ATOM     25  C   UNL     1       5.946   0.310 -12.058  0.00  0.00    +0.339 C 
ATOM     26  O   UNL     1       5.008   1.070 -12.200  0.00  0.00    -0.245 OA
BRANCH  25  27
ATOM     27  O   UNL     1       6.741   0.018 -13.106  0.00  0.00    -0.464 OA
ATOM     28  C   UNL     1       6.423   0.638 -14.354  0.00  0.00    +0.280 C 
ENDBRANCH  25  27
ENDBRANCH  22  25
ENDBRANCH  18  19
ENDBRANCH   9  18
TORSDOF 7
