REMARK  Name = ZINC63874694
REMARK  8 active torsions:
REMARK  status: ('A' for Active; 'I' for Inactive)
REMARK    1  A    between atoms: C_1  and  O_2
REMARK    2  A    between atoms: O_2  and  C_3
REMARK    3  A    between atoms: C_8  and  N_9
REMARK    4  A    between atoms: C_15  and  C_17
REMARK    5  A    between atoms: C_17  and  C_19
REMARK    6  A    between atoms: C_17  and  N_29
REMARK    7  A    between atoms: C_19  and  C_20
REMARK    8  A    between atoms: C_30  and  C_32
REMARK                            x       y       z     vdW  Elec       q    Type
REMARK                         _______ _______ _______ _____ _____    ______ ____
ROOT
ATOM      1  C   UNL     1       3.125  -6.219  -1.374  0.00  0.00    +0.163 C 
ENDROOT
BRANCH   1   8
ATOM      2  N   UNL     1      -0.075  -2.780  -0.013  0.00  0.00    -0.324 N 
ATOM      3  C   UNL     1       0.565  -3.192   1.244  0.00  0.00    +0.124 C 
ATOM      4  C   UNL     1       0.738  -4.716   1.228  0.00  0.00    +0.126 C 
ATOM      5  N   UNL     1       1.360  -5.105  -0.045  0.00  0.00    -0.297 N 
ATOM      6  C   UNL     1       0.720  -4.693  -1.302  0.00  0.00    +0.126 C 
ATOM      7  C   UNL     1       0.543  -3.174  -1.286  0.00  0.00    +0.124 C 
ATOM      8  C   UNL     1       2.498  -5.827  -0.060  0.00  0.00    +0.236 C 
ATOM      9  O   UNL     1       3.018  -6.162   0.983  0.00  0.00    -0.274 OA
BRANCH   2  15
ATOM     10  C   UNL     1      -1.201  -0.638   0.010  0.00  0.00    +0.141 A 
ATOM     11  C   UNL     1      -2.374   0.099   0.019  0.00  0.00    +0.047 A 
ATOM     12  C   UNL     1      -3.597  -0.547   0.028  0.00  0.00    +0.004 A 
ATOM     13  C   UNL     1      -3.653  -1.928   0.027  0.00  0.00    +0.002 A 
ATOM     14  C   UNL     1      -2.487  -2.671   0.017  0.00  0.00    +0.027 A 
ATOM     15  C   UNL     1      -1.257  -2.030   0.003  0.00  0.00    +0.072 A 
BRANCH  10  17
ATOM     16  C   UNL     1      -0.017   1.425   0.010  0.00  0.00    +0.277 C 
ATOM     17  O   UNL     1       0.002  -0.004   0.002  0.00  0.00    -0.493 OA
ENDBRANCH  10  17
ENDBRANCH   2  15
ENDBRANCH   1   8
BRANCH   1  18
ATOM     18  N   UNL     1       4.535  -6.555  -1.162  0.00  0.00    -0.299 N 
ATOM     19  C   UNL     1       4.870  -7.560  -0.329  0.00  0.00    +0.251 C 
ATOM     20  O   UNL     1       4.001  -8.188   0.247  0.00  0.00    -0.270 OA
ATOM     21  H   UNL     1       5.227  -6.054  -1.621  0.00  0.00    +0.150 HD
BRANCH  19  22
ATOM     22  C   UNL     1       6.281  -7.896  -0.116  0.00  0.00    +0.074 A 
ATOM     23  C   UNL     1       6.833  -8.885   0.684  0.00  0.00    +0.021 A 
ATOM     24  C   UNL     1       8.205  -8.960   0.680  0.00  0.00    +0.008 A 
ATOM     25  C   UNL     1       8.910  -8.089  -0.084  0.00  0.00    +0.046 A 
ATOM     26  S   UNL     1       7.734  -7.146  -0.826  0.00  0.00    -0.092 S 
ENDBRANCH  19  22
ENDBRANCH   1  18
BRANCH   1  27
ATOM     27  C   UNL     1       2.392  -7.434  -1.946  0.00  0.00    +0.065 C 
BRANCH  27  28
ATOM     28  C   UNL     1       2.936  -7.750  -3.315  0.00  0.00    -0.039 C 
ATOM     29  C   UNL     1       3.901  -8.649  -3.619  0.00  0.00    -0.001 A 
ATOM     30  C   UNL     1       4.701  -9.565  -2.797  0.00  0.00    +0.010 A 
ATOM     31  C   UNL     1       5.611 -10.362  -3.401  0.00  0.00    +0.001 A 
ATOM     32  C   UNL     1       5.810 -10.335  -4.788  0.00  0.00    +0.002 A 
ATOM     33  C   UNL     1       5.113  -9.521  -5.609  0.00  0.00    +0.026 A 
ATOM     34  C   UNL     1       4.129  -8.640  -5.082  0.00  0.00    +0.043 A 
ATOM     35  N   UNL     1       3.337  -7.770  -5.660  0.00  0.00    -0.380 N 
ATOM     36  C   UNL     1       2.511  -7.132  -4.628  0.00  0.00    +0.144 C 
ATOM     37  H   UNL     1       3.300  -7.582  -6.611  0.00  0.00    +0.160 HD
ENDBRANCH  27  28
ENDBRANCH   1  27
TORSDOF 7
