REMARK  Name = ZINC06601789
REMARK  11 active torsions:
REMARK  status: ('A' for Active; 'I' for Inactive)
REMARK    1  A    between atoms: C_1  and  C_2
REMARK    2  A    between atoms: C_2  and  O_3
REMARK    3  A    between atoms: O_3  and  C_4
REMARK    4  A    between atoms: C_7  and  N_10
REMARK    5  A    between atoms: C_14  and  N_15
REMARK    6  A    between atoms: N_15  and  C_16
REMARK    7  A    between atoms: C_16  and  C_17
REMARK    8  A    between atoms: C_17  and  C_27
REMARK    9  A    between atoms: C_19  and  O_26
REMARK   10  A    between atoms: C_22  and  C_24
REMARK   11  A    between atoms: C_22  and  C_25
REMARK                            x       y       z     vdW  Elec       q    Type
REMARK                         _______ _______ _______ _____ _____    ______ ____
ROOT
ATOM      1  N   UNL     1       1.148  -5.961   1.743  0.00  0.00    -0.190 N 
ATOM      2  C   UNL     1       1.879  -6.456   2.763  0.00  0.00    +0.265 C 
ATOM      3  O   UNL     1       2.463  -5.714   3.530  0.00  0.00    -0.269 OA
ATOM      4  C   UNL     1       1.950  -7.919   2.923  0.00  0.00    +0.113 C 
ATOM      5  C   UNL     1       2.679  -8.498   3.945  0.00  0.00    +0.085 C 
ATOM      6  C   UNL     1       1.210  -8.738   1.947  0.00  0.00    +0.258 C 
ATOM      7  O   UNL     1       1.221  -9.953   2.014  0.00  0.00    -0.270 OA
ATOM      8  N   UNL     1       0.519  -8.104   0.977  0.00  0.00    -0.235 N 
ATOM      9  C   UNL     1       0.494  -6.767   0.894  0.00  0.00    +0.320 C 
ATOM     10  O   UNL     1      -0.151  -6.257  -0.001  0.00  0.00    -0.251 OA
ATOM     11  H   UNL     1       0.027  -8.629   0.326  0.00  0.00    +0.159 HD
ENDROOT
BRANCH   1  15
ATOM     12  C   UNL     1       0.901  -1.828   1.230  0.00  0.00    +0.121 A 
ATOM     13  C   UNL     1      -0.212  -2.543   1.647  0.00  0.00    +0.047 A 
ATOM     14  C   UNL     1      -0.131  -3.911   1.817  0.00  0.00    +0.027 A 
ATOM     15  C   UNL     1       1.065  -4.571   1.570  0.00  0.00    +0.046 A 
ATOM     16  C   UNL     1       2.179  -3.856   1.153  0.00  0.00    +0.027 A 
ATOM     17  C   UNL     1       2.095  -2.489   0.978  0.00  0.00    +0.047 A 
BRANCH  12  18
ATOM     18  O   UNL     1       0.821  -0.481   1.063  0.00  0.00    -0.492 OA
BRANCH  18  20
ATOM     19  C   UNL     1      -0.336   1.640   1.098  0.00  0.00    +0.048 C 
ATOM     20  C   UNL     1      -0.439   0.133   1.341  0.00  0.00    +0.225 C 
ENDBRANCH  18  20
ENDBRANCH  12  18
ENDBRANCH   1  15
BRANCH   5  21
ATOM     21  N   UNL     1       2.838  -9.836   3.986  0.00  0.00    -0.348 N 
ATOM     22  H   UNL     1       2.509 -10.386   3.257  0.00  0.00    +0.146 HD
BRANCH  21  23
ATOM     23  C   UNL     1       3.506 -10.460   5.130  0.00  0.00    +0.107 C 
BRANCH  23  24
ATOM     24  C   UNL     1       3.556 -11.993   4.926  0.00  0.00    -0.014 C 
ATOM     25  C   UNL     1       4.297 -12.253   3.622  0.00  0.00    +0.039 C 
ATOM     26  C   UNL     1       4.662 -13.720   3.443  0.00  0.00    +0.116 C 
ATOM     27  C   UNL     1       5.487 -14.215   4.622  0.00  0.00    +0.037 C 
ATOM     28  C   UNL     1       4.786 -14.004   5.956  0.00  0.00    -0.032 C 
ATOM     29  C   UNL     1       4.254 -12.594   6.131  0.00  0.00    +0.014 C 
ATOM     30  C   UNL     1       3.677 -15.041   6.150  0.00  0.00    +0.011 C 
ATOM     31  C   UNL     1       5.832 -14.249   7.070  0.00  0.00    +0.011 C 
ATOM     32  C   UNL     1       2.107 -12.477   4.827  0.00  0.00    +0.013 C 
BRANCH  26  33
ATOM     33  O   UNL     1       3.509 -14.526   3.235  0.00  0.00    -0.392 OA
ATOM     34  H   UNL     1       3.702 -15.466   3.117  0.00  0.00    +0.210 HD
ENDBRANCH  26  33
ENDBRANCH  23  24
ENDBRANCH  21  23
ENDBRANCH   5  21
TORSDOF 7
