REMARK  Name = ZINC63477329
REMARK  7 active torsions:
REMARK  status: ('A' for Active; 'I' for Inactive)
REMARK    1  A    between atoms: C_1  and  C_2
REMARK    2  A    between atoms: C_2  and  C_3
REMARK    3  A    between atoms: C_2  and  N_20
REMARK    4  A    between atoms: N_5  and  C_6
REMARK    5  A    between atoms: N_5  and  C_14
REMARK    6  A    between atoms: C_6  and  C_7
REMARK    7  A    between atoms: C_7  and  C_8
REMARK                            x       y       z     vdW  Elec       q    Type
REMARK                         _______ _______ _______ _____ _____    ______ ____
ROOT
ATOM      1  C   UNL     1       0.748  -0.339   1.465  0.00  0.00    +0.240 C 
ATOM      2  O   UNL     1       0.187   0.059   0.466  0.00  0.00    -0.273 OA
ATOM      3  N   UNL     1       2.087  -0.234   1.572  0.00  0.00    -0.270 N 
ENDROOT
BRANCH   3   4
ATOM      4  C   UNL     1       2.813   0.472   0.606  0.00  0.00    +0.036 A 
ATOM      5  C   UNL     1       4.202   0.448   0.624  0.00  0.00    +0.023 A 
ATOM      6  C   UNL     1       4.916   1.145  -0.331  0.00  0.00    +0.002 A 
ATOM      7  C   UNL     1       4.249   1.866  -1.304  0.00  0.00    +0.000 A 
ATOM      8  C   UNL     1       2.867   1.892  -1.325  0.00  0.00    +0.002 A 
ATOM      9  C   UNL     1       2.147   1.192  -0.376  0.00  0.00    +0.023 A 
ENDBRANCH   3   4
BRANCH   1  11
ATOM     10  C   UNL     1       0.218  -2.456   2.642  0.00  0.00    +0.038 C 
ATOM     11  C   UNL     1      -0.052  -0.951   2.585  0.00  0.00    +0.158 C 
BRANCH  11  12
ATOM     12  N   UNL     1      -1.479  -0.720   2.349  0.00  0.00    -0.289 N 
ATOM     13  C   UNL     1      -2.340  -0.705   3.387  0.00  0.00    +0.298 C 
ATOM     14  O   UNL     1      -1.932  -0.883   4.518  0.00  0.00    -0.253 OA
ATOM     15  N   UNL     1      -3.653  -0.492   3.170  0.00  0.00    -0.313 N 
ATOM     16  H   UNL     1      -1.805  -0.578   1.447  0.00  0.00    +0.151 HD
ATOM     17  H   UNL     1      -3.979  -0.350   2.267  0.00  0.00    +0.146 HD
ATOM     18  H   UNL     1      -4.272  -0.481   3.916  0.00  0.00    +0.146 HD
ENDBRANCH  11  12
ENDBRANCH   1  11
BRANCH   3  19
ATOM     19  C   UNL     1       2.783  -0.857   2.701  0.00  0.00    +0.118 C 
BRANCH  19  20
ATOM     20  C   UNL     1       3.323  -2.224   2.275  0.00  0.00    +0.054 C 
BRANCH  20  21
ATOM     21  C   UNL     1       3.912  -2.926   3.471  0.00  0.00    -0.046 A 
ATOM     22  C   UNL     1       5.246  -2.750   3.788  0.00  0.00    +0.004 A 
ATOM     23  C   UNL     1       5.787  -3.394   4.885  0.00  0.00    +0.000 A 
ATOM     24  C   UNL     1       4.993  -4.214   5.665  0.00  0.00    +0.000 A 
ATOM     25  C   UNL     1       3.659  -4.390   5.348  0.00  0.00    +0.000 A 
ATOM     26  C   UNL     1       3.118  -3.743   4.253  0.00  0.00    +0.004 A 
ENDBRANCH  20  21
ENDBRANCH  19  20
ENDBRANCH   3  19
TORSDOF 6
