REMARK  Name = ZINC35498329
REMARK  4 active torsions:
REMARK  status: ('A' for Active; 'I' for Inactive)
REMARK    1  A    between atoms: C_2  and  C_3
REMARK    2  A    between atoms: C_3  and  N_4
REMARK    3  A    between atoms: N_20  and  C_21
REMARK    4  A    between atoms: C_26  and  C_27
REMARK                            x       y       z     vdW  Elec       q    Type
REMARK                         _______ _______ _______ _____ _____    ______ ____
ROOT
ATOM      1  N   UNL     1      -1.246  -1.666  -1.124  0.00  0.00    -0.295 N 
ATOM      2  C   UNL     1      -1.750  -1.241  -2.311  0.00  0.00    +0.203 A 
ATOM      3  N   UNL     1      -1.797  -2.034  -3.348  0.00  0.00    -0.230 NA
ATOM      4  C   UNL     1      -1.351  -3.285  -3.273  0.00  0.00    +0.116 A 
ATOM      5  C   UNL     1      -0.814  -3.814  -2.089  0.00  0.00    +0.076 A 
ATOM      6  C   UNL     1      -0.772  -2.917  -0.972  0.00  0.00    +0.263 A 
ATOM      7  O   UNL     1      -0.319  -3.282   0.099  0.00  0.00    -0.267 OA
ATOM      8  C   UNL     1      -0.365  -5.205  -2.153  0.00  0.00    -0.020 A 
ATOM      9  C   UNL     1      -0.512  -5.838  -3.336  0.00  0.00    +0.013 A 
ATOM     10  S   UNL     1      -1.241  -4.638  -4.416  0.00  0.00    -0.072 S 
ATOM     11  C   UNL     1      -0.139  -7.256  -3.654  0.00  0.00    +0.152 C 
ATOM     12  N   UNL     1       0.633  -7.771  -2.506  0.00  0.00    -0.280 N 
ATOM     13  C   UNL     1       0.154  -7.429  -1.159  0.00  0.00    +0.114 C 
ATOM     14  C   UNL     1       0.248  -5.917  -0.951  0.00  0.00    +0.056 C 
ATOM     15  C   UNL     1       1.736  -8.526  -2.687  0.00  0.00    +0.307 C 
ATOM     16  O   UNL     1       2.354  -8.938  -1.725  0.00  0.00    -0.252 OA
ATOM     17  N   UNL     1       2.151  -8.823  -3.934  0.00  0.00    -0.269 N 
ATOM     18  H   UNL     1       1.614  -8.565  -4.699  0.00  0.00    +0.156 HD
ENDROOT
BRANCH  17  19
ATOM     19  C   UNL     1       3.359  -9.505  -4.125  0.00  0.00    +0.046 A 
ATOM     20  C   UNL     1       4.359  -9.432  -3.164  0.00  0.00    +0.024 A 
ATOM     21  C   UNL     1       5.549 -10.106  -3.355  0.00  0.00    +0.002 A 
ATOM     22  C   UNL     1       5.746 -10.852  -4.502  0.00  0.00    +0.001 A 
ATOM     23  C   UNL     1       4.753 -10.927  -5.461  0.00  0.00    +0.014 A 
ATOM     24  C   UNL     1       3.558 -10.260  -5.273  0.00  0.00    +0.076 A 
BRANCH  24  25
ATOM     25  C   UNL     1       2.473 -10.346  -6.316  0.00  0.00    +0.419 C 
ATOM     26  F   UNL     1       2.904 -11.158  -7.371  0.00  0.00    -0.166 F 
ATOM     27  F   UNL     1       1.320 -10.896  -5.746  0.00  0.00    -0.166 F 
ATOM     28  F   UNL     1       2.188  -9.065  -6.800  0.00  0.00    -0.166 F 
ENDBRANCH  24  25
ENDBRANCH  17  19
BRANCH   1  29
ATOM     29  C   UNL     1      -1.213  -0.743   0.013  0.00  0.00    +0.153 C 
BRANCH  29  31
ATOM     30  C   UNL     1       0.085   1.325   0.015  0.00  0.00    +0.005 C 
ATOM     31  C   UNL     1       0.090   0.015   0.007  0.00  0.00    -0.013 C 
ENDBRANCH  29  31
ENDBRANCH   1  29
TORSDOF 4
