REMARK  Name = ZINC04916022
REMARK  3 active torsions:
REMARK  status: ('A' for Active; 'I' for Inactive)
REMARK    1  A    between atoms: C_5  and  C_7
REMARK    2  A    between atoms: C_13  and  C_22
REMARK    3  A    between atoms: C_13  and  O_26
REMARK                            x       y       z     vdW  Elec       q    Type
REMARK                         _______ _______ _______ _____ _____    ______ ____
ROOT
ATOM      1  C   UNL     1       3.710  -0.189  -3.112  0.00  0.00    +0.098 A 
ATOM      2  C   UNL     1       4.351   0.673  -2.265  0.00  0.00    +0.078 A 
ATOM      3  S   UNL     1       3.105   0.886  -1.000  0.00  0.00    -0.058 S 
ATOM      4  C   UNL     1       1.871  -0.192  -1.714  0.00  0.00    +0.184 A 
ATOM      5  N   UNL     1       2.480  -0.601  -2.812  0.00  0.00    -0.222 NA
ATOM      6  N   UNL     1       0.608  -0.510  -1.244  0.00  0.00    -0.160 N 
ATOM      7  C   UNL     1       0.002  -0.004   0.002  0.00  0.00    +0.258 C 
ATOM      8  C   UNL     1      -1.426  -0.565  -0.046  0.00  0.00    +0.096 C 
ATOM      9  C   UNL     1      -1.722  -1.451   1.167  0.00  0.00    +0.014 C 
ATOM     10  C   UNL     1      -3.017  -2.224   0.898  0.00  0.00    +0.001 C 
ATOM     11  C   UNL     1      -2.847  -3.192  -0.271  0.00  0.00    +0.006 C 
ATOM     12  C   UNL     1      -2.563  -2.413  -1.565  0.00  0.00    +0.053 C 
ATOM     13  C   UNL     1      -1.411  -1.476  -1.264  0.00  0.00    +0.045 C 
ATOM     14  N   UNL     1      -0.309  -1.362  -1.869  0.00  0.00    -0.184 NA
ENDROOT
BRANCH   1  19
ATOM     15  C   UNL     1       4.347  -1.965  -6.354  0.00  0.00    +0.004 A 
ATOM     16  C   UNL     1       5.629  -1.502  -6.615  0.00  0.00    +0.020 A 
ATOM     17  C   UNL     1       6.231  -0.632  -5.725  0.00  0.00    +0.111 A 
ATOM     18  N   UNL     1       5.601  -0.235  -4.638  0.00  0.00    -0.253 NA
ATOM     19  C   UNL     1       4.377  -0.658  -4.348  0.00  0.00    +0.090 A 
ATOM     20  C   UNL     1       3.711  -1.536  -5.203  0.00  0.00    +0.030 A 
ENDBRANCH   1  19
BRANCH   7  21
ATOM     21  C   UNL     1      -0.019   1.526   0.010  0.00  0.00    +0.438 C 
ATOM     22  F   UNL     1       1.294   2.010   0.001  0.00  0.00    -0.166 F 
ATOM     23  F   UNL     1      -0.695   1.989  -1.123  0.00  0.00    -0.166 F 
ATOM     24  F   UNL     1      -0.673   1.977   1.161  0.00  0.00    -0.166 F 
ENDBRANCH   7  21
BRANCH   7  25
ATOM     25  O   UNL     1       0.703  -0.504   1.143  0.00  0.00    -0.363 OA
ATOM     26  H   UNL     1       1.621  -0.208   1.201  0.00  0.00    +0.212 HD
ENDBRANCH   7  25
TORSDOF 3
