REMARK  Name = ZINC59016259
REMARK  8 active torsions:
REMARK  status: ('A' for Active; 'I' for Inactive)
REMARK    1  A    between atoms: C_1  and  C_2
REMARK    2  A    between atoms: C_5  and  N_9
REMARK    3  A    between atoms: C_10  and  C_12
REMARK    4  A    between atoms: C_12  and  S_13
REMARK    5  A    between atoms: S_13  and  C_14
REMARK    6  A    between atoms: N_19  and  N_20
REMARK    7  A    between atoms: C_21  and  C_22
REMARK    8  A    between atoms: C_23  and  C_24
REMARK                            x       y       z     vdW  Elec       q    Type
REMARK                         _______ _______ _______ _____ _____    ______ ____
ROOT
ATOM      1  C   UNL     1      -0.356  -8.691  -2.737  0.00  0.00    +0.211 A 
ATOM      2  N   UNL     1      -0.455  -9.562  -3.747  0.00  0.00    -0.186 NA
ATOM      3  C   UNL     1      -0.509 -10.789  -3.270  0.00  0.00    +0.232 A 
ATOM      4  N   UNL     1      -0.444 -10.715  -1.923  0.00  0.00    -0.245 N 
ATOM      5  N   UNL     1      -0.341  -9.352  -1.604  0.00  0.00    -0.144 NA
ATOM      6  N   UNL     1      -0.614 -11.947  -4.017  0.00  0.00    -0.205 N 
ATOM      7  H   UNL     1      -0.647 -12.809  -3.573  0.00  0.00    +0.177 HD
ATOM      8  H   UNL     1      -0.462 -11.458  -1.300  0.00  0.00    +0.192 HD
ENDROOT
BRANCH   6   9
ATOM      9  N   UNL     1      -0.671 -11.877  -5.415  0.00  0.00    -0.188 NA
ATOM     10  C   UNL     1      -0.770 -12.969  -6.119  0.00  0.00    +0.130 C 
BRANCH  10  11
ATOM     11  C   UNL     1      -0.829 -12.897  -7.533  0.00  0.00    +0.022 C 
ATOM     12  C   UNL     1      -0.931 -14.028  -8.262  0.00  0.00    +0.009 C 
BRANCH  12  13
ATOM     13  C   UNL     1      -0.992 -13.954  -9.731  0.00  0.00    -0.025 A 
ATOM     14  C   UNL     1      -0.938 -12.714 -10.375  0.00  0.00    +0.008 A 
ATOM     15  C   UNL     1      -0.996 -12.652 -11.751  0.00  0.00    +0.001 A 
ATOM     16  C   UNL     1      -1.106 -13.814 -12.495  0.00  0.00    +0.000 A 
ATOM     17  C   UNL     1      -1.160 -15.046 -11.865  0.00  0.00    +0.001 A 
ATOM     18  C   UNL     1      -1.098 -15.124 -10.490  0.00  0.00    +0.008 A 
ENDBRANCH  12  13
ENDBRANCH  10  11
ENDBRANCH   6   9
BRANCH   1  19
ATOM     19  S   UNL     1      -0.255  -6.940  -2.903  0.00  0.00    -0.075 S 
BRANCH  19  20
ATOM     20  C   UNL     1      -0.134  -6.344  -1.194  0.00  0.00    +0.173 C 
BRANCH  20  22
ATOM     21  N   UNL     1       0.059  -4.172  -0.025  0.00  0.00    -0.283 N 
ATOM     22  C   UNL     1      -0.040  -4.840  -1.192  0.00  0.00    +0.228 C 
ATOM     23  O   UNL     1      -0.054  -4.230  -2.240  0.00  0.00    -0.275 OA
ATOM     24  H   UNL     1       0.150  -4.662   0.807  0.00  0.00    +0.155 HD
BRANCH  21  29
ATOM     25  C   UNL     1      -0.065   1.502   0.016  0.00  0.00    +0.044 C 
ATOM     26  C   UNL     1      -0.031  -0.005   0.006  0.00  0.00    -0.048 A 
ATOM     27  C   UNL     1      -0.622  -0.701  -1.033  0.00  0.00    +0.005 A 
ATOM     28  C   UNL     1      -0.593  -2.082  -1.046  0.00  0.00    +0.026 A 
ATOM     29  C   UNL     1       0.029  -2.772  -0.015  0.00  0.00    +0.069 A 
ATOM     30  C   UNL     1       0.622  -2.070   1.029  0.00  0.00    +0.145 A 
ATOM     31  C   UNL     1       0.594  -0.688   1.033  0.00  0.00    +0.043 A 
ATOM     32  F   UNL     1       1.228  -2.738   2.035  0.00  0.00    -0.204 F 
ENDBRANCH  21  29
ENDBRANCH  20  22
ENDBRANCH  19  20
ENDBRANCH   1  19
TORSDOF 7
