REMARK  Name = ZINC15322802
REMARK  11 active torsions:
REMARK  status: ('A' for Active; 'I' for Inactive)
REMARK    1  A    between atoms: C_1  and  C_2
REMARK    2  A    between atoms: C_2  and  C_3
REMARK    3  A    between atoms: C_2  and  C_4
REMARK    4  A    between atoms: C_2  and  N_5
REMARK    5  A    between atoms: C_9  and  C_11
REMARK    6  A    between atoms: C_11  and  N_12
REMARK    7  A    between atoms: N_12  and  C_13
REMARK    8  A    between atoms: C_18  and  C_19
REMARK    9  A    between atoms: C_19  and  N_61
REMARK   10  A    between atoms: C_20  and  N_61
REMARK   11  A    between atoms: C_21  and  N_61
REMARK                            x       y       z     vdW  Elec       q    Type
REMARK                         _______ _______ _______ _____ _____    ______ ____
ROOT
ATOM      1  C   UNL     1      -0.205   1.221   2.475  0.00  0.00    +0.029 A 
ATOM      2  C   UNL     1       0.933   0.432   2.590  0.00  0.00    +0.023 A 
ATOM      3  C   UNL     1       1.422   0.104   3.839  0.00  0.00    +0.002 A 
ATOM      4  C   UNL     1       0.773   0.551   4.976  0.00  0.00    +0.000 A 
ATOM      5  C   UNL     1      -0.363   1.331   4.866  0.00  0.00    +0.003 A 
ATOM      6  C   UNL     1      -0.854   1.668   3.619  0.00  0.00    -0.043 A 
ENDROOT
BRANCH   1   7
ATOM      7  N   UNL     1      -0.698   1.558   1.213  0.00  0.00    -0.335 N 
ATOM      8  H   UNL     1      -1.495   2.106   1.135  0.00  0.00    +0.147 HD
BRANCH   7   9
ATOM      9  C   UNL     1      -0.013   1.086   0.008  0.00  0.00    +0.198 C 
BRANCH   9  14
ATOM     10  N   UNL     1      -0.487   1.406  -4.765  0.00  0.00    -0.294 N 
ATOM     11  C   UNL     1      -0.940   1.719  -3.535  0.00  0.00    +0.306 C 
ATOM     12  O   UNL     1      -1.937   2.403  -3.410  0.00  0.00    -0.252 OA
ATOM     13  N   UNL     1      -0.288   1.272  -2.443  0.00  0.00    -0.239 N 
ATOM     14  C   UNL     1      -0.742   1.585  -1.213  0.00  0.00    +0.237 C 
ATOM     15  O   UNL     1      -1.736   2.268  -1.089  0.00  0.00    -0.274 OA
ATOM     16  H   UNL     1       0.308   0.860  -4.865  0.00  0.00    +0.151 HD
ATOM     17  H   UNL     1       0.507   0.726  -2.543  0.00  0.00    +0.159 HD
BRANCH  10  19
ATOM     18  C   UNL     1      -1.216   3.421  -5.944  0.00  0.00    +0.031 C 
ATOM     19  C   UNL     1      -1.196   1.891  -5.952  0.00  0.00    +0.028 C 
ATOM     20  C   UNL     1      -0.480   1.398  -7.211  0.00  0.00    +0.031 C 
ATOM     21  C   UNL     1      -2.631   1.362  -5.941  0.00  0.00    +0.031 C 
ENDBRANCH  10  19
ENDBRANCH   9  14
ENDBRANCH   7   9
ENDBRANCH   1   7
BRANCH   6  22
ATOM     22  C   UNL     1      -2.091   2.519   3.500  0.00  0.00    -0.041 C 
BRANCH  22  24
ATOM     23  C   UNL     1      -3.540   0.781   4.363  0.00  0.00    -0.095 C 
ATOM     24  N   UNL     1      -3.244   1.644   3.200  0.00  0.00    +0.382 N 
ATOM     25  H   UNL     1      -3.012   1.051   2.395  0.00  0.00    -0.081 HD
BRANCH  24  26
ATOM     26  C   UNL     1      -4.428   2.465   2.866  0.00  0.00    -0.069 C 
ATOM     27  C   UNL     1      -4.851   3.310   4.070  0.00  0.00    -0.015 C 
ATOM     28  C   UNL     1      -6.077   4.147   3.699  0.00  0.00    -0.002 C 
ATOM     29  C   UNL     1      -7.225   3.220   3.297  0.00  0.00    -0.000 C 
ATOM     30  C   UNL     1      -6.802   2.376   2.094  0.00  0.00    -0.002 C 
ATOM     31  C   UNL     1      -5.576   1.538   2.464  0.00  0.00    -0.015 C 
ENDBRANCH  24  26
ENDBRANCH  22  24
ENDBRANCH   6  22
TORSDOF 7
