REMARK  Name = ZINC33651452
REMARK  10 active torsions:
REMARK  status: ('A' for Active; 'I' for Inactive)
REMARK    1  A    between atoms: C_1  and  C_2
REMARK    2  A    between atoms: C_2  and  C_3
REMARK    3  A    between atoms: C_3  and  C_4
REMARK    4  A    between atoms: C_4  and  C_5
REMARK    5  A    between atoms: C_5  and  N_6
REMARK    6  A    between atoms: C_7  and  C_9
REMARK    7  A    between atoms: C_9  and  S_10
REMARK    8  A    between atoms: S_10  and  C_11
REMARK    9  A    between atoms: C_22  and  C_25
REMARK   10  A    between atoms: C_26  and  C_28
REMARK                            x       y       z     vdW  Elec       q    Type
REMARK                         _______ _______ _______ _____ _____    ______ ____
ROOT
ATOM      1  C   UNL     1       9.876   1.564   2.967  0.00  0.00    +0.192 A 
ATOM      2  N   UNL     1       8.923   1.062   2.195  0.00  0.00    -0.207 NA
ATOM      3  C   UNL     1       8.182   1.857   1.429  0.00  0.00    +0.127 A 
ATOM      4  C   UNL     1       8.425   3.232   1.446  0.00  0.00    +0.083 A 
ATOM      5  C   UNL     1       9.425   3.716   2.270  0.00  0.00    +0.135 A 
ATOM      6  N   UNL     1      10.125   2.865   3.007  0.00  0.00    -0.210 NA
ATOM      7 CL   UNL     1       9.763   5.418   2.333  0.00  0.00    -0.062 Cl
ATOM      8  N   UNL     1       7.187   1.329   0.623  0.00  0.00    -0.312 N 
ATOM      9  C   UNL     1       5.890   1.955   0.909  0.00  0.00    +0.125 C 
ATOM     10  C   UNL     1       4.858   1.478  -0.125  0.00  0.00    +0.127 C 
ATOM     11  N   UNL     1       4.851   0.007  -0.126  0.00  0.00    -0.292 N 
ATOM     12  C   UNL     1       6.136  -0.694  -0.271  0.00  0.00    +0.091 C 
ATOM     13  C   UNL     1       7.117  -0.132   0.763  0.00  0.00    +0.128 C 
ATOM     14  C   UNL     1       5.933  -2.192  -0.033  0.00  0.00    +0.029 C 
ATOM     15  C   UNL     1       3.698  -0.679  -0.003  0.00  0.00    +0.247 C 
ATOM     16  O   UNL     1       3.720  -1.891   0.094  0.00  0.00    -0.270 OA
ENDROOT
BRANCH  15  17
ATOM     17  C   UNL     1       2.408   0.041   0.013  0.00  0.00    +0.037 A 
ATOM     18  C   UNL     1       1.350  -0.435   0.791  0.00  0.00    +0.014 A 
ATOM     19  C   UNL     1       0.148   0.241   0.802  0.00  0.00    +0.021 A 
ATOM     20  C   UNL     1      -0.011   1.390   0.045  0.00  0.00    +0.041 A 
ATOM     21  C   UNL     1       1.035   1.867  -0.728  0.00  0.00    +0.021 A 
ATOM     22  C   UNL     1       2.241   1.199  -0.748  0.00  0.00    +0.014 A 
ATOM     23 CL   UNL     1      -1.529   2.232   0.060  0.00  0.00    -0.084 Cl
ENDBRANCH  15  17
BRANCH   1  24
ATOM     24  S   UNL     1      10.835   0.475   3.966  0.00  0.00    -0.077 S 
BRANCH  24  25
ATOM     25  C   UNL     1      11.932   1.669   4.770  0.00  0.00    +0.173 C 
BRANCH  25  27
ATOM     26  N   UNL     1      13.782   1.635   6.411  0.00  0.00    -0.315 N 
ATOM     27  C   UNL     1      12.870   0.944   5.700  0.00  0.00    +0.223 C 
ATOM     28  O   UNL     1      12.803  -0.263   5.808  0.00  0.00    -0.275 OA
ATOM     29  H   UNL     1      13.843   2.729   6.313  0.00  0.00    +0.149 HD
BRANCH  26  30
ATOM     30  C   UNL     1      14.694   0.929   7.315  0.00  0.00    +0.104 C 
BRANCH  30  31
ATOM     31  C   UNL     1      15.621   1.939   7.995  0.00  0.00    +0.019 C 
BRANCH  31  32
ATOM     32  C   UNL     1      16.573   1.202   8.939  0.00  0.00    +0.001 C 
BRANCH  32  34
ATOM     33  C   UNL     1      18.453   1.475  10.562  0.00  0.00    +0.004 C 
ATOM     34  C   UNL     1      17.500   2.212   9.618  0.00  0.00    -0.003 C 
ENDBRANCH  32  34
ENDBRANCH  31  32
ENDBRANCH  30  31
ENDBRANCH  26  30
ENDBRANCH  25  27
ENDBRANCH  24  25
ENDBRANCH   1  24
TORSDOF 8
