REMARK  Name = ZINC37381146
REMARK  6 active torsions:
REMARK  status: ('A' for Active; 'I' for Inactive)
REMARK    1  A    between atoms: C_1  and  C_2
REMARK    2  A    between atoms: C_2  and  C_4
REMARK    3  A    between atoms: C_2  and  S_15
REMARK    4  A    between atoms: N_6  and  C_7
REMARK    5  A    between atoms: C_12  and  N_13
REMARK    6  A    between atoms: S_15  and  C_16
REMARK                            x       y       z     vdW  Elec       q    Type
REMARK                         _______ _______ _______ _____ _____    ______ ____
ROOT
ATOM      1  C   UNL     1       0.761  -0.429   1.090  0.00  0.00    +0.230 C 
ATOM      2  O   UNL     1       1.903  -0.775   0.874  0.00  0.00    -0.274 OA
ATOM      3  N   UNL     1       0.262  -0.495   2.340  0.00  0.00    -0.283 N 
ATOM      4  H   UNL     1      -0.670  -0.280   2.502  0.00  0.00    +0.155 HD
ENDROOT
BRANCH   3   5
ATOM      5  C   UNL     1       1.089  -0.876   3.406  0.00  0.00    +0.054 A 
ATOM      6  C   UNL     1       2.089  -1.815   3.209  0.00  0.00    +0.028 A 
ATOM      7  C   UNL     1       2.904  -2.190   4.261  0.00  0.00    +0.040 A 
ATOM      8  C   UNL     1       2.725  -1.628   5.514  0.00  0.00    +0.125 A 
ATOM      9  C   UNL     1       1.729  -0.689   5.719  0.00  0.00    +0.063 A 
ATOM     10  C   UNL     1       0.912  -0.305   4.666  0.00  0.00    +0.049 A 
ATOM     11  F   UNL     1       3.525  -1.998   6.538  0.00  0.00    -0.205 F 
BRANCH  10  12
ATOM     12  N   UNL     1      -0.092   0.648   4.870  0.00  0.00    -0.356 N 
ATOM     13  H   UNL     1      -0.665   0.913   4.133  0.00  0.00    +0.142 HD
ATOM     14  H   UNL     1      -0.214   1.044   5.746  0.00  0.00    +0.142 HD
ENDBRANCH  10  12
ENDBRANCH   3   5
BRANCH   1  16
ATOM     15  C   UNL     1      -0.034   1.602  -0.090  0.00  0.00    +0.029 C 
ATOM     16  C   UNL     1      -0.100   0.074  -0.040  0.00  0.00    +0.134 C 
BRANCH  16  17
ATOM     17  S   UNL     1       0.501  -0.609  -1.609  0.00  0.00    -0.112 S 
BRANCH  17  18
ATOM     18  C   UNL     1       0.099  -2.322  -1.510  0.00  0.00    +0.023 A 
ATOM     19  C   UNL     1      -0.639  -2.803  -0.435  0.00  0.00    +0.016 A 
ATOM     20  C   UNL     1      -0.952  -4.146  -0.361  0.00  0.00    +0.001 A 
ATOM     21  C   UNL     1      -0.534  -5.012  -1.355  0.00  0.00    +0.001 A 
ATOM     22  C   UNL     1       0.200  -4.537  -2.427  0.00  0.00    +0.016 A 
ATOM     23  C   UNL     1       0.514  -3.194  -2.510  0.00  0.00    +0.031 A 
ATOM     24 BR   UNL     1       1.511  -2.544  -3.980  0.00  0.00    -0.049 Br
ENDBRANCH  17  18
ENDBRANCH  16  17
ENDBRANCH   1  16
TORSDOF 5
