REMARK  Name = ZINC59040220
REMARK  5 active torsions:
REMARK  status: ('A' for Active; 'I' for Inactive)
REMARK    1  A    between atoms: C_3  and  N_9
REMARK    2  A    between atoms: C_10  and  C_12
REMARK    3  A    between atoms: C_12  and  S_13
REMARK    4  A    between atoms: S_13  and  C_14
REMARK    5  A    between atoms: N_19  and  N_20
REMARK                            x       y       z     vdW  Elec       q    Type
REMARK                         _______ _______ _______ _____ _____    ______ ____
ROOT
ATOM      1  C   UNL     1       6.098   6.755  -0.486  0.00  0.00    +0.211 A 
ATOM      2  N   UNL     1       6.337   8.067  -0.585  0.00  0.00    -0.186 NA
ATOM      3  C   UNL     1       7.634   8.276  -0.668  0.00  0.00    +0.232 A 
ATOM      4  N   UNL     1       8.253   7.078  -0.621  0.00  0.00    -0.245 N 
ATOM      5  N   UNL     1       7.242   6.112  -0.498  0.00  0.00    -0.144 NA
ATOM      6  N   UNL     1       8.253   9.508  -0.783  0.00  0.00    -0.205 N 
ATOM      7  H   UNL     1       9.220   9.562  -0.838  0.00  0.00    +0.177 HD
ATOM      8  H   UNL     1       9.209   6.916  -0.661  0.00  0.00    +0.192 HD
ENDROOT
BRANCH   6   9
ATOM      9  N   UNL     1       7.483  10.678  -0.821  0.00  0.00    -0.189 NA
ATOM     10  C   UNL     1       8.048  11.809  -1.024  0.00  0.00    +0.037 C 
ATOM     11  C   UNL     1       9.553  11.918  -1.122  0.00  0.00    +0.052 C 
ATOM     12  C   UNL     1       9.904  12.676  -2.406  0.00  0.00    +0.006 C 
ATOM     13  C   UNL     1       9.173  14.019  -2.421  0.00  0.00    +0.001 C 
ATOM     14  C   UNL     1       7.662  13.786  -2.457  0.00  0.00    +0.006 C 
ATOM     15  C   UNL     1       7.226  13.069  -1.179  0.00  0.00    +0.052 C 
ENDBRANCH   6   9
BRANCH   1  16
ATOM     16  S   UNL     1       4.507   6.011  -0.351  0.00  0.00    -0.075 S 
BRANCH  16  17
ATOM     17  C   UNL     1       4.861   4.235  -0.243  0.00  0.00    +0.173 C 
BRANCH  17  19
ATOM     18  N   UNL     1       3.584   2.127  -0.029  0.00  0.00    -0.284 N 
ATOM     19  C   UNL     1       3.567   3.471  -0.123  0.00  0.00    +0.228 C 
ATOM     20  O   UNL     1       2.510   4.067  -0.111  0.00  0.00    -0.275 OA
ATOM     21  H   UNL     1       4.429   1.656   0.043  0.00  0.00    +0.155 HD
BRANCH  18  24
ATOM     22  C   UNL     1       0.066   1.242  -0.633  0.00  0.00    +0.003 A 
ATOM     23  C   UNL     1       1.251   1.951  -0.629  0.00  0.00    +0.025 A 
ATOM     24  C   UNL     1       2.382   1.410  -0.033  0.00  0.00    +0.053 A 
ATOM     25  C   UNL     1       2.318   0.153   0.557  0.00  0.00    +0.080 A 
ATOM     26  C   UNL     1       1.129  -0.552   0.550  0.00  0.00    +0.061 A 
ATOM     27  C   UNL     1       0.004  -0.008  -0.045  0.00  0.00    +0.021 A 
ATOM     28 CL   UNL     1       1.047  -2.122   1.288  0.00  0.00    -0.082 Cl
ATOM     29 CL   UNL     1       3.730  -0.529   1.303  0.00  0.00    -0.080 Cl
ENDBRANCH  18  24
ENDBRANCH  17  19
ENDBRANCH  16  17
ENDBRANCH   1  16
TORSDOF 5
