REMARK  Name = ZINC45626346
REMARK  4 active torsions:
REMARK  status: ('A' for Active; 'I' for Inactive)
REMARK    1  A    between atoms: C_1  and  C_2
REMARK    2  A    between atoms: C_8  and  N_10
REMARK    3  A    between atoms: C_11  and  C_15
REMARK    4  A    between atoms: C_17  and  N_22
REMARK                            x       y       z     vdW  Elec       q    Type
REMARK                         _______ _______ _______ _____ _____    ______ ____
ROOT
ATOM      1  N   UNL     1       2.127  -0.031   1.251  0.00  0.00    -0.222 N 
ATOM      2  C   UNL     1       2.685   0.852   2.116  0.00  0.00    +0.183 A 
ATOM      3  N   UNL     1       3.920   1.062   1.710  0.00  0.00    -0.108 NA
ATOM      4  N   UNL     1       4.169   0.374   0.655  0.00  0.00    -0.023 NA
ATOM      5  N   UNL     1       3.136  -0.319   0.316  0.00  0.00    -0.043 NA
ENDROOT
BRANCH   1  12
ATOM      6  C   UNL     1       0.027   1.175  -0.337  0.00  0.00    +0.009 C 
ATOM      7  C   UNL     1       0.084  -0.329  -0.060  0.00  0.00    +0.011 C 
ATOM      8  C   UNL     1      -1.337  -0.895  -0.022  0.00  0.00    +0.005 C 
ATOM      9  C   UNL     1      -1.279  -2.398   0.255  0.00  0.00    +0.000 C 
ATOM     10  C   UNL     1      -0.597  -2.643   1.603  0.00  0.00    +0.002 C 
ATOM     11  C   UNL     1       0.824  -2.077   1.565  0.00  0.00    +0.027 C 
ATOM     12  C   UNL     1       0.767  -0.573   1.288  0.00  0.00    +0.114 C 
ENDBRANCH   1  12
BRANCH   2  13
ATOM     13  C   UNL     1       2.030   1.464   3.294  0.00  0.00    +0.036 A 
ATOM     14  C   UNL     1       1.335   0.666   4.200  0.00  0.00    +0.035 A 
ATOM     15  C   UNL     1       0.724   1.246   5.301  0.00  0.00    +0.025 A 
ATOM     16  C   UNL     1       0.806   2.620   5.499  0.00  0.00    +0.024 A 
ATOM     17  C   UNL     1       1.495   3.411   4.600  0.00  0.00    +0.018 A 
ATOM     18  C   UNL     1       2.112   2.841   3.503  0.00  0.00    +0.029 A 
ATOM     19 BR   UNL     1       3.061   3.929   2.281  0.00  0.00    -0.050 Br
BRANCH  15  20
ATOM     20  N   UNL     1       0.025   0.450   6.213  0.00  0.00    -0.358 N 
ATOM     21  H   UNL     1      -0.033  -0.509   6.075  0.00  0.00    +0.142 HD
ATOM     22  H   UNL     1      -0.402   0.856   6.983  0.00  0.00    +0.142 HD
ENDBRANCH  15  20
ENDBRANCH   2  13
TORSDOF 3
