REMARK  Name = ZINC02336287
REMARK  9 active torsions:
REMARK  status: ('A' for Active; 'I' for Inactive)
REMARK    1  A    between atoms: C_1  and  C_2
REMARK    2  A    between atoms: C_2  and  O_3
REMARK    3  A    between atoms: O_3  and  C_4
REMARK    4  A    between atoms: C_7  and  C_10
REMARK    5  A    between atoms: C_13  and  S_16
REMARK    6  A    between atoms: N_14  and  N_15
REMARK    7  A    between atoms: S_16  and  C_17
REMARK    8  A    between atoms: C_17  and  C_18
REMARK    9  A    between atoms: N_20  and  C_21
REMARK                            x       y       z     vdW  Elec       q    Type
REMARK                         _______ _______ _______ _____ _____    ______ ____
ROOT
ATOM      1  C   UNL     1       3.660   3.145  -0.082  0.00  0.00    +0.182 A 
ATOM      2  N   UNL     1       3.763   1.845   0.070  0.00  0.00    -0.127 NA
ATOM      3  N   UNL     1       2.598   1.304   0.025  0.00  0.00    -0.121 NA
ATOM      4  C   UNL     1       1.680   2.224  -0.167  0.00  0.00    +0.209 A 
ATOM      5  N   UNL     1       2.323   3.428  -0.238  0.00  0.00    -0.224 N 
ENDROOT
BRANCH   1   9
ATOM      6  C   UNL     1       6.853   5.947  -0.087  0.00  0.00    +0.121 A 
ATOM      7  C   UNL     1       5.549   6.384   0.102  0.00  0.00    +0.046 A 
ATOM      8  C   UNL     1       4.510   5.478   0.104  0.00  0.00    +0.015 A 
ATOM      9  C   UNL     1       4.771   4.120  -0.084  0.00  0.00    +0.021 A 
ATOM     10  C   UNL     1       6.084   3.684  -0.267  0.00  0.00    +0.015 A 
ATOM     11  C   UNL     1       7.117   4.597  -0.273  0.00  0.00    +0.046 A 
BRANCH   6  12
ATOM     12  O   UNL     1       7.875   6.843  -0.088  0.00  0.00    -0.492 OA
BRANCH  12  14
ATOM     13  C   UNL     1      10.201   7.475  -0.257  0.00  0.00    +0.048 C 
ATOM     14  C   UNL     1       9.192   6.326  -0.287  0.00  0.00    +0.225 C 
ENDBRANCH  12  14
ENDBRANCH   6  12
ENDBRANCH   1   9
BRANCH   5  15
ATOM     15  N   UNL     1       1.756   4.657  -0.426  0.00  0.00    -0.295 N 
ATOM     16  H   UNL     1       1.601   5.122   0.456  0.00  0.00    +0.163 HD
ATOM     17  H   UNL     1       2.319   5.225  -1.041  0.00  0.00    +0.163 HD
ENDBRANCH   5  15
BRANCH   4  18
ATOM     18  S   UNL     1      -0.057   1.957  -0.300  0.00  0.00    -0.075 S 
BRANCH  18  19
ATOM     19  C   UNL     1      -0.113   0.158  -0.109  0.00  0.00    +0.173 C 
BRANCH  19  20
ATOM     20  C   UNL     1      -1.543  -0.311  -0.192  0.00  0.00    +0.228 C 
ATOM     21  O   UNL     1      -2.436   0.492  -0.362  0.00  0.00    -0.275 OA
ATOM     22  N   UNL     1      -1.829  -1.623  -0.076  0.00  0.00    -0.283 N 
ATOM     23  H   UNL     1      -1.112  -2.272  -0.013  0.00  0.00    +0.155 HD
BRANCH  22  24
ATOM     24  C   UNL     1      -3.164  -2.049  -0.046  0.00  0.00    +0.069 A 
ATOM     25  C   UNL     1      -4.127  -1.369  -0.779  0.00  0.00    +0.029 A 
ATOM     26  C   UNL     1      -5.442  -1.790  -0.749  0.00  0.00    +0.040 A 
ATOM     27  C   UNL     1      -5.802  -2.890   0.012  0.00  0.00    +0.126 A 
ATOM     28  C   UNL     1      -4.844  -3.571   0.744  0.00  0.00    +0.078 A 
ATOM     29  C   UNL     1      -3.525  -3.156   0.713  0.00  0.00    +0.147 A 
ATOM     30  F   UNL     1      -2.590  -3.823   1.423  0.00  0.00    -0.203 F 
ATOM     31  F   UNL     1      -7.089  -3.300   0.039  0.00  0.00    -0.205 F 
ENDBRANCH  22  24
ENDBRANCH  19  20
ENDBRANCH  18  19
ENDBRANCH   4  18
TORSDOF 8
