REMARK  Name = ZINC00178452
REMARK  4 active torsions:
REMARK  status: ('A' for Active; 'I' for Inactive)
REMARK    1  A    between atoms: C_1  and  C_2
REMARK    2  A    between atoms: C_6  and  C_7
REMARK    3  A    between atoms: C_12  and  C_14
REMARK    4  A    between atoms: C_16  and  N_21
REMARK                            x       y       z     vdW  Elec       q    Type
REMARK                         _______ _______ _______ _____ _____    ______ ____
ROOT
ATOM      1  C   UNL     1      -1.199   2.358   0.021  0.00  0.00    +0.050 C 
ATOM      2  C   UNL     1      -0.018   1.491   0.010  0.00  0.00    +0.153 C 
ATOM      3  C   UNL     1       0.002  -0.004   0.002  0.00  0.00    +0.364 C 
ATOM      4  O   UNL     1      -0.951  -0.754   0.007  0.00  0.00    -0.243 OA
ATOM      5  O   UNL     1       1.313  -0.341  -0.012  0.00  0.00    -0.402 OA
ATOM      6  C   UNL     1       2.036   0.792  -0.013  0.00  0.00    +0.233 C 
ATOM      7  N   UNL     1       1.247   1.869   0.000  0.00  0.00    -0.205 NA
ENDROOT
BRANCH   6   8
ATOM      8  C   UNL     1       3.497   0.840  -0.028  0.00  0.00    +0.057 A 
ATOM      9  C   UNL     1       4.244  -0.352  -0.042  0.00  0.00    +0.047 A 
ATOM     10  C   UNL     1       5.609  -0.299  -0.056  0.00  0.00    +0.127 A 
ATOM     11  C   UNL     1       6.265   0.924  -0.057  0.00  0.00    +0.034 A 
ATOM     12  C   UNL     1       5.545   2.107  -0.043  0.00  0.00    +0.023 A 
ATOM     13  C   UNL     1       4.167   2.079  -0.034  0.00  0.00    +0.053 A 
ATOM     14 CL   UNL     1       3.262   3.561  -0.023  0.00  0.00    -0.083 Cl
BRANCH  10  15
ATOM     15  N   UNL     1       6.393  -1.555  -0.070  0.00  0.00    +0.056 N 
ATOM     16  O   UNL     1       5.774  -2.717  -0.069  0.00  0.00    -0.126 OA
ATOM     17  O   UNL     1       7.709  -1.509  -0.084  0.00  0.00    -0.126 OA
ENDBRANCH  10  15
ENDBRANCH   6   8
BRANCH   1  23
ATOM     18  C   UNL     1      -3.553   4.455   0.044  0.00  0.00    +0.045 C 
ATOM     19  C   UNL     1      -2.081   4.779   0.038  0.00  0.00    -0.036 A 
ATOM     20  C   UNL     1      -1.629   6.039   0.043  0.00  0.00    +0.011 A 
ATOM     21  C   UNL     1      -0.255   6.280   0.037  0.00  0.00    +0.046 A 
ATOM     22  S   UNL     1       0.451   4.697   0.033  0.00  0.00    -0.097 S 
ATOM     23  C   UNL     1      -1.048   3.729   0.028  0.00  0.00    +0.017 A 
ENDBRANCH   1  23
TORSDOF 3
