REMARK  Name = ZINC25143893
REMARK  12 active torsions:
REMARK  status: ('A' for Active; 'I' for Inactive)
REMARK    1  A    between atoms: C_1  and  C_2
REMARK    2  A    between atoms: C_2  and  O_3
REMARK    3  A    between atoms: O_3  and  C_4
REMARK    4  A    between atoms: C_4  and  C_6
REMARK    5  A    between atoms: C_7  and  C_19
REMARK    6  A    between atoms: C_12  and  C_14
REMARK    7  A    between atoms: C_19  and  S_20
REMARK    8  A    between atoms: S_20  and  C_21
REMARK    9  A    between atoms: C_24  and  C_31
REMARK   10  A    between atoms: N_25  and  C_26
REMARK   11  A    between atoms: C_26  and  C_27
REMARK   12  A    between atoms: C_27  and  C_28
REMARK                            x       y       z     vdW  Elec       q    Type
REMARK                         _______ _______ _______ _____ _____    ______ ____
ROOT
ATOM      1  C   UNL     1       2.181   4.572  -1.381  0.00  0.00    +0.079 C 
ATOM      2  C   UNL     1       2.367   5.881  -1.652  0.00  0.00    +0.034 C 
ATOM      3  N   UNL     1       2.350   6.816  -0.657  0.00  0.00    -0.272 N 
ATOM      4  C   UNL     1       2.153   6.523   0.634  0.00  0.00    +0.304 C 
ATOM      5  O   UNL     1       2.155   7.425   1.449  0.00  0.00    -0.252 OA
ATOM      6  N   UNL     1       1.952   5.260   1.060  0.00  0.00    -0.288 N 
ATOM      7  C   UNL     1       1.952   4.176   0.063  0.00  0.00    +0.150 C 
ATOM      8  H   UNL     1       2.505   7.878  -0.898  0.00  0.00    +0.156 HD
ATOM      9  H   UNL     1       1.791   5.029   2.123  0.00  0.00    +0.151 HD
ENDROOT
BRANCH   7  10
ATOM     10  C   UNL     1       0.624   3.469   0.146  0.00  0.00    +0.015 A 
ATOM     11  C   UNL     1       0.367   2.139   0.200  0.00  0.00    +0.013 A 
ATOM     12  C   UNL     1      -0.946   1.712   0.274  0.00  0.00    +0.008 A 
ATOM     13  C   UNL     1      -1.938   2.636   0.285  0.00  0.00    +0.045 A 
ATOM     14  S   UNL     1      -1.019   4.165   0.201  0.00  0.00    -0.099 S 
ENDBRANCH   7  10
BRANCH   1  15
ATOM     15  C   UNL     1       2.198   3.602  -2.411  0.00  0.00    +0.339 C 
ATOM     16  O   UNL     1       2.240   3.952  -3.576  0.00  0.00    -0.245 OA
BRANCH  15  17
ATOM     17  O   UNL     1       2.169   2.289  -2.102  0.00  0.00    -0.462 OA
BRANCH  17  19
ATOM     18  C   UNL     1       2.151  -0.065  -2.650  0.00  0.00    +0.048 C 
ATOM     19  C   UNL     1       2.189   1.365  -3.192  0.00  0.00    +0.229 C 
ENDBRANCH  17  19
ENDBRANCH  15  17
ENDBRANCH   1  15
BRANCH   2  20
ATOM     20  C   UNL     1       2.599   6.318  -3.076  0.00  0.00    +0.128 C 
BRANCH  20  21
ATOM     21  S   UNL     1       1.052   6.951  -3.772  0.00  0.00    -0.080 S 
BRANCH  21  22
ATOM     22  C   UNL     1       1.598   7.377  -5.393  0.00  0.00    +0.192 A 
ATOM     23  N   UNL     1       2.814   7.241  -5.867  0.00  0.00    -0.122 NA
ATOM     24  N   UNL     1       2.855   7.649  -7.085  0.00  0.00    -0.133 NA
ATOM     25  C   UNL     1       1.680   8.074  -7.455  0.00  0.00    +0.137 A 
ATOM     26  N   UNL     1       0.837   7.916  -6.390  0.00  0.00    -0.305 N 
BRANCH  25  27
ATOM     27  C   UNL     1       1.317   8.636  -8.805  0.00  0.00    +0.057 C 
ATOM     28  C   UNL     1       2.365   8.537  -9.916  0.00  0.00    +0.012 C 
ATOM     29  C   UNL     1       2.058   9.891  -9.271  0.00  0.00    +0.012 C 
ENDBRANCH  25  27
BRANCH  26  30
ATOM     30  C   UNL     1      -0.588   8.254  -6.331  0.00  0.00    +0.135 C 
BRANCH  30  31
ATOM     31  C   UNL     1      -0.750   9.697  -5.848  0.00  0.00    +0.117 C 
BRANCH  31  32
ATOM     32  C   UNL     1      -2.215  10.045  -5.788  0.00  0.00    +0.212 C 
ATOM     33  O   UNL     1      -3.047   9.220  -6.100  0.00  0.00    -0.276 OA
ATOM     34  N   UNL     1      -2.600  11.272  -5.387  0.00  0.00    -0.329 N 
ATOM     35  H   UNL     1      -3.669  11.526  -5.343  0.00  0.00    +0.145 HD
ATOM     36  H   UNL     1      -1.845  12.021  -5.104  0.00  0.00    +0.145 HD
ENDBRANCH  31  32
ENDBRANCH  30  31
ENDBRANCH  26  30
ENDBRANCH  21  22
ENDBRANCH  20  21
ENDBRANCH   2  20
TORSDOF 11
