REMARK  Name = ZINC01129683
REMARK  6 active torsions:
REMARK  status: ('A' for Active; 'I' for Inactive)
REMARK    1  A    between atoms: C_1  and  C_2
REMARK    2  A    between atoms: C_3  and  C_27
REMARK    3  A    between atoms: C_4  and  C_20
REMARK    4  A    between atoms: C_10  and  C_15
REMARK    5  A    between atoms: C_27  and  O_29
REMARK    6  A    between atoms: O_29  and  C_30
REMARK                            x       y       z     vdW  Elec       q    Type
REMARK                         _______ _______ _______ _____ _____    ______ ____
ROOT
ATOM      1  C   UNL     1       5.518   6.848   3.880  0.00  0.00    +0.061 C 
ATOM      2  C   UNL     1       4.903   6.725   2.509  0.00  0.00    +0.016 C 
ATOM      3  C   UNL     1       5.458   7.370   1.469  0.00  0.00    +0.065 C 
ATOM      4  C   UNL     1       4.869   7.278   0.092  0.00  0.00    +0.092 C 
ATOM      5  C   UNL     1       3.933   6.101  -0.019  0.00  0.00    +0.024 C 
ATOM      6  C   UNL     1       3.439   5.506   1.088  0.00  0.00    +0.016 C 
ATOM      7  N   UNL     1       3.785   5.959   2.333  0.00  0.00    -0.321 N 
ATOM      8  C   UNL     1       2.499   4.331   0.985  0.00  0.00    +0.062 C 
ATOM      9  C   UNL     1       1.674   4.444  -0.299  0.00  0.00    +0.068 C 
ATOM     10  C   UNL     1       2.632   4.498  -1.494  0.00  0.00    +0.091 C 
ATOM     11  C   UNL     1       3.587   5.645  -1.303  0.00  0.00    +0.162 C 
ATOM     12  O   UNL     1       4.065   6.190  -2.279  0.00  0.00    -0.292 OA
ATOM     13  H   UNL     1       3.154   5.700   3.196  0.00  0.00    +0.152 HD
ENDROOT
BRANCH   4  14
ATOM     14  C   UNL     1       4.109   8.545  -0.206  0.00  0.00    -0.032 A 
ATOM     15  C   UNL     1       4.496   9.351  -1.260  0.00  0.00    +0.005 A 
ATOM     16  C   UNL     1       3.800  10.513  -1.535  0.00  0.00    +0.003 A 
ATOM     17  C   UNL     1       2.715  10.870  -0.755  0.00  0.00    +0.038 A 
ATOM     18  C   UNL     1       2.327  10.063   0.301  0.00  0.00    +0.124 A 
ATOM     19  C   UNL     1       3.022   8.897   0.571  0.00  0.00    +0.043 A 
ATOM     20  F   UNL     1       1.267  10.411   1.063  0.00  0.00    -0.205 F 
ENDBRANCH   4  14
BRANCH   9  21
ATOM     21  C   UNL     1       0.771   3.244  -0.428  0.00  0.00    +0.109 A 
ATOM     22  C   UNL     1      -0.572   3.275  -0.498  0.00  0.00    +0.045 A 
ATOM     23  C   UNL     1      -1.006   1.934  -0.617  0.00  0.00    +0.041 A 
ATOM     24  C   UNL     1       0.097   1.165  -0.605  0.00  0.00    +0.195 A 
ATOM     25  O   UNL     1       1.171   1.964  -0.494  0.00  0.00    -0.468 OA
ENDBRANCH   9  21
BRANCH   3  26
ATOM     26  C   UNL     1       6.619   8.151   1.676  0.00  0.00    +0.338 C 
ATOM     27  O   UNL     1       7.046   8.320   2.803  0.00  0.00    -0.245 OA
BRANCH  26  28
ATOM     28  O   UNL     1       7.255   8.707   0.623  0.00  0.00    -0.458 OA
BRANCH  28  29
ATOM     29  C   UNL     1       8.421   9.483   0.906  0.00  0.00    +0.177 C 
ATOM     30  C   UNL     1       8.020  10.941   1.138  0.00  0.00    +0.044 C 
ATOM     31  C   UNL     1       9.269  11.771   1.440  0.00  0.00    +0.004 C 
ATOM     32  C   UNL     1      10.235  11.690   0.256  0.00  0.00    +0.000 C 
ATOM     33  C   UNL     1      10.636  10.232   0.024  0.00  0.00    +0.004 C 
ATOM     34  C   UNL     1       9.387   9.402  -0.279  0.00  0.00    +0.044 C 
ENDBRANCH  28  29
ENDBRANCH  26  28
ENDBRANCH   3  26
TORSDOF 5
