REMARK  Name = ZINC38636076
REMARK  13 active torsions:
REMARK  status: ('A' for Active; 'I' for Inactive)
REMARK    1  A    between atoms: C_1  and  C_2
REMARK    2  A    between atoms: C_4  and  C_31
REMARK    3  A    between atoms: C_5  and  C_30
REMARK    4  A    between atoms: C_6  and  S_9
REMARK    5  A    between atoms: C_7  and  C_8
REMARK    6  A    between atoms: S_9  and  N_12
REMARK    7  A    between atoms: N_12  and  C_13
REMARK    8  A    between atoms: C_13  and  C_14
REMARK    9  A    between atoms: C_14  and  C_16
REMARK   10  A    between atoms: C_14  and  N_25
REMARK   11  A    between atoms: C_19  and  N_22
REMARK   12  A    between atoms: N_22  and  C_23
REMARK   13  A    between atoms: N_22  and  C_24
REMARK                            x       y       z     vdW  Elec       q    Type
REMARK                         _______ _______ _______ _____ _____    ______ ____
ROOT
ATOM      1  C   UNL     1       2.551  -2.278   3.612  0.00  0.00    +0.095 C 
ENDROOT
BRANCH   1   2
ATOM      2  N   UNL     1       2.898  -1.603   2.359  0.00  0.00    -0.191 NA
ATOM      3  H   UNL     1       3.827  -1.424   2.146  0.00  0.00    +0.148 HD
BRANCH   2   4
ATOM      4  S   UNL     1       1.704  -1.147   1.306  0.00  0.00    +0.059 S 
ATOM      5  O   UNL     1       0.861  -2.277   1.133  0.00  0.00    -0.153 OA
ATOM      6  O   UNL     1       2.349  -0.503   0.215  0.00  0.00    -0.153 OA
BRANCH   4  12
ATOM      7  C   UNL     1       0.680   3.840   2.490  0.00  0.00    +0.044 C 
ATOM      8  C   UNL     1       0.315   2.385   2.627  0.00  0.00    -0.045 A 
ATOM      9  C   UNL     1      -0.778   2.015   3.388  0.00  0.00    +0.007 A 
ATOM     10  C   UNL     1      -1.112   0.679   3.514  0.00  0.00    -0.045 A 
ATOM     11  C   UNL     1      -0.354  -0.286   2.878  0.00  0.00    -0.021 A 
ATOM     12  C   UNL     1       0.738   0.084   2.116  0.00  0.00    +0.112 A 
ATOM     13  C   UNL     1       1.070   1.420   1.987  0.00  0.00    -0.021 A 
ATOM     14  C   UNL     1       2.257   1.823   1.151  0.00  0.00    +0.046 C 
ATOM     15  C   UNL     1      -0.719  -1.742   3.016  0.00  0.00    +0.046 C 
ATOM     16  C   UNL     1      -2.303   0.276   4.345  0.00  0.00    +0.044 C 
ENDBRANCH   4  12
ENDBRANCH   2   4
ENDBRANCH   1   2
BRANCH   1  17
ATOM     17  C   UNL     1       3.811  -2.886   4.230  0.00  0.00    -0.022 C 
BRANCH  17  18
ATOM     18  C   UNL     1       4.768  -1.784   4.607  0.00  0.00    -0.060 A 
ATOM     19  C   UNL     1       4.580  -1.079   5.781  0.00  0.00    +0.004 A 
ATOM     20  C   UNL     1       5.454  -0.068   6.129  0.00  0.00    +0.023 A 
ATOM     21  C   UNL     1       6.524   0.239   5.298  0.00  0.00    +0.029 A 
ATOM     22  C   UNL     1       6.710  -0.472   4.119  0.00  0.00    +0.023 A 
ATOM     23  C   UNL     1       5.835  -1.485   3.780  0.00  0.00    +0.004 A 
BRANCH  21  24
ATOM     24  N   UNL     1       7.411   1.260   5.647  0.00  0.00    -0.336 N 
ATOM     25  C   UNL     1       7.279   1.934   6.941  0.00  0.00    +0.129 C 
ATOM     26  C   UNL     1       8.472   1.658   4.719  0.00  0.00    +0.129 C 
ENDBRANCH  21  24
ENDBRANCH  17  18
BRANCH  17  27
ATOM     27  N   UNL     1       3.448  -3.651   5.431  0.00  0.00    +0.385 N 
ATOM     28  C   UNL     1       2.618  -4.825   5.058  0.00  0.00    -0.078 C 
ATOM     29  C   UNL     1       2.800  -5.784   6.262  0.00  0.00    -0.020 C 
ATOM     30  C   UNL     1       4.284  -5.580   6.645  0.00  0.00    -0.020 C 
ATOM     31  C   UNL     1       4.662  -4.201   6.072  0.00  0.00    -0.078 C 
ATOM     32  H   UNL     1       2.948  -3.062   6.080  0.00  0.00    -0.081 HD
ENDBRANCH  17  27
ENDBRANCH   1  17
TORSDOF 7
