REMARK  Name = ZINC04677691
REMARK  6 active torsions:
REMARK  status: ('A' for Active; 'I' for Inactive)
REMARK    1  A    between atoms: C_1  and  C_2
REMARK    2  A    between atoms: C_2  and  C_22
REMARK    3  A    between atoms: N_3  and  N_4
REMARK    4  A    between atoms: C_5  and  C_7
REMARK    5  A    between atoms: C_9  and  C_13
REMARK    6  A    between atoms: C_17  and  N_19
REMARK                            x       y       z     vdW  Elec       q    Type
REMARK                         _______ _______ _______ _____ _____    ______ ____
ROOT
ATOM      1  C   UNL     1      -0.741   7.441   0.052  0.00  0.00    +0.122 A 
ATOM      2  C   UNL     1      -1.216   6.144   0.048  0.00  0.00    +0.062 A 
ATOM      3  C   UNL     1      -0.070   5.328   0.033  0.00  0.00    +0.093 A 
ATOM      4  N   UNL     1       0.981   6.120   0.034  0.00  0.00    -0.173 NA
ATOM      5  N   UNL     1       0.623   7.354   0.040  0.00  0.00    -0.272 N 
ATOM      6  H   UNL     1       1.249   8.133   0.036  0.00  0.00    +0.189 HD
ENDROOT
BRANCH   3   7
ATOM      7  C   UNL     1      -0.050   3.844   0.024  0.00  0.00    +0.004 A 
ATOM      8  C   UNL     1      -1.246   3.128   0.031  0.00  0.00    +0.010 A 
ATOM      9  C   UNL     1      -1.221   1.749   0.017  0.00  0.00    +0.003 A 
ATOM     10  C   UNL     1      -0.013   1.076   0.008  0.00  0.00    +0.033 A 
ATOM     11  C   UNL     1       1.177   1.781   0.000  0.00  0.00    +0.127 A 
ATOM     12  C   UNL     1       1.164   3.161   0.008  0.00  0.00    +0.042 A 
BRANCH  11  13
ATOM     13  N   UNL     1       2.466   1.054  -0.016  0.00  0.00    +0.056 N 
ATOM     14  O   UNL     1       2.479  -0.163  -0.022  0.00  0.00    -0.126 OA
ATOM     15  O   UNL     1       3.515   1.675  -0.022  0.00  0.00    -0.126 OA
ENDBRANCH  11  13
ENDBRANCH   3   7
BRANCH   1  17
ATOM     16  N   UNL     1      -0.934   9.876   0.070  0.00  0.00    -0.201 N 
ATOM     17  C   UNL     1      -1.544   8.674   0.068  0.00  0.00    +0.281 C 
ATOM     18  O   UNL     1      -2.759   8.609   0.078  0.00  0.00    -0.267 OA
ATOM     19  H   UNL     1       0.035   9.928   0.062  0.00  0.00    +0.178 HD
BRANCH  16  22
ATOM     20  C   UNL     1       0.394  12.288   0.074  0.00  0.00    +0.068 C 
ATOM     21  C   UNL     1      -1.111  12.207   0.087  0.00  0.00    +0.063 C 
ATOM     22  N   UNL     1      -1.698  11.050   0.085  0.00  0.00    -0.184 NA
BRANCH  21  23
ATOM     23  C   UNL     1      -1.916  13.442   0.102  0.00  0.00    -0.002 A 
ATOM     24  C   UNL     1      -1.286  14.690   0.111  0.00  0.00    +0.012 A 
ATOM     25  C   UNL     1      -2.044  15.841   0.120  0.00  0.00    +0.039 A 
ATOM     26  C   UNL     1      -3.428  15.763   0.131  0.00  0.00    +0.123 A 
ATOM     27  C   UNL     1      -4.058  14.529   0.129  0.00  0.00    +0.039 A 
ATOM     28  C   UNL     1      -3.311  13.370   0.114  0.00  0.00    +0.012 A 
ATOM     29  F   UNL     1      -4.165  16.895   0.145  0.00  0.00    -0.205 F 
ENDBRANCH  21  23
ENDBRANCH  16  22
ENDBRANCH   1  17
TORSDOF 5
