REMARK  Name = ZINC62358160
REMARK  8 active torsions:
REMARK  status: ('A' for Active; 'I' for Inactive)
REMARK    1  A    between atoms: C_1  and  N_2
REMARK    2  A    between atoms: N_2  and  C_3
REMARK    3  A    between atoms: N_2  and  C_4
REMARK    4  A    between atoms: C_4  and  C_6
REMARK    5  A    between atoms: C_4  and  C_23
REMARK    6  A    between atoms: C_6  and  N_7
REMARK    7  A    between atoms: N_7  and  S_8
REMARK    8  A    between atoms: S_8  and  C_11
REMARK                            x       y       z     vdW  Elec       q    Type
REMARK                         _______ _______ _______ _____ _____    ______ ____
ROOT
ATOM      1  N   UNL     1       0.170  -2.050   0.791  0.00  0.00    -0.191 NA
ATOM      2  H   UNL     1       0.627  -1.346   1.276  0.00  0.00    +0.148 HD
ENDROOT
BRANCH   1   3
ATOM      3  S   UNL     1       0.435  -3.636   1.189  0.00  0.00    +0.058 S 
ATOM      4  O   UNL     1       1.387  -3.636   2.244  0.00  0.00    -0.153 OA
ATOM      5  O   UNL     1      -0.844  -4.242   1.318  0.00  0.00    -0.153 OA
BRANCH   3   6
ATOM      6  C   UNL     1       1.216  -4.397  -0.195  0.00  0.00    +0.107 A 
ATOM      7  C   UNL     1       0.446  -4.981  -1.185  0.00  0.00    +0.030 A 
ATOM      8  C   UNL     1       1.049  -5.580  -2.274  0.00  0.00    +0.030 A 
ATOM      9  C   UNL     1       2.432  -5.596  -2.375  0.00  0.00    +0.067 A 
ATOM     10  C   UNL     1       3.208  -5.006  -1.376  0.00  0.00    +0.069 A 
ATOM     11  C   UNL     1       2.594  -4.402  -0.289  0.00  0.00    +0.056 A 
ATOM     12  N   UNL     1       4.540  -5.176  -1.748  0.00  0.00    -0.306 N 
ATOM     13  H   UNL     1       5.312  -4.870  -1.248  0.00  0.00    +0.170 HD
ATOM     14  C   UNL     1       4.571  -5.839  -2.920  0.00  0.00    +0.325 A 
ATOM     15  O   UNL     1       5.582  -6.149  -3.522  0.00  0.00    -0.247 OA
ATOM     16  N   UNL     1       3.315  -6.106  -3.323  0.00  0.00    -0.306 N 
ATOM     17  H   UNL     1       3.067  -6.574  -4.136  0.00  0.00    +0.170 HD
ENDBRANCH   3   6
ENDBRANCH   1   3
BRANCH   1  18
ATOM     18  C   UNL     1      -0.755  -1.712  -0.293  0.00  0.00    +0.095 C 
BRANCH  18  19
ATOM     19  C   UNL     1      -1.112  -0.226  -0.214  0.00  0.00    -0.023 C 
BRANCH  19  20
ATOM     20  C   UNL     1      -1.871   0.042   1.060  0.00  0.00    -0.060 A 
ATOM     21  C   UNL     1      -3.218  -0.256   1.137  0.00  0.00    +0.003 A 
ATOM     22  C   UNL     1      -3.915  -0.010   2.305  0.00  0.00    +0.020 A 
ATOM     23  C   UNL     1      -3.263   0.534   3.398  0.00  0.00    +0.041 A 
ATOM     24  C   UNL     1      -1.914   0.831   3.320  0.00  0.00    +0.020 A 
ATOM     25  C   UNL     1      -1.217   0.580   2.153  0.00  0.00    +0.003 A 
ATOM     26 CL   UNL     1      -4.137   0.843   4.865  0.00  0.00    -0.084 Cl
ENDBRANCH  19  20
BRANCH  19  28
ATOM     27  C   UNL     1      -2.329   1.553  -1.266  0.00  0.00    -0.096 C 
ATOM     28  N   UNL     1      -1.946   0.139  -1.367  0.00  0.00    +0.381 N 
ATOM     29  C   UNL     1      -1.189  -0.076  -2.607  0.00  0.00    -0.096 C 
ATOM     30  H   UNL     1      -2.776  -0.435  -1.377  0.00  0.00    -0.082 HD
ENDBRANCH  19  28
ENDBRANCH  18  19
ENDBRANCH   1  18
TORSDOF 6
