REMARK  Name = ZINC34698678
REMARK  8 active torsions:
REMARK  status: ('A' for Active; 'I' for Inactive)
REMARK    1  A    between atoms: C_1  and  C_2
REMARK    2  A    between atoms: C_7  and  S_8
REMARK    3  A    between atoms: S_8  and  N_11
REMARK    4  A    between atoms: C_13  and  C_24
REMARK    5  A    between atoms: C_15  and  C_18
REMARK    6  A    between atoms: C_24  and  N_25
REMARK    7  A    between atoms: C_28  and  C_31
REMARK    8  A    between atoms: C_31  and  C_32
REMARK                            x       y       z     vdW  Elec       q    Type
REMARK                         _______ _______ _______ _____ _____    ______ ____
ROOT
ATOM      1  N   UNL     1       1.665   0.719   2.547  0.00  0.00    -0.176 NA
ATOM      2  C   UNL     1       3.071   0.468   2.893  0.00  0.00    +0.111 C 
ATOM      3  C   UNL     1       3.853   1.767   2.606  0.00  0.00    -0.003 C 
ATOM      4  C   UNL     1       2.946   2.498   1.581  0.00  0.00    +0.037 C 
ATOM      5  C   UNL     1       1.534   2.111   2.080  0.00  0.00    +0.118 C 
ENDROOT
BRANCH   4   6
ATOM      6  C   UNL     1       3.155   3.990   1.644  0.00  0.00    -0.043 A 
ATOM      7  C   UNL     1       2.915   4.672   2.822  0.00  0.00    +0.004 A 
ATOM      8  C   UNL     1       3.107   6.040   2.879  0.00  0.00    +0.000 A 
ATOM      9  C   UNL     1       3.538   6.725   1.759  0.00  0.00    +0.000 A 
ATOM     10  C   UNL     1       3.779   6.043   0.581  0.00  0.00    +0.000 A 
ATOM     11  C   UNL     1       3.592   4.674   0.525  0.00  0.00    +0.004 A 
ENDBRANCH   4   6
BRANCH   1  12
ATOM     12  S   UNL     1       0.432  -0.381   2.656  0.00  0.00    +0.061 S 
ATOM     13  O   UNL     1      -0.780   0.356   2.575  0.00  0.00    -0.153 OA
ATOM     14  O   UNL     1       0.738  -1.225   3.759  0.00  0.00    -0.153 OA
BRANCH  12  21
ATOM     15  C   UNL     1      -0.022   0.637  -0.154  0.00  0.00    +0.046 C 
ATOM     16  C   UNL     1       0.283  -0.833  -0.031  0.00  0.00    -0.021 A 
ATOM     17  C   UNL     1       0.345  -1.623  -1.163  0.00  0.00    +0.043 A 
ATOM     18  C   UNL     1       0.625  -2.974  -1.050  0.00  0.00    +0.124 A 
ATOM     19  C   UNL     1       0.843  -3.533   0.198  0.00  0.00    +0.040 A 
ATOM     20  C   UNL     1       0.780  -2.741   1.329  0.00  0.00    +0.031 A 
ATOM     21  C   UNL     1       0.505  -1.391   1.214  0.00  0.00    +0.109 A 
ATOM     22  F   UNL     1       0.686  -3.747  -2.156  0.00  0.00    -0.205 F 
ENDBRANCH  12  21
ENDBRANCH   1  12
BRANCH   3  23
ATOM     23  C   UNL     1       5.221   1.452   1.996  0.00  0.00    -0.073 C 
BRANCH  23  24
ATOM     24  N   UNL     1       6.039   0.728   2.978  0.00  0.00    +0.380 N 
ATOM     25  C   UNL     1       7.288   0.289   2.343  0.00  0.00    -0.079 C 
ATOM     26  C   UNL     1       8.108  -0.535   3.338  0.00  0.00    -0.015 C 
ATOM     27  C   UNL     1       8.431   0.327   4.562  0.00  0.00    -0.010 C 
ATOM     28  C   UNL     1       7.124   0.840   5.172  0.00  0.00    -0.015 C 
ATOM     29  C   UNL     1       6.340   1.613   4.110  0.00  0.00    -0.079 C 
ATOM     30  H   UNL     1       5.531  -0.079   3.309  0.00  0.00    -0.082 HD
BRANCH  27  31
ATOM     31  C   UNL     1       9.183  -0.514   5.596  0.00  0.00    +0.038 C 
BRANCH  31  32
ATOM     32  C   UNL     1       9.608   0.363   6.745  0.00  0.00    -0.047 A 
ATOM     33  C   UNL     1      10.832   1.004   6.709  0.00  0.00    +0.003 A 
ATOM     34  C   UNL     1      11.222   1.810   7.763  0.00  0.00    +0.000 A 
ATOM     35  C   UNL     1      10.387   1.974   8.852  0.00  0.00    +0.000 A 
ATOM     36  C   UNL     1       9.162   1.334   8.888  0.00  0.00    +0.000 A 
ATOM     37  C   UNL     1       8.771   0.532   7.832  0.00  0.00    +0.003 A 
ENDBRANCH  31  32
ENDBRANCH  27  31
ENDBRANCH  23  24
ENDBRANCH   3  23
TORSDOF 7
