REMARK  Name = ZINC11382168
REMARK  10 active torsions:
REMARK  status: ('A' for Active; 'I' for Inactive)
REMARK    1  A    between atoms: C_1  and  C_2
REMARK    2  A    between atoms: C_2  and  N_3
REMARK    3  A    between atoms: C_4  and  C_22
REMARK    4  A    between atoms: C_7  and  S_8
REMARK    5  A    between atoms: S_8  and  C_9
REMARK    6  A    between atoms: C_9  and  C_11
REMARK    7  A    between atoms: C_9  and  C_12
REMARK    8  A    between atoms: N_14  and  C_15
REMARK    9  A    between atoms: C_20  and  C_21
REMARK   10  A    between atoms: C_22  and  N_23
REMARK                            x       y       z     vdW  Elec       q    Type
REMARK                         _______ _______ _______ _____ _____    ______ ____
ROOT
ATOM      1  N   UNL     1       4.535   3.909   2.400  0.00  0.00    -0.305 N 
ATOM      2  C   UNL     1       3.358   4.097   1.729  0.00  0.00    +0.152 A 
ATOM      3  N   UNL     1       3.609   4.880   0.718  0.00  0.00    -0.132 NA
ATOM      4  N   UNL     1       4.855   5.193   0.702  0.00  0.00    -0.122 NA
ATOM      5  C   UNL     1       5.472   4.623   1.710  0.00  0.00    +0.192 A 
ENDROOT
BRANCH   1   7
ATOM      6  C   UNL     1       5.223   1.707   3.213  0.00  0.00    +0.027 C 
ATOM      7  C   UNL     1       4.746   3.106   3.608  0.00  0.00    +0.122 C 
ENDBRANCH   1   7
BRANCH   5   8
ATOM      8  S   UNL     1       7.185   4.757   2.103  0.00  0.00    -0.074 S 
BRANCH   8   9
ATOM      9  C   UNL     1       7.730   5.846   0.763  0.00  0.00    +0.137 C 
ATOM     10  C   UNL     1       7.567   5.125  -0.577  0.00  0.00    +0.029 C 
BRANCH   9  11
ATOM     11  C   UNL     1       9.179   6.206   0.967  0.00  0.00    +0.230 C 
ATOM     12  O   UNL     1       9.903   5.471   1.604  0.00  0.00    -0.274 OA
ATOM     13  N   UNL     1       9.669   7.346   0.442  0.00  0.00    -0.284 N 
ATOM     14  H   UNL     1       9.077   7.966  -0.012  0.00  0.00    +0.155 HD
BRANCH  13  15
ATOM     15  C   UNL     1      11.034   7.636   0.551  0.00  0.00    +0.036 A 
ATOM     16  C   UNL     1      11.737   7.256   1.687  0.00  0.00    +0.023 A 
ATOM     17  C   UNL     1      13.085   7.539   1.790  0.00  0.00    +0.002 A 
ATOM     18  C   UNL     1      13.732   8.210   0.769  0.00  0.00    +0.000 A 
ATOM     19  C   UNL     1      13.034   8.595  -0.361  0.00  0.00    +0.005 A 
ATOM     20  C   UNL     1      11.687   8.310  -0.472  0.00  0.00    -0.029 A 
ATOM     21  C   UNL     1      10.926   8.731  -1.703  0.00  0.00    +0.045 C 
ENDBRANCH  13  15
ENDBRANCH   9  11
ENDBRANCH   8   9
ENDBRANCH   5   8
BRANCH   2  22
ATOM     22  C   UNL     1       2.018   3.512   2.095  0.00  0.00    +0.184 C 
BRANCH  22  23
ATOM     23  N   UNL     1       1.266   4.479   2.898  0.00  0.00    -0.294 N 
ATOM     24  C   UNL     1       1.307   4.398   4.367  0.00  0.00    +0.108 C 
ATOM     25  C   UNL     1      -0.046   3.889   4.867  0.00  0.00    +0.019 C 
ATOM     26  C   UNL     1      -1.023   5.036   5.048  0.00  0.00    +0.002 C 
ATOM     27  C   UNL     1      -1.430   5.705   3.747  0.00  0.00    +0.009 C 
ATOM     28  C   UNL     1      -0.238   6.427   3.113  0.00  0.00    +0.096 C 
ATOM     29  C   UNL     1       0.548   5.426   2.293  0.00  0.00    +0.216 C 
ATOM     30  O   UNL     1       0.525   5.487   1.082  0.00  0.00    -0.276 OA
ENDBRANCH  22  23
ENDBRANCH   2  22
TORSDOF 7
