REMARK  Name = ZINC13972893
REMARK  4 active torsions:
REMARK  status: ('A' for Active; 'I' for Inactive)
REMARK    1  A    between atoms: C_1  and  C_2
REMARK    2  A    between atoms: C_4  and  C_25
REMARK    3  A    between atoms: C_12  and  C_14
REMARK    4  A    between atoms: C_14  and  C_15
REMARK                            x       y       z     vdW  Elec       q    Type
REMARK                         _______ _______ _______ _____ _____    ______ ____
ROOT
ATOM      1  C   UNL     1       1.072  11.732   9.072  0.00  0.00    +0.044 C 
ATOM      2  C   UNL     1       1.059  11.558   7.575  0.00  0.00    -0.049 A 
ATOM      3  C   UNL     1       1.036  12.667   6.741  0.00  0.00    +0.009 A 
ATOM      4  C   UNL     1       1.024  12.536   5.377  0.00  0.00    -0.024 A 
ATOM      5  C   UNL     1       1.036  11.258   4.773  0.00  0.00    +0.083 A 
ATOM      6  C   UNL     1       1.059  10.152   5.653  0.00  0.00    +0.041 A 
ATOM      7  C   UNL     1       1.071  10.292   7.019  0.00  0.00    +0.020 A 
ATOM      8  S   UNL     1       1.068   8.775   4.531  0.00  0.00    -0.052 S 
ATOM      9  C   UNL     1       1.040   9.721   3.015  0.00  0.00    +0.165 A 
ATOM     10  N   UNL     1       1.033  10.957   3.456  0.00  0.00    -0.224 NA
ATOM     11  N   UNL     1       1.034   9.266   1.706  0.00  0.00    -0.264 N 
ATOM     12  C   UNL     1       1.050   7.942   1.453  0.00  0.00    +0.223 C 
ATOM     13  O   UNL     1       1.069   7.150   2.371  0.00  0.00    -0.275 OA
ATOM     14  C   UNL     1       0.998  13.769   4.511  0.00  0.00    +0.046 C 
ATOM     15  H   UNL     1       1.019   9.900   0.972  0.00  0.00    +0.157 HD
ENDROOT
BRANCH  12  16
ATOM     16  C   UNL     1       1.044   7.447   0.030  0.00  0.00    +0.131 C 
BRANCH  16  17
ATOM     17  C   UNL     1       1.064   5.940   0.022  0.00  0.00    -0.038 A 
ATOM     18  C   UNL     1       2.286   5.270   0.008  0.00  0.00    +0.005 A 
ATOM     19  C   UNL     1       2.340   3.910  -0.000  0.00  0.00    +0.009 A 
ATOM     20  C   UNL     1       1.147   3.167   0.008  0.00  0.00    -0.018 A 
ATOM     21  C   UNL     1       1.163   1.762   0.000  0.00  0.00    +0.008 A 
ATOM     22  C   UNL     1      -0.013   1.076   0.008  0.00  0.00    +0.001 A 
ATOM     23  C   UNL     1      -1.235   1.746   0.017  0.00  0.00    +0.001 A 
ATOM     24  C   UNL     1      -1.288   3.106   0.030  0.00  0.00    +0.008 A 
ATOM     25  C   UNL     1      -0.096   3.849   0.023  0.00  0.00    -0.018 A 
ATOM     26  C   UNL     1      -0.111   5.254   0.030  0.00  0.00    +0.012 A 
ENDBRANCH  16  17
ENDBRANCH  12  16
TORSDOF 2
