REMARK  Name = ZINC39664968
REMARK  7 active torsions:
REMARK  status: ('A' for Active; 'I' for Inactive)
REMARK    1  A    between atoms: C_1  and  C_2
REMARK    2  A    between atoms: C_2  and  C_4
REMARK    3  A    between atoms: C_2  and  O_29
REMARK    4  A    between atoms: C_4  and  N_5
REMARK    5  A    between atoms: C_6  and  C_8
REMARK    6  A    between atoms: C_19  and  C_21
REMARK    7  A    between atoms: O_29  and  C_30
REMARK                            x       y       z     vdW  Elec       q    Type
REMARK                         _______ _______ _______ _____ _____    ______ ____
ROOT
ATOM      1  C   UNL     1      -2.263  -4.636  -0.262  0.00  0.00    +0.100 C 
ATOM      2  C   UNL     1      -1.692  -4.879  -1.677  0.00  0.00    +0.121 C 
ATOM      3  N   UNL     1      -2.469  -6.027  -2.201  0.00  0.00    -0.296 N 
ATOM      4  C   UNL     1      -3.852  -5.783  -1.729  0.00  0.00    +0.115 C 
ATOM      5  C   UNL     1      -3.680  -5.230  -0.300  0.00  0.00    -0.004 C 
ATOM      6  C   UNL     1      -3.809  -6.356   0.721  0.00  0.00    -0.010 C 
ATOM      7  C   UNL     1      -5.243  -6.893   0.704  0.00  0.00    -0.082 C 
ATOM      8  N   UNL     1      -6.178  -5.806   1.023  0.00  0.00    +0.379 N 
ATOM      9  C   UNL     1      -6.114  -4.770  -0.014  0.00  0.00    -0.082 C 
ATOM     10  C   UNL     1      -4.716  -4.144  -0.027  0.00  0.00    -0.010 C 
ATOM     11  C   UNL     1      -2.018  -7.060  -2.941  0.00  0.00    +0.248 C 
ATOM     12  O   UNL     1      -0.831  -7.165  -3.179  0.00  0.00    -0.270 OA
ATOM     13  H   UNL     1      -7.116  -6.175   1.071  0.00  0.00    -0.086 HD
ATOM     14  H   UNL     1      -5.931  -5.404   1.915  0.00  0.00    -0.086 HD
ENDROOT
BRANCH  11  15
ATOM     15  C   UNL     1      -2.968  -8.064  -3.462  0.00  0.00    +0.055 A 
ATOM     16  C   UNL     1      -4.240  -7.673  -3.886  0.00  0.00    +0.016 A 
ATOM     17  C   UNL     1      -5.122  -8.614  -4.372  0.00  0.00    +0.021 A 
ATOM     18  C   UNL     1      -4.749  -9.947  -4.440  0.00  0.00    +0.042 A 
ATOM     19  C   UNL     1      -3.491 -10.343  -4.022  0.00  0.00    +0.040 A 
ATOM     20  C   UNL     1      -2.595  -9.409  -3.539  0.00  0.00    +0.054 A 
ATOM     21 CL   UNL     1      -1.014  -9.904  -3.022  0.00  0.00    -0.083 Cl
ATOM     22 CL   UNL     1      -5.867 -11.126  -5.053  0.00  0.00    -0.083 Cl
ENDBRANCH  11  15
BRANCH   1  24
ATOM     23  N   UNL     1      -2.211  -2.721   1.304  0.00  0.00    -0.312 N 
ATOM     24  C   UNL     1      -2.320  -3.159   0.034  0.00  0.00    +0.218 C 
ATOM     25  O   UNL     1      -2.464  -2.365  -0.871  0.00  0.00    -0.275 OA
ATOM     26  H   UNL     1      -2.096  -3.357   2.028  0.00  0.00    +0.149 HD
BRANCH  23  27
ATOM     27  C   UNL     1      -2.267  -1.286   1.592  0.00  0.00    +0.148 C 
BRANCH  27  29
ATOM     28  C   UNL     1      -2.179   0.438   3.398  0.00  0.00    +0.053 C 
ATOM     29  C   UNL     1      -2.120  -1.061   3.098  0.00  0.00    +0.187 C 
BRANCH  29  30
ATOM     30  O   UNL     1      -3.183  -1.726   3.784  0.00  0.00    -0.488 OA
BRANCH  30  31
ATOM     31  C   UNL     1      -2.955  -2.082   5.076  0.00  0.00    +0.121 A 
ATOM     32  C   UNL     1      -3.894  -2.837   5.765  0.00  0.00    +0.045 A 
ATOM     33  C   UNL     1      -3.660  -3.198   7.077  0.00  0.00    +0.004 A 
ATOM     34  C   UNL     1      -2.491  -2.807   7.705  0.00  0.00    +0.000 A 
ATOM     35  C   UNL     1      -1.554  -2.055   7.021  0.00  0.00    +0.004 A 
ATOM     36  C   UNL     1      -1.781  -1.696   5.707  0.00  0.00    +0.045 A 
ENDBRANCH  30  31
ENDBRANCH  29  30
ENDBRANCH  27  29
ENDBRANCH  23  27
ENDBRANCH   1  24
TORSDOF 6
