REMARK  Name = ZINC38598078
REMARK  8 active torsions:
REMARK  status: ('A' for Active; 'I' for Inactive)
REMARK    1  A    between atoms: C_4  and  C_7
REMARK    2  A    between atoms: C_7  and  C_8
REMARK    3  A    between atoms: C_7  and  N_14
REMARK    4  A    between atoms: N_17  and  C_18
REMARK    5  A    between atoms: C_18  and  C_19
REMARK    6  A    between atoms: C_19  and  C_21
REMARK    7  A    between atoms: C_19  and  N_26
REMARK    8  A    between atoms: N_29  and  C_32
REMARK                            x       y       z     vdW  Elec       q    Type
REMARK                         _______ _______ _______ _____ _____    ______ ____
ROOT
ATOM      1  C   UNL     1       5.848  -3.944  -2.963  0.00  0.00    +0.098 C 
ENDROOT
BRANCH   1   5
ATOM      2  N   UNL     1       7.263  -0.761  -4.138  0.00  0.00    -0.289 N 
ATOM      3  C   UNL     1       6.785  -1.724  -3.326  0.00  0.00    +0.300 C 
ATOM      4  O   UNL     1       6.728  -1.536  -2.126  0.00  0.00    -0.253 OA
ATOM      5  N   UNL     1       6.369  -2.897  -3.845  0.00  0.00    -0.301 N 
ATOM      6  H   UNL     1       7.308  -0.911  -5.095  0.00  0.00    +0.151 HD
ATOM      7  H   UNL     1       6.413  -3.047  -4.802  0.00  0.00    +0.150 HD
BRANCH   2   8
ATOM      8  C   UNL     1       7.716   0.514  -3.574  0.00  0.00    +0.135 C 
BRANCH   8  12
ATOM      9  C   UNL     1      10.572   2.297  -6.202  0.00  0.00    +0.000 A 
ATOM     10  C   UNL     1      10.761   2.355  -4.834  0.00  0.00    +0.000 A 
ATOM     11  C   UNL     1       9.837   1.778  -3.983  0.00  0.00    +0.006 A 
ATOM     12  C   UNL     1       8.723   1.144  -4.501  0.00  0.00    -0.023 A 
ATOM     13  C   UNL     1       8.534   1.087  -5.869  0.00  0.00    +0.006 A 
ATOM     14  C   UNL     1       9.459   1.662  -6.720  0.00  0.00    +0.000 A 
ENDBRANCH   8  12
BRANCH   8  15
ATOM     15  C   UNL     1       6.536   1.438  -3.411  0.00  0.00    -0.023 A 
ATOM     16  C   UNL     1       5.554   1.483  -4.383  0.00  0.00    +0.006 A 
ATOM     17  C   UNL     1       4.473   2.331  -4.234  0.00  0.00    +0.000 A 
ATOM     18  C   UNL     1       4.373   3.133  -3.112  0.00  0.00    +0.000 A 
ATOM     19  C   UNL     1       5.354   3.087  -2.140  0.00  0.00    +0.000 A 
ATOM     20  C   UNL     1       6.434   2.236  -2.287  0.00  0.00    +0.006 A 
ENDBRANCH   8  15
ENDBRANCH   2   8
ENDBRANCH   1   5
BRANCH   1  21
ATOM     21  C   UNL     1       5.332  -5.111  -3.807  0.00  0.00    +0.017 C 
BRANCH  21  22
ATOM     22  N   UNL     1       4.356  -4.614  -4.786  0.00  0.00    +0.389 N 
ATOM     23  C   UNL     1       3.287  -3.891  -4.085  0.00  0.00    -0.059 C 
ATOM     24  C   UNL     1       2.332  -3.274  -5.112  0.00  0.00    +0.086 C 
ATOM     25  N   UNL     1       1.857  -4.340  -6.007  0.00  0.00    -0.333 N 
ATOM     26  C   UNL     1       2.859  -5.221  -6.627  0.00  0.00    +0.086 C 
ATOM     27  C   UNL     1       3.790  -5.746  -5.529  0.00  0.00    -0.059 C 
ATOM     28  H   UNL     1       4.817  -3.987  -5.429  0.00  0.00    -0.081 HD
BRANCH  25  29
ATOM     29  C   UNL     1       0.493  -4.511  -6.263  0.00  0.00    +0.030 A 
ATOM     30  C   UNL     1      -0.443  -3.747  -5.579  0.00  0.00    +0.026 A 
ATOM     31  C   UNL     1      -1.790  -3.917  -5.833  0.00  0.00    +0.040 A 
ATOM     32  C   UNL     1      -2.207  -4.849  -6.768  0.00  0.00    +0.124 A 
ATOM     33  C   UNL     1      -1.275  -5.612  -7.451  0.00  0.00    +0.040 A 
ATOM     34  C   UNL     1       0.073  -5.441  -7.204  0.00  0.00    +0.026 A 
ATOM     35  F   UNL     1      -3.525  -5.014  -7.015  0.00  0.00    -0.205 F 
ENDBRANCH  25  29
ENDBRANCH  21  22
BRANCH  21  36
ATOM     36  C   UNL     1       6.485  -5.757  -4.530  0.00  0.00    +0.093 A 
ATOM     37  C   UNL     1       7.112  -6.888  -4.159  0.00  0.00    +0.043 A 
ATOM     38  C   UNL     1       8.125  -7.127  -5.116  0.00  0.00    +0.041 A 
ATOM     39  C   UNL     1       8.056  -6.129  -6.015  0.00  0.00    +0.195 A 
ATOM     40  O   UNL     1       7.057  -5.305  -5.658  0.00  0.00    -0.469 OA
ENDBRANCH  21  36
ENDBRANCH   1  21
TORSDOF 8
