REMARK  Name = ZINC49695871
REMARK  10 active torsions:
REMARK  status: ('A' for Active; 'I' for Inactive)
REMARK    1  A    between atoms: C_1  and  C_2
REMARK    2  A    between atoms: C_2  and  C_3
REMARK    3  A    between atoms: C_4  and  C_26
REMARK    4  A    between atoms: C_5  and  C_25
REMARK    5  A    between atoms: C_6  and  C_9
REMARK    6  A    between atoms: N_11  and  C_12
REMARK    7  A    between atoms: C_12  and  C_19
REMARK    8  A    between atoms: C_21  and  C_24
REMARK    9  A    between atoms: C_26  and  O_28
REMARK   10  A    between atoms: O_28  and  C_29
REMARK                            x       y       z     vdW  Elec       q    Type
REMARK                         _______ _______ _______ _____ _____    ______ ____
ROOT
ATOM      1  C   UNL     1      -4.418  -1.790   1.620  0.00  0.00    +0.261 C 
ATOM      2  O   UNL     1      -5.491  -2.141   1.166  0.00  0.00    -0.269 OA
ATOM      3  N   UNL     1      -4.200  -1.839   2.950  0.00  0.00    -0.297 N 
ATOM      4  H   UNL     1      -3.345  -1.559   3.311  0.00  0.00    +0.150 HD
ENDROOT
BRANCH   1   8
ATOM      5  C   UNL     1      -1.412  -0.526   0.013  0.00  0.00    +0.031 A 
ATOM      6  C   UNL     1      -2.213  -0.713  -1.098  0.00  0.00    +0.083 A 
ATOM      7  C   UNL     1      -3.451  -1.215  -0.636  0.00  0.00    -0.006 A 
ATOM      8  C   UNL     1      -3.361  -1.313   0.720  0.00  0.00    +0.106 A 
ATOM      9  N   UNL     1      -2.105  -0.893   1.102  0.00  0.00    -0.353 N 
ATOM     10  H   UNL     1      -1.775  -0.865   2.014  0.00  0.00    +0.166 HD
ATOM     11  C   UNL     1      -4.646  -1.573  -1.483  0.00  0.00    +0.047 C 
BRANCH   5  13
ATOM     12  C   UNL     1      -0.019   1.526   0.010  0.00  0.00    +0.010 C 
ATOM     13  C   UNL     1       0.002  -0.004   0.002  0.00  0.00    +0.050 C 
ENDBRANCH   5  13
BRANCH   6  14
ATOM     14  C   UNL     1      -1.847  -0.441  -2.498  0.00  0.00    +0.341 C 
ATOM     15  O   UNL     1      -1.332  -1.312  -3.172  0.00  0.00    -0.245 OA
BRANCH  14  16
ATOM     16  O   UNL     1      -2.081   0.773  -3.033  0.00  0.00    -0.464 OA
ATOM     17  C   UNL     1      -1.700   0.967  -4.396  0.00  0.00    +0.280 C 
ENDBRANCH  14  16
ENDBRANCH   6  14
ENDBRANCH   1   8
BRANCH   3  18
ATOM     18  C   UNL     1      -5.255  -2.315   3.848  0.00  0.00    +0.098 C 
ATOM     19  C   UNL     1      -5.670  -3.738   3.421  0.00  0.00    +0.034 C 
ATOM     20  C   UNL     1      -4.431  -4.508   3.053  0.00  0.00    +0.003 C 
ATOM     21  C   UNL     1      -3.877  -5.332   4.231  0.00  0.00    +0.000 C 
ATOM     22  C   UNL     1      -3.917  -4.565   5.567  0.00  0.00    +0.000 C 
ATOM     23  C   UNL     1      -3.500  -3.127   5.419  0.00  0.00    +0.003 C 
ATOM     24  C   UNL     1      -4.765  -2.268   5.217  0.00  0.00    +0.034 C 
BRANCH  18  25
ATOM     25  C   UNL     1      -6.448  -1.403   3.724  0.00  0.00    +0.195 A 
ATOM     26  N   UNL     1      -7.144  -1.179   2.604  0.00  0.00    -0.194 NA
ATOM     27  C   UNL     1      -8.113  -0.339   2.839  0.00  0.00    +0.224 A 
ATOM     28  O   UNL     1      -8.067   0.003   4.133  0.00  0.00    -0.338 OA
ATOM     29  N   UNL     1      -6.974  -0.709   4.693  0.00  0.00    -0.059 NA
ATOM     30  C   UNL     1      -9.114   0.160   1.829  0.00  0.00    +0.112 C 
ENDBRANCH  18  25
ENDBRANCH   3  18
TORSDOF 6
