REMARK  Name = ZINC38752488
REMARK  4 active torsions:
REMARK  status: ('A' for Active; 'I' for Inactive)
REMARK    1  A    between atoms: C_4  and  N_7
REMARK    2  A    between atoms: N_7  and  C_8
REMARK    3  A    between atoms: N_11  and  C_23
REMARK    4  A    between atoms: C_17  and  N_22
REMARK                            x       y       z     vdW  Elec       q    Type
REMARK                         _______ _______ _______ _____ _____    ______ ____
ROOT
ATOM      1  C   UNL     1       3.729  -2.041   0.014  0.00  0.00    +0.103 C 
ATOM      2  C   UNL     1       4.963  -2.583   0.081  0.00  0.00    -0.010 C 
ATOM      3  C   UNL     1       6.208  -1.748   0.211  0.00  0.00    +0.119 C 
ATOM      4  N   UNL     1       6.963  -2.226   1.383  0.00  0.00    -0.295 NA
ATOM      5  C   UNL     1       7.228  -3.666   1.295  0.00  0.00    +0.086 C 
ATOM      6  C   UNL     1       5.915  -4.453   1.313  0.00  0.00    +0.028 C 
ATOM      7  C   UNL     1       5.103  -4.098   0.067  0.00  0.00    +0.058 C 
ATOM      8  C   UNL     1       3.804  -4.859   0.111  0.00  0.00    +0.043 C 
ATOM      9  C   UNL     1       3.414  -6.147   0.191  0.00  0.00    +0.117 C 
ATOM     10  N   UNL     1       2.068  -6.174   0.176  0.00  0.00    -0.262 N 
ATOM     11  N   UNL     1       1.564  -4.994   0.096  0.00  0.00    -0.154 NA
ATOM     12  C   UNL     1       2.562  -4.072   0.056  0.00  0.00    +0.159 C 
ATOM     13  N   UNL     1       2.612  -2.760  -0.002  0.00  0.00    -0.327 N 
ATOM     14  H   UNL     1       1.540  -6.987   0.220  0.00  0.00    +0.190 HD
ATOM     15  H   UNL     1       1.770  -2.281  -0.064  0.00  0.00    +0.169 HD
ENDROOT
BRANCH   4  16
ATOM     16  C   UNL     1       8.211  -1.470   1.550  0.00  0.00    +0.057 C 
ATOM     17  C   UNL     1       9.134  -1.739   0.360  0.00  0.00    +0.019 C 
ATOM     18  C   UNL     1      10.434  -0.951   0.534  0.00  0.00    +0.002 C 
ATOM     19  C   UNL     1      11.126  -1.389   1.826  0.00  0.00    +0.000 C 
ATOM     20  C   UNL     1      10.203  -1.119   3.016  0.00  0.00    +0.002 C 
ATOM     21  C   UNL     1       8.903  -1.907   2.842  0.00  0.00    +0.019 C 
ENDBRANCH   4  16
BRANCH   9  22
ATOM     22  N   UNL     1       4.258  -7.258   0.274  0.00  0.00    -0.343 N 
ATOM     23  H   UNL     1       5.220  -7.137   0.277  0.00  0.00    +0.144 HD
ATOM     24  H   UNL     1       3.881  -8.150   0.328  0.00  0.00    +0.144 HD
ENDBRANCH   9  22
BRANCH   1  25
ATOM     25  N   UNL     1       3.620  -0.649  -0.036  0.00  0.00    -0.301 N 
ATOM     26  H   UNL     1       4.056  -0.154  -0.748  0.00  0.00    +0.154 HD
BRANCH  25  30
ATOM     27  C   UNL     1       1.426   1.374   2.867  0.00  0.00    +0.000 A 
ATOM     28  C   UNL     1       2.116   2.086   1.903  0.00  0.00    +0.002 A 
ATOM     29  C   UNL     1       2.845   1.418   0.939  0.00  0.00    +0.023 A 
ATOM     30  C   UNL     1       2.884   0.030   0.938  0.00  0.00    +0.032 A 
ATOM     31  C   UNL     1       2.189  -0.682   1.908  0.00  0.00    +0.023 A 
ATOM     32  C   UNL     1       1.463  -0.008   2.869  0.00  0.00    +0.002 A 
ENDBRANCH  25  30
ENDBRANCH   1  25
TORSDOF 4
