REMARK  Name = ZINC12408716
REMARK  8 active torsions:
REMARK  status: ('A' for Active; 'I' for Inactive)
REMARK    1  A    between atoms: C_1  and  O_2
REMARK    2  A    between atoms: O_2  and  C_3
REMARK    3  A    between atoms: C_6  and  C_13
REMARK    4  A    between atoms: C_7  and  O_11
REMARK    5  A    between atoms: C_8  and  O_9
REMARK    6  A    between atoms: O_9  and  C_10
REMARK    7  A    between atoms: O_11  and  C_12
REMARK    8  A    between atoms: C_18  and  C_23
REMARK                            x       y       z     vdW  Elec       q    Type
REMARK                         _______ _______ _______ _____ _____    ______ ____
ROOT
ATOM      1  C   UNL     1      -1.792  -0.616  -2.076  0.00  0.00    +0.141 C 
ATOM      2  C   UNL     1      -2.043   0.830  -2.449  0.00  0.00    +0.037 C 
ATOM      3  C   UNL     1      -2.588   1.357  -3.556  0.00  0.00    +0.019 C 
ATOM      4  C   UNL     1      -2.707   2.861  -3.736  0.00  0.00    +0.060 C 
ATOM      5  C   UNL     1      -1.546   3.563  -3.032  0.00  0.00    +0.039 C 
ATOM      6  C   UNL     1      -1.633   3.198  -1.545  0.00  0.00    +0.088 C 
ATOM      7  C   UNL     1      -1.605   1.708  -1.417  0.00  0.00    +0.163 C 
ATOM      8  O   UNL     1      -1.189   1.224  -0.383  0.00  0.00    -0.292 OA
ATOM      9  N   UNL     1      -3.091   0.636  -4.600  0.00  0.00    -0.297 N 
ATOM     10  C   UNL     1      -2.453  -0.478  -5.124  0.00  0.00    +0.208 A 
ATOM     11  C   UNL     1      -2.191  -1.631  -4.274  0.00  0.00    +0.205 A 
ATOM     12  N   UNL     1      -1.692  -2.580  -5.001  0.00  0.00    -0.032 NA
ATOM     13  O   UNL     1      -1.560  -2.075  -6.323  0.00  0.00    -0.239 OA
ATOM     14  N   UNL     1      -2.053  -0.742  -6.326  0.00  0.00    -0.032 NA
ATOM     15  N   UNL     1      -2.459  -1.603  -2.906  0.00  0.00    -0.312 N 
ATOM     16  H   UNL     1      -3.933   0.916  -4.993  0.00  0.00    +0.153 HD
ATOM     17  H   UNL     1      -3.083  -2.234  -2.514  0.00  0.00    +0.149 HD
ENDROOT
BRANCH   1  21
ATOM     18  C   UNL     1       2.422  -1.337  -2.269  0.00  0.00    +0.165 A 
ATOM     19  C   UNL     1       1.858  -0.294  -2.988  0.00  0.00    +0.050 A 
ATOM     20  C   UNL     1       0.498  -0.062  -2.921  0.00  0.00    +0.013 A 
ATOM     21  C   UNL     1      -0.308  -0.870  -2.140  0.00  0.00    +0.023 A 
ATOM     22  C   UNL     1       0.249  -1.911  -1.414  0.00  0.00    +0.170 A 
ATOM     23  C   UNL     1       1.617  -2.149  -1.479  0.00  0.00    +0.204 A 
BRANCH  18  25
ATOM     24  C   UNL     1       4.527  -0.691  -3.167  0.00  0.00    +0.277 C 
ATOM     25  O   UNL     1       3.761  -1.565  -2.336  0.00  0.00    -0.491 OA
ENDBRANCH  18  25
BRANCH  23  26
ATOM     26  O   UNL     1       2.166  -3.173  -0.771  0.00  0.00    -0.488 OA
ATOM     27  C   UNL     1       2.246  -4.442  -1.422  0.00  0.00    +0.277 C 
ENDBRANCH  23  26
BRANCH  22  28
ATOM     28  O   UNL     1      -0.543  -2.703  -0.642  0.00  0.00    -0.491 OA
ATOM     29  C   UNL     1      -0.644  -2.367   0.743  0.00  0.00    +0.277 C 
ENDBRANCH  22  28
ENDBRANCH   1  21
BRANCH   5  30
ATOM     30  C   UNL     1      -1.668   5.056  -3.203  0.00  0.00    -0.006 A 
ATOM     31  C   UNL     1      -0.783   5.928  -3.743  0.00  0.00    +0.011 A 
ATOM     32  C   UNL     1      -1.113   7.269  -3.799  0.00  0.00    +0.008 A 
ATOM     33  C   UNL     1      -2.307   7.674  -3.302  0.00  0.00    +0.045 A 
ATOM     34  S   UNL     1      -3.013   6.134  -2.738  0.00  0.00    -0.101 S 
ENDBRANCH   5  30
TORSDOF 5
