REMARK  Name = ZINC05850503
REMARK  4 active torsions:
REMARK  status: ('A' for Active; 'I' for Inactive)
REMARK    1  A    between atoms: C_1  and  C_2
REMARK    2  A    between atoms: C_5  and  N_9
REMARK    3  A    between atoms: C_6  and  C_8
REMARK    4  A    between atoms: C_15  and  C_16
REMARK                            x       y       z     vdW  Elec       q    Type
REMARK                         _______ _______ _______ _____ _____    ______ ____
ROOT
ATOM      1  N   UNL     1      -2.193   7.410   0.492  0.00  0.00    -0.295 N 
ATOM      2  C   UNL     1      -1.737   6.129   0.327  0.00  0.00    +0.156 C 
ATOM      3  N   UNL     1      -0.488   5.712   0.192  0.00  0.00    -0.154 NA
ATOM      4  C   UNL     1      -0.179   4.443   0.045  0.00  0.00    +0.276 C 
ATOM      5  O   UNL     1       0.977   4.071  -0.072  0.00  0.00    -0.267 OA
ATOM      6  C   UNL     1      -1.315   3.489   0.025  0.00  0.00    +0.079 C 
ATOM      7  C   UNL     1      -1.314   2.140  -0.113  0.00  0.00    +0.029 C 
ATOM      8  S   UNL     1      -2.685   4.617   0.242  0.00  0.00    -0.051 S 
ATOM      9  H   UNL     1      -3.136   7.573   0.652  0.00  0.00    +0.154 HD
ENDROOT
BRANCH   1  14
ATOM     10  C   UNL     1       1.433  11.765   0.237  0.00  0.00    +0.044 C 
ATOM     11  C   UNL     1       0.469  10.608   0.305  0.00  0.00    -0.050 A 
ATOM     12  C   UNL     1       0.947   9.310   0.282  0.00  0.00    +0.005 A 
ATOM     13  C   UNL     1       0.067   8.248   0.344  0.00  0.00    +0.024 A 
ATOM     14  C   UNL     1      -1.299   8.484   0.430  0.00  0.00    +0.036 A 
ATOM     15  C   UNL     1      -1.776   9.788   0.448  0.00  0.00    -0.029 A 
ATOM     16  C   UNL     1      -0.890  10.846   0.391  0.00  0.00    +0.008 A 
ATOM     17  C   UNL     1      -3.258  10.049   0.535  0.00  0.00    +0.045 C 
ENDBRANCH   1  14
BRANCH   7  18
ATOM     18  C   UNL     1      -0.069   1.438  -0.457  0.00  0.00    -0.006 A 
ATOM     19  C   UNL     1       0.813   1.973  -1.409  0.00  0.00    +0.011 A 
ATOM     20  C   UNL     1       1.972   1.274  -1.692  0.00  0.00    +0.020 A 
ATOM     21  C   UNL     1       2.224   0.082  -1.035  0.00  0.00    +0.111 A 
ATOM     22  N   UNL     1       1.377  -0.399  -0.145  0.00  0.00    -0.263 NA
ATOM     23  C   UNL     1       0.259   0.227   0.161  0.00  0.00    +0.118 A 
ENDBRANCH   7  18
TORSDOF 2
