REMARK  Name = ZINC35990891
REMARK  9 active torsions:
REMARK  status: ('A' for Active; 'I' for Inactive)
REMARK    1  A    between atoms: C_1  and  C_2
REMARK    2  A    between atoms: C_2  and  O_3
REMARK    3  A    between atoms: O_3  and  C_4
REMARK    4  A    between atoms: C_4  and  C_6
REMARK    5  A    between atoms: C_7  and  C_25
REMARK    6  A    between atoms: N_8  and  C_24
REMARK    7  A    between atoms: C_12  and  C_14
REMARK    8  A    between atoms: C_17  and  C_20
REMARK    9  A    between atoms: C_25  and  N_26
REMARK                            x       y       z     vdW  Elec       q    Type
REMARK                         _______ _______ _______ _____ _____    ______ ____
ROOT
ATOM      1  C   UNL     1      -2.902  -2.335  -0.265  0.00  0.00    +0.080 C 
ATOM      2  C   UNL     1      -2.984  -3.648   0.039  0.00  0.00    +0.041 C 
ATOM      3  N   UNL     1      -4.194  -4.261   0.197  0.00  0.00    -0.260 N 
ATOM      4  C   UNL     1      -5.368  -3.631   0.067  0.00  0.00    +0.307 C 
ATOM      5  O   UNL     1      -6.394  -4.262   0.226  0.00  0.00    -0.252 OA
ATOM      6  N   UNL     1      -5.449  -2.320  -0.234  0.00  0.00    -0.288 N 
ATOM      7  C   UNL     1      -4.198  -1.565  -0.419  0.00  0.00    +0.144 C 
ATOM      8  C   UNL     1      -4.208  -5.689   0.526  0.00  0.00    +0.139 C 
ATOM      9  H   UNL     1      -6.310  -1.883  -0.324  0.00  0.00    +0.151 HD
ENDROOT
BRANCH   7  10
ATOM     10  C   UNL     1      -4.184  -0.430   0.573  0.00  0.00    -0.022 A 
ATOM     11  C   UNL     1      -4.495  -0.666   1.899  0.00  0.00    +0.006 A 
ATOM     12  C   UNL     1      -4.482   0.375   2.808  0.00  0.00    +0.013 A 
ATOM     13  C   UNL     1      -4.159   1.653   2.391  0.00  0.00    +0.055 A 
ATOM     14  C   UNL     1      -3.848   1.889   1.065  0.00  0.00    +0.013 A 
ATOM     15  C   UNL     1      -3.857   0.847   0.157  0.00  0.00    +0.006 A 
BRANCH  13  16
ATOM     16  C   UNL     1      -4.147   2.788   3.382  0.00  0.00    +0.417 C 
ATOM     17  F   UNL     1      -2.871   2.902   3.945  0.00  0.00    -0.166 F 
ATOM     18  F   UNL     1      -4.476   3.981   2.729  0.00  0.00    -0.166 F 
ATOM     19  F   UNL     1      -5.082   2.536   4.392  0.00  0.00    -0.166 F 
ENDBRANCH  13  16
ENDBRANCH   7  10
BRANCH   1  20
ATOM     20  C   UNL     1      -1.649  -1.698  -0.427  0.00  0.00    +0.339 C 
ATOM     21  O   UNL     1      -0.623  -2.304  -0.181  0.00  0.00    -0.245 OA
BRANCH  20  22
ATOM     22  O   UNL     1      -1.593  -0.420  -0.856  0.00  0.00    -0.462 OA
BRANCH  22  24
ATOM     23  C   UNL     1      -0.431   1.602  -1.490  0.00  0.00    +0.048 C 
ATOM     24  C   UNL     1      -0.294   0.160  -0.998  0.00  0.00    +0.229 C 
ENDBRANCH  22  24
ENDBRANCH  20  22
ENDBRANCH   1  20
BRANCH   2  25
ATOM     25  C   UNL     1      -1.719  -4.450   0.207  0.00  0.00    +0.136 C 
BRANCH  25  26
ATOM     26  N   UNL     1      -1.143  -4.186   1.532  0.00  0.00    -0.299 NA
ATOM     27  C   UNL     1      -2.047  -4.599   2.580  0.00  0.00    +0.083 C 
ATOM     28  C   UNL     1      -2.027  -3.655   3.798  0.00  0.00    -0.004 C 
ATOM     29  C   UNL     1      -0.598  -3.211   4.165  0.00  0.00    -0.081 C 
ATOM     30  N   UNL     1       0.347  -4.298   4.064  0.00  0.00    +0.380 N 
ATOM     31  C   UNL     1       0.978  -4.236   2.731  0.00  0.00    -0.067 C 
ATOM     32  C   UNL     1       0.170  -4.861   1.686  0.00  0.00    +0.066 C 
ATOM     33  H   UNL     1       1.052  -4.204   4.780  0.00  0.00    -0.086 HD
ATOM     34  H   UNL     1      -0.134  -5.178   4.173  0.00  0.00    -0.086 HD
ENDBRANCH  25  26
ENDBRANCH   2  25
TORSDOF 7
