REMARK  Name = ZINC39928169
REMARK  17 active torsions:
REMARK  status: ('A' for Active; 'I' for Inactive)
REMARK    1  A    between atoms: C_1  and  C_2
REMARK    2  A    between atoms: C_2  and  O_3
REMARK    3  A    between atoms: O_3  and  C_4
REMARK    4  A    between atoms: C_6  and  C_16
REMARK    5  A    between atoms: C_8  and  O_13
REMARK    6  A    between atoms: C_9  and  O_10
REMARK    7  A    between atoms: O_10  and  C_11
REMARK    8  A    between atoms: C_11  and  C_12
REMARK    9  A    between atoms: O_13  and  C_14
REMARK   10  A    between atoms: C_14  and  C_15
REMARK   11  A    between atoms: N_18  and  C_19
REMARK   12  A    between atoms: N_18  and  C_34
REMARK   13  A    between atoms: C_19  and  C_20
REMARK   14  A    between atoms: C_26  and  O_32
REMARK   15  A    between atoms: O_32  and  C_33
REMARK   16  A    between atoms: C_34  and  C_35
REMARK   17  A    between atoms: C_34  and  C_36
REMARK                            x       y       z     vdW  Elec       q    Type
REMARK                         _______ _______ _______ _____ _____    ______ ____
ROOT
ATOM      1  C   UNL     1      -1.831  -5.236  -0.494  0.00  0.00    +0.247 C 
ATOM      2  O   UNL     1      -2.744  -5.062   0.289  0.00  0.00    -0.270 OA
ATOM      3  N   UNL     1      -0.740  -5.931  -0.114  0.00  0.00    -0.294 N 
ENDROOT
BRANCH   1   6
ATOM      4  C   UNL     1      -3.232  -4.089  -3.786  0.00  0.00    +0.166 A 
ATOM      5  C   UNL     1      -3.154  -4.603  -2.505  0.00  0.00    +0.062 A 
ATOM      6  C   UNL     1      -1.917  -4.688  -1.862  0.00  0.00    +0.044 A 
ATOM      7  C   UNL     1      -0.762  -4.252  -2.515  0.00  0.00    +0.062 A 
ATOM      8  C   UNL     1      -0.845  -3.738  -3.796  0.00  0.00    +0.166 A 
ATOM      9  C   UNL     1      -2.079  -3.660  -4.437  0.00  0.00    +0.204 A 
BRANCH   4  10
ATOM     10  O   UNL     1      -4.437  -4.007  -4.413  0.00  0.00    -0.488 OA
BRANCH  10  12
ATOM     11  C   UNL     1      -6.832  -4.295  -4.547  0.00  0.00    +0.048 C 
ATOM     12  C   UNL     1      -5.579  -4.465  -3.687  0.00  0.00    +0.226 C 
ENDBRANCH  10  12
ENDBRANCH   4  10
BRANCH   9  13
ATOM     13  O   UNL     1      -2.158  -3.159  -5.698  0.00  0.00    -0.485 OA
BRANCH  13  14
ATOM     14  C   UNL     1      -2.362  -1.751  -5.825  0.00  0.00    +0.226 C 
ATOM     15  C   UNL     1      -2.424  -1.377  -7.307  0.00  0.00    +0.048 C 
ENDBRANCH  13  14
ENDBRANCH   9  13
BRANCH   8  16
ATOM     16  O   UNL     1       0.279  -3.313  -4.432  0.00  0.00    -0.488 OA
BRANCH  16  17
ATOM     17  C   UNL     1       1.524  -3.533  -3.766  0.00  0.00    +0.226 C 
ATOM     18  C   UNL     1       2.671  -3.042  -4.652  0.00  0.00    +0.048 C 
ENDBRANCH  16  17
ENDBRANCH   8  16
ENDBRANCH   1   6
BRANCH   3  19
ATOM     19  C   UNL     1       0.253  -6.338  -1.111  0.00  0.00    +0.070 C 
ATOM     20  C   UNL     1       1.568  -5.600  -0.853  0.00  0.00    +0.028 C 
ATOM     21  C   UNL     1       0.487  -7.847  -1.011  0.00  0.00    +0.028 C 
ENDBRANCH   3  19
BRANCH   3  22
ATOM     22  C   UNL     1      -0.547  -6.277   1.296  0.00  0.00    +0.125 C 
BRANCH  22  23
ATOM     23  C   UNL     1       0.638  -5.489   1.857  0.00  0.00    +0.116 C 
ATOM     24  C   UNL     1       0.852  -5.930   3.292  0.00  0.00    -0.003 C 
ATOM     25  C   UNL     1       0.792  -4.972   4.256  0.00  0.00    -0.007 A 
ATOM     26  C   UNL     1       0.988  -5.317   5.666  0.00  0.00    +0.013 A 
ATOM     27  C   UNL     1       0.923  -4.337   6.599  0.00  0.00    +0.046 A 
ATOM     28  C   UNL     1       0.671  -3.004   6.239  0.00  0.00    +0.122 A 
ATOM     29  C   UNL     1       0.479  -2.619   4.929  0.00  0.00    +0.069 A 
ATOM     30  C   UNL     1       0.529  -3.566   3.898  0.00  0.00    +0.044 A 
ATOM     31  N   UNL     1       0.341  -3.182   2.633  0.00  0.00    -0.284 N 
ATOM     32  C   UNL     1       0.376  -4.021   1.613  0.00  0.00    +0.226 C 
ATOM     33  O   UNL     1       0.197  -3.612   0.481  0.00  0.00    -0.275 OA
ATOM     34  H   UNL     1       0.171  -2.244   2.455  0.00  0.00    +0.155 HD
BRANCH  28  35
ATOM     35  O   UNL     1       0.616  -2.063   7.211  0.00  0.00    -0.495 OA
ATOM     36  C   UNL     1       0.821  -2.506   8.554  0.00  0.00    +0.277 C 
ENDBRANCH  28  35
ENDBRANCH  22  23
ENDBRANCH   3  22
TORSDOF 11
