REMARK  Name = ZINC09102532
REMARK  15 active torsions:
REMARK  status: ('A' for Active; 'I' for Inactive)
REMARK    1  A    between atoms: C_1  and  C_2
REMARK    2  A    between atoms: C_3  and  C_30
REMARK    3  A    between atoms: C_4  and  C_29
REMARK    4  A    between atoms: C_7  and  C_8
REMARK    5  A    between atoms: C_8  and  C_10
REMARK    6  A    between atoms: C_10  and  S_11
REMARK    7  A    between atoms: S_11  and  C_12
REMARK    8  A    between atoms: C_15  and  C_24
REMARK    9  A    between atoms: N_16  and  C_17
REMARK   10  A    between atoms: C_24  and  C_26
REMARK   11  A    between atoms: C_24  and  N_58
REMARK   12  A    between atoms: C_27  and  N_58
REMARK   13  A    between atoms: C_28  and  N_58
REMARK   14  A    between atoms: C_30  and  O_32
REMARK   15  A    between atoms: O_32  and  C_33
REMARK                            x       y       z     vdW  Elec       q    Type
REMARK                         _______ _______ _______ _____ _____    ______ ____
ROOT
ATOM      1  C   UNL     1       0.002  -0.004   0.002  0.00  0.00    +0.196 A 
ATOM      2  N   UNL     1      -0.016   1.309   0.009  0.00  0.00    -0.122 NA
ATOM      3  N   UNL     1       1.186   1.763   0.000  0.00  0.00    -0.135 NA
ATOM      4  C   UNL     1       2.038   0.777  -0.013  0.00  0.00    +0.125 A 
ATOM      5  N   UNL     1       1.315  -0.386  -0.013  0.00  0.00    -0.275 N 
ENDROOT
BRANCH   5   6
ATOM      6  C   UNL     1       1.817  -1.696  -0.025  0.00  0.00    +0.050 A 
ATOM      7  C   UNL     1       2.555  -2.168   1.052  0.00  0.00    +0.028 A 
ATOM      8  C   UNL     1       3.043  -3.460   1.040  0.00  0.00    +0.022 A 
ATOM      9  C   UNL     1       2.807  -4.280  -0.049  0.00  0.00    +0.041 A 
ATOM     10  C   UNL     1       2.076  -3.810  -1.126  0.00  0.00    +0.022 A 
ATOM     11  C   UNL     1       1.581  -2.521  -1.116  0.00  0.00    +0.028 A 
ATOM     12 CL   UNL     1       3.427  -5.901  -0.064  0.00  0.00    -0.084 Cl
ENDBRANCH   5   6
BRANCH   4  13
ATOM     13  C   UNL     1       3.541   0.895  -0.027  0.00  0.00    -0.003 C 
ATOM     14  C   UNL     1       4.034   1.299   1.363  0.00  0.00    -0.005 C 
BRANCH  13  17
ATOM     15  C   UNL     1       3.491   3.250  -0.589  0.00  0.00    -0.096 C 
ATOM     16  C   UNL     1       5.396   1.894  -1.220  0.00  0.00    -0.096 C 
ATOM     17  N   UNL     1       3.930   1.909  -1.030  0.00  0.00    +0.382 N 
ATOM     18  H   UNL     1       3.475   1.686  -1.923  0.00  0.00    -0.082 HD
ENDBRANCH  13  17
ENDBRANCH   4  13
BRANCH   1  19
ATOM     19  S   UNL     1      -1.400  -1.071   0.009  0.00  0.00    -0.078 S 
BRANCH  19  20
ATOM     20  C   UNL     1      -2.730   0.157   0.029  0.00  0.00    +0.158 C 
BRANCH  20  21
ATOM     21  C   UNL     1      -4.062  -0.546   0.037  0.00  0.00    +0.190 C 
ATOM     22  O   UNL     1      -4.109  -1.760   0.031  0.00  0.00    -0.290 OA
BRANCH  21  29
ATOM     23  C   UNL     1      -6.924  -1.762   0.045  0.00  0.00    +0.047 C 
ATOM     24  C   UNL     1      -6.540  -0.305   0.057  0.00  0.00    -0.008 A 
ATOM     25  C   UNL     1      -7.421   0.797   0.076  0.00  0.00    +0.083 A 
ATOM     26  C   UNL     1      -6.644   1.943   0.075  0.00  0.00    +0.028 A 
ATOM     27  N   UNL     1      -5.351   1.585   0.061  0.00  0.00    -0.355 N 
ATOM     28  H   UNL     1      -4.599   2.197   0.057  0.00  0.00    +0.166 HD
ATOM     29  C   UNL     1      -5.260   0.208   0.053  0.00  0.00    +0.087 A 
ATOM     30  C   UNL     1      -7.163   3.357   0.086  0.00  0.00    +0.064 C 
BRANCH  25  31
ATOM     31  C   UNL     1      -8.893   0.740   0.089  0.00  0.00    +0.341 C 
ATOM     32  O   UNL     1      -9.509   0.721  -0.958  0.00  0.00    -0.245 OA
BRANCH  31  33
ATOM     33  O   UNL     1      -9.555   0.708   1.262  0.00  0.00    -0.464 OA
ATOM     34  C   UNL     1     -11.005   0.651   1.198  0.00  0.00    +0.280 C 
ENDBRANCH  31  33
ENDBRANCH  25  31
ENDBRANCH  21  29
ENDBRANCH  20  21
ENDBRANCH  19  20
ENDBRANCH   1  19
TORSDOF 9
