REMARK  Name = ZINC06078361
REMARK  14 active torsions:
REMARK  status: ('A' for Active; 'I' for Inactive)
REMARK    1  A    between atoms: C_1  and  C_2
REMARK    2  A    between atoms: C_2  and  N_67
REMARK    3  A    between atoms: C_3  and  C_4
REMARK    4  A    between atoms: C_3  and  N_67
REMARK    5  A    between atoms: C_5  and  C_6
REMARK    6  A    between atoms: C_5  and  N_67
REMARK    7  A    between atoms: C_6  and  N_7
REMARK    8  A    between atoms: N_7  and  C_8
REMARK    9  A    between atoms: N_7  and  C_25
REMARK   10  A    between atoms: C_8  and  C_9
REMARK   11  A    between atoms: C_25  and  N_27
REMARK   12  A    between atoms: N_27  and  C_28
REMARK   13  A    between atoms: C_33  and  O_34
REMARK   14  A    between atoms: O_34  and  C_35
REMARK                            x       y       z     vdW  Elec       q    Type
REMARK                         _______ _______ _______ _____ _____    ______ ____
ROOT
ATOM      1  N   UNL     1       0.299  -1.048  -0.472  0.00  0.00    -0.310 N 
ENDROOT
BRANCH   1   2
ATOM      2  C   UNL     1       0.561   0.266  -0.323  0.00  0.00    +0.137 C 
ATOM      3  S   UNL     1       2.182   0.816  -0.284  0.00  0.00    -0.018 S 
BRANCH   2   4
ATOM      4  N   UNL     1      -0.453   1.146  -0.210  0.00  0.00    -0.294 N 
ATOM      5  H   UNL     1      -1.367   0.829  -0.154  0.00  0.00    +0.154 HD
BRANCH   4   6
ATOM      6  C   UNL     1      -0.185   2.521  -0.172  0.00  0.00    +0.075 A 
ATOM      7  C   UNL     1       0.714   3.079  -1.068  0.00  0.00    +0.027 A 
ATOM      8  C   UNL     1       0.973   4.437  -1.033  0.00  0.00    +0.002 A 
ATOM      9  C   UNL     1       0.344   5.239  -0.098  0.00  0.00    +0.004 A 
ATOM     10  C   UNL     1      -0.549   4.689   0.802  0.00  0.00    +0.047 A 
ATOM     11  C   UNL     1      -0.817   3.330   0.769  0.00  0.00    +0.141 A 
BRANCH  11  12
ATOM     12  O   UNL     1      -1.696   2.788   1.655  0.00  0.00    -0.493 OA
ATOM     13  C   UNL     1      -2.306   3.678   2.591  0.00  0.00    +0.277 C 
ENDBRANCH  11  12
ENDBRANCH   4   6
ENDBRANCH   2   4
ENDBRANCH   1   2
BRANCH   1  14
ATOM     14  C   UNL     1      -1.082  -1.533  -0.396  0.00  0.00    +0.088 C 
BRANCH  14  15
ATOM     15  C   UNL     1      -1.707  -1.511  -1.792  0.00  0.00    -0.060 C 
BRANCH  15  16
ATOM     16  N   UNL     1      -3.091  -2.022  -1.703  0.00  0.00    +0.380 N 
ATOM     17  H   UNL     1      -3.082  -2.925  -1.214  0.00  0.00    -0.082 HD
BRANCH  16  19
ATOM     18  C   UNL     1      -3.922   0.304  -1.607  0.00  0.00    -0.017 C 
ATOM     19  C   UNL     1      -3.932  -1.073  -0.942  0.00  0.00    -0.082 C 
ENDBRANCH  16  19
BRANCH  16  20
ATOM     20  C   UNL     1      -3.647  -2.215  -3.058  0.00  0.00    -0.082 C 
ATOM     21  C   UNL     1      -5.007  -2.906  -2.941  0.00  0.00    -0.017 C 
ENDBRANCH  16  20
ENDBRANCH  15  16
ENDBRANCH  14  15
ENDBRANCH   1  14
BRANCH   1  22
ATOM     22  C   UNL     1       1.394  -1.991  -0.710  0.00  0.00    +0.147 C 
BRANCH  22  23
ATOM     23  C   UNL     1       1.836  -2.590   0.601  0.00  0.00    +0.035 A 
ATOM     24  C   UNL     1       2.874  -2.038   1.280  0.00  0.00    +0.020 A 
ATOM     25  C   UNL     1       3.275  -2.639   2.551  0.00  0.00    +0.003 A 
ATOM     26  C   UNL     1       4.336  -2.111   3.297  0.00  0.00    +0.059 A 
ATOM     27  C   UNL     1       4.695  -2.701   4.490  0.00  0.00    +0.163 A 
ATOM     28  C   UNL     1       4.004  -3.823   4.957  0.00  0.00    +0.164 A 
ATOM     29  C   UNL     1       2.954  -4.352   4.226  0.00  0.00    +0.075 A 
ATOM     30  C   UNL     1       2.580  -3.770   3.022  0.00  0.00    +0.053 A 
ATOM     31  N   UNL     1       1.537  -4.285   2.280  0.00  0.00    -0.322 N 
ATOM     32  H   UNL     1       1.044  -5.089   2.614  0.00  0.00    +0.169 HD
ATOM     33  C   UNL     1       1.173  -3.722   1.114  0.00  0.00    +0.254 A 
ATOM     34  O   UNL     1       0.246  -4.204   0.485  0.00  0.00    -0.268 OA
ATOM     35  O   UNL     1       4.349  -4.409   6.135  0.00  0.00    -0.485 OA
ATOM     36  C   UNL     1       5.641  -4.086   6.661  0.00  0.00    +0.270 C 
ATOM     37  C   UNL     1       5.828  -2.565   6.577  0.00  0.00    +0.270 C 
ATOM     38  O   UNL     1       5.731  -2.177   5.203  0.00  0.00    -0.485 OA
ENDBRANCH  22  23
ENDBRANCH   1  22
TORSDOF 11
