REMARK  Name = ZINC39523416
REMARK  4 active torsions:
REMARK  status: ('A' for Active; 'I' for Inactive)
REMARK    1  A    between atoms: C_4  and  O_7
REMARK    2  A    between atoms: O_7  and  S_8
REMARK    3  A    between atoms: S_8  and  C_11
REMARK    4  A    between atoms: N_17  and  O_18
REMARK                            x       y       z     vdW  Elec       q    Type
REMARK                         _______ _______ _______ _____ _____    ______ ____
ROOT
ATOM      1  C   UNL     1       3.008  -2.422   1.830  0.00  0.00    +0.266 C 
ATOM      2  C   UNL     1       1.537  -2.094   1.562  0.00  0.00    +0.048 C 
ATOM      3  C   UNL     1       0.670  -3.287   1.972  0.00  0.00    +0.005 C 
ATOM      4  C   UNL     1       0.917  -3.603   3.450  0.00  0.00    +0.025 C 
ATOM      5  C   UNL     1       2.405  -3.888   3.664  0.00  0.00    +0.050 C 
ATOM      6  N   UNL     1       3.192  -2.716   3.257  0.00  0.00    -0.157 NA
ATOM      7  C   UNL     1       2.658  -4.183   5.144  0.00  0.00    +0.025 C 
ATOM      8  C   UNL     1       1.835  -5.402   5.569  0.00  0.00    +0.003 C 
ATOM      9  C   UNL     1       2.248  -6.612   4.729  0.00  0.00    +0.019 C 
ATOM     10  C   UNL     1       1.996  -6.317   3.249  0.00  0.00    +0.082 C 
ATOM     11  C   UNL     1       2.818  -5.098   2.825  0.00  0.00    +0.044 C 
ATOM     12 CL   UNL     1       2.483  -7.744   2.260  0.00  0.00    -0.122 Cl
ENDROOT
BRANCH   1  13
ATOM     13  S   UNL     1       4.038  -1.003   1.368  0.00  0.00    +0.139 S 
ATOM     14  O   UNL     1       5.406  -1.386   1.321  0.00  0.00    -0.135 OA
ATOM     15  O   UNL     1       3.634   0.152   2.091  0.00  0.00    -0.135 OA
BRANCH  13  16
ATOM     16  O   UNL     1       3.668  -0.705  -0.078  0.00  0.00    -0.345 OA
BRANCH  16  20
ATOM     17  C   UNL     1       5.253  -3.369  -2.800  0.00  0.00    +0.000 A 
ATOM     18  C   UNL     1       4.012  -3.610  -2.241  0.00  0.00    +0.004 A 
ATOM     19  C   UNL     1       3.479  -2.720  -1.329  0.00  0.00    +0.048 A 
ATOM     20  C   UNL     1       4.191  -1.583  -0.974  0.00  0.00    +0.156 A 
ATOM     21  C   UNL     1       5.436  -1.343  -1.536  0.00  0.00    +0.048 A 
ATOM     22  C   UNL     1       5.965  -2.236  -2.448  0.00  0.00    +0.004 A 
ENDBRANCH  16  20
ENDBRANCH  13  16
ENDBRANCH   1  13
BRANCH   6  23
ATOM     23  O   UNL     1       4.608  -2.900   3.576  0.00  0.00    -0.310 OA
ATOM     24  H   UNL     1       5.167  -2.151   3.330  0.00  0.00    +0.237 HD
ENDBRANCH   6  23
TORSDOF 4
