REMARK  Name = ZINC40397155
REMARK  5 active torsions:
REMARK  status: ('A' for Active; 'I' for Inactive)
REMARK    1  A    between atoms: C_3  and  S_15
REMARK    2  A    between atoms: C_6  and  C_7
REMARK    3  A    between atoms: C_7  and  C_9
REMARK    4  A    between atoms: C_7  and  N_14
REMARK    5  A    between atoms: S_15  and  C_16
REMARK                            x       y       z     vdW  Elec       q    Type
REMARK                         _______ _______ _______ _____ _____    ______ ____
ROOT
ATOM      1  C   UNL     1      -0.017   1.379   0.010  0.00  0.00    +0.003 A 
ATOM      2  C   UNL     1       1.169   2.087   0.002  0.00  0.00    +0.015 A 
ATOM      3  C   UNL     1       2.381   1.409  -0.013  0.00  0.00    +0.016 A 
ATOM      4  C   UNL     1       2.396   0.019  -0.021  0.00  0.00    +0.015 A 
ATOM      5  C   UNL     1       1.207  -0.683  -0.013  0.00  0.00    +0.003 A 
ATOM      6  C   UNL     1       0.002  -0.004   0.002  0.00  0.00    -0.054 A 
ENDROOT
BRANCH   6   7
ATOM      7  C   UNL     1      -1.294  -0.773   0.010  0.00  0.00    +0.029 C 
BRANCH   7   8
ATOM      8  C   UNL     1      -1.613  -1.234  -1.389  0.00  0.00    +0.167 A 
ATOM      9  N   UNL     1      -1.036  -2.232  -2.043  0.00  0.00    -0.113 NA
ATOM     10  N   UNL     1      -1.588  -2.307  -3.205  0.00  0.00    -0.021 NA
ATOM     11  N   UNL     1      -2.490  -1.393  -3.301  0.00  0.00    -0.021 NA
ATOM     12  N   UNL     1      -2.529  -0.725  -2.199  0.00  0.00    -0.113 NA
ENDBRANCH   7   8
BRANCH   7  13
ATOM     13  N   UNL     1      -1.165  -1.940   0.893  0.00  0.00    +0.387 N 
ATOM     14  H   UNL     1      -2.032  -2.456   0.898  0.00  0.00    -0.089 HD
ATOM     15  H   UNL     1      -0.422  -2.536   0.557  0.00  0.00    -0.089 HD
ATOM     16  H   UNL     1      -0.951  -1.632   1.829  0.00  0.00    -0.089 HD
ENDBRANCH   7  13
ENDBRANCH   6   7
BRANCH   3  17
ATOM     17  S   UNL     1       3.897   2.308  -0.023  0.00  0.00    -0.016 S 
BRANCH  17  18
ATOM     18  C   UNL     1       5.172   1.019  -0.042  0.00  0.00    +0.448 C 
ATOM     19  F   UNL     1       5.020   0.229  -1.187  0.00  0.00    -0.160 F 
ATOM     20  F   UNL     1       6.438   1.615  -0.051  0.00  0.00    -0.160 F 
ATOM     21  F   UNL     1       5.043   0.218   1.097  0.00  0.00    -0.160 F 
ENDBRANCH  17  18
ENDBRANCH   3  17
TORSDOF 5
