REMARK  Name = ZINC38140738
REMARK  9 active torsions:
REMARK  status: ('A' for Active; 'I' for Inactive)
REMARK    1  A    between atoms: C_1  and  C_2
REMARK    2  A    between atoms: C_7  and  C_9
REMARK    3  A    between atoms: C_7  and  C_10
REMARK    4  A    between atoms: N_13  and  C_17
REMARK    5  A    between atoms: C_17  and  C_18
REMARK    6  A    between atoms: N_20  and  C_21
REMARK    7  A    between atoms: C_21  and  C_22
REMARK    8  A    between atoms: C_22  and  C_24
REMARK    9  A    between atoms: C_22  and  N_29
REMARK                            x       y       z     vdW  Elec       q    Type
REMARK                         _______ _______ _______ _____ _____    ______ ____
ROOT
ATOM      1  C   UNL     1      -2.271  -6.016  -2.469  0.00  0.00    +0.231 C 
ATOM      2  O   UNL     1      -2.179  -6.504  -1.363  0.00  0.00    -0.274 OA
ATOM      3  N   UNL     1      -1.791  -6.678  -3.540  0.00  0.00    -0.315 N 
ATOM      4  H   UNL     1      -1.865  -6.287  -4.425  0.00  0.00    +0.149 HD
ENDROOT
BRANCH   1   5
ATOM      5  C   UNL     1      -2.923  -4.668  -2.646  0.00  0.00    +0.213 C 
BRANCH   5  17
ATOM      6  C   UNL     1      -2.443   0.315   1.867  0.00  0.00    +0.007 C 
ATOM      7  C   UNL     1      -2.249  -1.176   1.575  0.00  0.00    -0.011 C 
ATOM      8  C   UNL     1      -3.571  -1.771   1.087  0.00  0.00    +0.038 C 
ATOM      9  C   UNL     1      -3.377  -3.243   0.747  0.00  0.00    +0.113 C 
ATOM     10  C   UNL     1      -2.779  -4.038   1.890  0.00  0.00    +0.041 C 
ATOM     11  C   UNL     1      -1.611  -3.380   2.605  0.00  0.00    -0.032 C 
ATOM     12  C   UNL     1      -1.839  -1.895   2.859  0.00  0.00    +0.009 C 
ATOM     13  C   UNL     1      -1.440  -4.071   3.975  0.00  0.00    +0.011 C 
ATOM     14  C   UNL     1      -0.311  -3.587   1.823  0.00  0.00    +0.011 C 
ATOM     15  C   UNL     1      -2.591  -3.401  -0.531  0.00  0.00    +0.247 C 
ATOM     16  O   UNL     1      -1.506  -2.934  -0.807  0.00  0.00    -0.273 OA
ATOM     17  N   UNL     1      -3.358  -4.161  -1.343  0.00  0.00    -0.215 N 
ATOM     18  C   UNL     1      -4.561  -4.391  -0.806  0.00  0.00    +0.310 C 
ATOM     19  O   UNL     1      -5.432  -5.039  -1.353  0.00  0.00    -0.252 OA
ATOM     20  N   UNL     1      -4.695  -3.828   0.407  0.00  0.00    -0.285 N 
ATOM     21  H   UNL     1      -5.488  -3.801   0.961  0.00  0.00    +0.151 HD
ENDBRANCH   5  17
ENDBRANCH   1   5
BRANCH   3  22
ATOM     22  C   UNL     1      -1.157  -7.987  -3.368  0.00  0.00    +0.096 C 
BRANCH  22  23
ATOM     23  C   UNL     1      -0.821  -8.576  -4.740  0.00  0.00    +0.016 C 
BRANCH  23  24
ATOM     24  N   UNL     1      -2.044  -8.655  -5.551  0.00  0.00    +0.387 N 
ATOM     25  C   UNL     1      -3.062  -9.422  -4.824  0.00  0.00    -0.078 C 
ATOM     26  C   UNL     1      -4.364  -9.439  -5.629  0.00  0.00    -0.019 C 
ATOM     27  C   UNL     1      -4.107 -10.091  -6.991  0.00  0.00    -0.004 C 
ATOM     28  C   UNL     1      -2.991  -9.326  -7.709  0.00  0.00    -0.019 C 
ATOM     29  C   UNL     1      -1.740  -9.314  -6.827  0.00  0.00    -0.078 C 
ATOM     30  H   UNL     1      -2.389  -7.724  -5.728  0.00  0.00    -0.081 HD
ENDBRANCH  23  24
BRANCH  23  31
ATOM     31  C   UNL     1      -0.243  -9.956  -4.566  0.00  0.00    +0.093 A 
ATOM     32  C   UNL     1       1.043 -10.301  -4.760  0.00  0.00    +0.043 A 
ATOM     33  C   UNL     1       1.142 -11.684  -4.486  0.00  0.00    +0.041 A 
ATOM     34  C   UNL     1      -0.089 -12.103  -4.143  0.00  0.00    +0.195 A 
ATOM     35  O   UNL     1      -0.923 -11.051  -4.187  0.00  0.00    -0.469 OA
ENDBRANCH  23  31
ENDBRANCH  22  23
ENDBRANCH   3  22
TORSDOF 6
