REMARK  Name = ZINC45330884
REMARK  4 active torsions:
REMARK  status: ('A' for Active; 'I' for Inactive)
REMARK    1  A    between atoms: C_1  and  C_2
REMARK    2  A    between atoms: N_12  and  N_13
REMARK    3  A    between atoms: C_14  and  C_15
REMARK    4  A    between atoms: C_18  and  C_20
REMARK                            x       y       z     vdW  Elec       q    Type
REMARK                         _______ _______ _______ _____ _____    ______ ____
ROOT
ATOM      1  N   UNL     1       0.024   0.079   2.388  0.00  0.00    -0.167 NA
ATOM      2  C   UNL     1      -0.055  -0.537   3.533  0.00  0.00    +0.179 C 
ENDROOT
BRANCH   1  14
ATOM      3  C   UNL     1       2.335   0.111   0.859  0.00  0.00    +0.088 C 
ATOM      4  C   UNL     1       1.129  -0.673   0.409  0.00  0.00    +0.132 A 
ATOM      5  N   UNL     1       1.203  -1.334  -0.707  0.00  0.00    -0.232 NA
ATOM      6  C   UNL     1       0.158  -2.060  -1.173  0.00  0.00    +0.078 A 
ATOM      7  C   UNL     1       0.235  -2.773  -2.372  0.00  0.00    +0.028 A 
ATOM      8  C   UNL     1      -0.854  -3.496  -2.803  0.00  0.00    +0.002 A 
ATOM      9  C   UNL     1      -2.027  -3.526  -2.061  0.00  0.00    +0.001 A 
ATOM     10  C   UNL     1      -2.128  -2.837  -0.884  0.00  0.00    +0.015 A 
ATOM     11  C   UNL     1      -1.040  -2.097  -0.424  0.00  0.00    +0.067 A 
ATOM     12  C   UNL     1      -1.092  -1.338   0.833  0.00  0.00    +0.282 A 
ATOM     13  O   UNL     1      -2.094  -1.329   1.525  0.00  0.00    -0.265 OA
ATOM     14  N   UNL     1       0.019  -0.656   1.195  0.00  0.00    -0.182 N 
ENDBRANCH   1  14
BRANCH   2  15
ATOM     15  C   UNL     1      -0.164   0.233   4.772  0.00  0.00    +0.148 A 
ATOM     16  C   UNL     1      -0.248  -0.289   6.045  0.00  0.00    +0.051 A 
ATOM     17  C   UNL     1      -0.336   0.798   6.923  0.00  0.00    +0.050 A 
ATOM     18  C   UNL     1      -0.302   1.930   6.163  0.00  0.00    +0.136 A 
ATOM     19  O   UNL     1      -0.192   1.578   4.869  0.00  0.00    -0.454 OA
BRANCH  18  20
ATOM     20  C   UNL     1      -0.368   3.313   6.676  0.00  0.00    +0.017 A 
ATOM     21  C   UNL     1      -0.470   3.547   8.050  0.00  0.00    +0.013 A 
ATOM     22  C   UNL     1      -0.531   4.842   8.522  0.00  0.00    +0.021 A 
ATOM     23  C   UNL     1      -0.492   5.907   7.639  0.00  0.00    +0.041 A 
ATOM     24  C   UNL     1      -0.391   5.681   6.276  0.00  0.00    +0.021 A 
ATOM     25  C   UNL     1      -0.324   4.392   5.791  0.00  0.00    +0.013 A 
ATOM     26 CL   UNL     1      -0.571   7.533   8.242  0.00  0.00    -0.084 Cl
ENDBRANCH  18  20
ENDBRANCH   2  15
TORSDOF 3
