REMARK  Name = ZINC58278548
REMARK  6 active torsions:
REMARK  status: ('A' for Active; 'I' for Inactive)
REMARK    1  A    between atoms: C_1  and  C_2
REMARK    2  A    between atoms: C_2  and  C_3
REMARK    3  A    between atoms: C_3  and  C_5
REMARK    4  A    between atoms: C_3  and  S_8
REMARK    5  A    between atoms: S_8  and  C_9
REMARK    6  A    between atoms: C_13  and  C_15
REMARK                            x       y       z     vdW  Elec       q    Type
REMARK                         _______ _______ _______ _____ _____    ______ ____
ROOT
ATOM      1  C   UNL     1      -3.926  -0.602  -1.300  0.00  0.00    +0.185 A 
ATOM      2  N   UNL     1      -4.933  -0.471  -2.192  0.00  0.00    -0.253 N 
ATOM      3  H   UNL     1      -4.881  -0.064  -3.071  0.00  0.00    +0.191 HD
ATOM      4  N   UNL     1      -6.069  -1.042  -1.597  0.00  0.00    -0.152 NA
ATOM      5  C   UNL     1      -5.704  -1.475  -0.412  0.00  0.00    +0.183 A 
ATOM      6  N   UNL     1      -4.400  -1.212  -0.237  0.00  0.00    -0.201 NA
ENDROOT
BRANCH   5   7
ATOM      7  C   UNL     1      -6.587  -2.151   0.570  0.00  0.00    +0.035 A 
ATOM      8  C   UNL     1      -6.079  -2.560   1.802  0.00  0.00    +0.013 A 
ATOM      9  C   UNL     1      -6.905  -3.188   2.712  0.00  0.00    +0.001 A 
ATOM     10  C   UNL     1      -8.235  -3.412   2.403  0.00  0.00    +0.001 A 
ATOM     11  C   UNL     1      -8.745  -3.009   1.183  0.00  0.00    +0.016 A 
ATOM     12  C   UNL     1      -7.929  -2.374   0.266  0.00  0.00    +0.029 A 
ATOM     13 BR   UNL     1      -8.629  -1.817  -1.399  0.00  0.00    -0.050 Br
ENDBRANCH   5   7
BRANCH   1  14
ATOM     14  S   UNL     1      -2.265  -0.057  -1.527  0.00  0.00    -0.074 S 
BRANCH  14  15
ATOM     15  C   UNL     1      -1.433  -0.534   0.013  0.00  0.00    +0.139 C 
BRANCH  15  16
ATOM     16  C   UNL     1      -1.414  -2.036   0.129  0.00  0.00    +0.224 C 
ATOM     17  O   UNL     1      -2.097  -2.589   0.964  0.00  0.00    -0.275 OA
ATOM     18  N   UNL     1      -0.636  -2.765  -0.697  0.00  0.00    -0.328 N 
ATOM     19  H   UNL     1      -0.089  -2.323  -1.365  0.00  0.00    +0.145 HD
ATOM     20  H   UNL     1      -0.624  -3.732  -0.622  0.00  0.00    +0.145 HD
ENDBRANCH  15  16
BRANCH  15  22
ATOM     21  C   UNL     1      -0.019   1.526   0.010  0.00  0.00    +0.005 C 
ATOM     22  C   UNL     1       0.002  -0.004   0.002  0.00  0.00    +0.020 C 
ENDBRANCH  15  22
ENDBRANCH  14  15
ENDBRANCH   1  14
TORSDOF 5
