REMARK  Name = ZINC52879865
REMARK  4 active torsions:
REMARK  status: ('A' for Active; 'I' for Inactive)
REMARK    1  A    between atoms: C_1  and  C_2
REMARK    2  A    between atoms: C_2  and  C_3
REMARK    3  A    between atoms: C_2  and  C_9
REMARK    4  A    between atoms: C_2  and  N_12
REMARK                            x       y       z     vdW  Elec       q    Type
REMARK                         _______ _______ _______ _____ _____    ______ ____
ROOT
ATOM      1  C   UNL     1       0.280   1.498  -0.086  0.00  0.00    +0.049 C 
ATOM      2  C   UNL     1       0.002  -0.004   0.002  0.00  0.00    +0.160 C 
ENDROOT
BRANCH   2   3
ATOM      3  N   UNL     1       0.511  -0.666  -1.202  0.00  0.00    -0.280 N 
ATOM      4  C   UNL     1       0.038  -0.299  -2.441  0.00  0.00    +0.290 A 
ATOM      5  N   UNL     1      -0.859   0.629  -2.657  0.00  0.00    -0.195 NA
ATOM      6  C   UNL     1      -1.081   0.718  -3.997  0.00  0.00    +0.111 A 
ATOM      7  C   UNL     1      -1.913   1.514  -4.785  0.00  0.00    +0.031 A 
ATOM      8  C   UNL     1      -1.910   1.360  -6.154  0.00  0.00    +0.002 A 
ATOM      9  C   UNL     1      -1.086   0.419  -6.752  0.00  0.00    +0.004 A 
ATOM     10  C   UNL     1      -0.258  -0.375  -5.984  0.00  0.00    +0.048 A 
ATOM     11  C   UNL     1      -0.248  -0.233  -4.606  0.00  0.00    +0.157 A 
ATOM     12  O   UNL     1       0.434  -0.839  -3.607  0.00  0.00    -0.425 OA
ATOM     13  H   UNL     1       1.182  -1.363  -1.125  0.00  0.00    +0.152 HD
ENDBRANCH   2   3
BRANCH   2  14
ATOM     14  C   UNL     1       0.690  -0.572   1.217  0.00  0.00    -0.013 A 
ATOM     15  C   UNL     1       0.785   0.181   2.372  0.00  0.00    +0.006 A 
ATOM     16  C   UNL     1       1.416  -0.340   3.486  0.00  0.00    +0.000 A 
ATOM     17  C   UNL     1       1.951  -1.614   3.445  0.00  0.00    +0.000 A 
ATOM     18  C   UNL     1       1.855  -2.367   2.290  0.00  0.00    +0.000 A 
ATOM     19  C   UNL     1       1.220  -1.848   1.177  0.00  0.00    +0.006 A 
ENDBRANCH   2  14
BRANCH   2  20
ATOM     20  C   UNL     1      -1.483  -0.234   0.112  0.00  0.00    +0.383 C 
ATOM     21  O   UNL     1      -2.063  -0.891  -0.736  0.00  0.00    -0.244 OA
ATOM     22  O   UNL     1      -2.105   0.236   1.049  0.00  0.00    -0.244 OA
ENDBRANCH   2  20
TORSDOF 3
