REMARK  Name = ZINC26891775
REMARK  4 active torsions:
REMARK  status: ('A' for Active; 'I' for Inactive)
REMARK    1  A    between atoms: C_1  and  N_2
REMARK    2  A    between atoms: C_3  and  C_13
REMARK    3  A    between atoms: C_13  and  S_14
REMARK    4  A    between atoms: S_14  and  C_15
REMARK                            x       y       z     vdW  Elec       q    Type
REMARK                         _______ _______ _______ _____ _____    ______ ____
ROOT
ATOM      1  C   UNL     1      -2.441  -2.763   0.012  0.00  0.00    +0.151 C 
ENDROOT
BRANCH   1   4
ATOM      2  C   UNL     1      -0.053  -4.224  -0.020  0.00  0.00    +0.153 C 
ATOM      3  N   UNL     1       0.020  -2.761  -0.013  0.00  0.00    -0.299 N 
ATOM      4  C   UNL     1      -1.125  -2.030   0.003  0.00  0.00    +0.123 A 
ATOM      5  N   UNL     1      -1.143  -0.731   0.009  0.00  0.00    -0.233 NA
ATOM      6  C   UNL     1       0.002  -0.004   0.002  0.00  0.00    +0.078 A 
ATOM      7  C   UNL     1      -0.017   1.392   0.010  0.00  0.00    +0.028 A 
ATOM      8  C   UNL     1       1.170   2.090   0.002  0.00  0.00    +0.002 A 
ATOM      9  C   UNL     1       2.388   1.423  -0.013  0.00  0.00    +0.001 A 
ATOM     10  C   UNL     1       2.432   0.046  -0.021  0.00  0.00    +0.015 A 
ATOM     11  C   UNL     1       1.242  -0.679  -0.013  0.00  0.00    +0.065 A 
ATOM     12  C   UNL     1       1.228  -2.150  -0.022  0.00  0.00    +0.262 A 
ATOM     13  O   UNL     1       2.262  -2.792  -0.036  0.00  0.00    -0.267 OA
ENDBRANCH   1   4
BRANCH   1  14
ATOM     14  S   UNL     1      -3.799  -1.566   0.031  0.00  0.00    -0.080 S 
BRANCH  14  15
ATOM     15  C   UNL     1      -5.176  -2.665   0.039  0.00  0.00    +0.168 A 
ATOM     16  N   UNL     1      -6.487  -2.281   0.054  0.00  0.00    -0.333 N 
ATOM     17  H   UNL     1      -6.747  -1.212   0.062  0.00  0.00    +0.168 HD
ATOM     18  C   UNL     1      -7.253  -3.436   0.055  0.00  0.00    +0.068 A 
ATOM     19  C   UNL     1      -8.617  -3.684   0.067  0.00  0.00    +0.047 A 
ATOM     20  C   UNL     1      -9.079  -4.985   0.065  0.00  0.00    +0.043 A 
ATOM     21  C   UNL     1      -8.186  -6.047   0.051  0.00  0.00    +0.022 A 
ATOM     22  C   UNL     1      -6.828  -5.818   0.039  0.00  0.00    +0.031 A 
ATOM     23  C   UNL     1      -6.345  -4.507   0.041  0.00  0.00    +0.090 A 
ATOM     24  N   UNL     1      -5.096  -3.973   0.026  0.00  0.00    -0.222 NA
ATOM     25 CL   UNL     1     -10.787  -5.294   0.081  0.00  0.00    -0.083 Cl
ENDBRANCH  14  15
ENDBRANCH   1  14
TORSDOF 3
