REMARK  Name = ZINC45138270
REMARK  7 active torsions:
REMARK  status: ('A' for Active; 'I' for Inactive)
REMARK    1  A    between atoms: C_1  and  C_2
REMARK    2  A    between atoms: C_2  and  C_21
REMARK    3  A    between atoms: C_4  and  N_6
REMARK    4  A    between atoms: N_6  and  S_7
REMARK    5  A    between atoms: S_7  and  C_10
REMARK    6  A    between atoms: C_11  and  N_19
REMARK    7  A    between atoms: N_19  and  N_20
REMARK                            x       y       z     vdW  Elec       q    Type
REMARK                         _______ _______ _______ _____ _____    ______ ____
ROOT
ATOM      1  C   UNL     1       3.966  -0.342   1.722  0.00  0.00    +0.221 A 
ATOM      2  C   UNL     1       4.313  -1.385   0.924  0.00  0.00    +0.179 A 
ATOM      3  N   UNL     1       5.314  -0.995   0.128  0.00  0.00    -0.210 NA
ATOM      4  C   UNL     1       5.617   0.270   0.394  0.00  0.00    +0.141 A 
ATOM      5  N   UNL     1       4.782   0.709   1.388  0.00  0.00    -0.282 N 
ATOM      6  C   UNL     1       4.874   1.987   1.854  0.00  0.00    +0.094 A 
ATOM      7  C   UNL     1       5.786   2.842   1.342  0.00  0.00    +0.018 A 
ATOM      8  C   UNL     1       6.653   2.423   0.321  0.00  0.00    +0.005 A 
ATOM      9  C   UNL     1       6.577   1.147  -0.147  0.00  0.00    +0.047 A 
ENDROOT
BRANCH   1  10
ATOM     10  S   UNL     1       2.702  -0.337   2.949  0.00  0.00    +0.078 S 
ATOM     11  O   UNL     1       3.037   0.689   3.873  0.00  0.00    -0.151 OA
ATOM     12  O   UNL     1       2.516  -1.689   3.345  0.00  0.00    -0.151 OA
BRANCH  10  13
ATOM     13  N   UNL     1       1.300   0.135   2.205  0.00  0.00    -0.185 NA
ATOM     14  H   UNL     1       0.875   0.970   2.457  0.00  0.00    +0.148 HD
BRANCH  13  18
ATOM     15  C   UNL     1      -0.019   1.526   0.010  0.00  0.00    +0.012 C 
ATOM     16  C   UNL     1       0.002  -0.004   0.002  0.00  0.00    -0.016 C 
ATOM     17  C   UNL     1      -0.825  -0.728   1.066  0.00  0.00    +0.029 C 
ATOM     18  C   UNL     1       0.701  -0.708   1.167  0.00  0.00    +0.083 C 
ATOM     19  C   UNL     1       0.102  -0.655  -1.379  0.00  0.00    +0.012 C 
ENDBRANCH  13  18
ENDBRANCH  10  13
ENDBRANCH   1  10
BRANCH   2  20
ATOM     20  N   UNL     1       3.723  -2.655   0.935  0.00  0.00    -0.265 N 
ATOM     21  H   UNL     1       2.999  -2.848   1.551  0.00  0.00    +0.168 HD
BRANCH  20  22
ATOM     22  N   UNL     1       4.166  -3.621   0.077  0.00  0.00    -0.255 NA
ATOM     23  H   UNL     1       5.156  -3.778   0.190  0.00  0.00    +0.140 HD
ATOM     24  H   UNL     1       3.648  -4.479   0.200  0.00  0.00    +0.140 HD
ENDBRANCH  20  22
ENDBRANCH   2  20
TORSDOF 5
