REMARK  Name = ZINC36585258
REMARK  12 active torsions:
REMARK  status: ('A' for Active; 'I' for Inactive)
REMARK    1  A    between atoms: C_1  and  C_2
REMARK    2  A    between atoms: C_5  and  S_8
REMARK    3  A    between atoms: S_8  and  C_11
REMARK    4  A    between atoms: C_11  and  N_12
REMARK    5  A    between atoms: C_13  and  C_15
REMARK    6  A    between atoms: C_15  and  C_17
REMARK    7  A    between atoms: C_15  and  N_22
REMARK    8  A    between atoms: N_22  and  C_32
REMARK    9  A    between atoms: C_23  and  C_25
REMARK   10  A    between atoms: C_32  and  C_33
REMARK   11  A    between atoms: C_32  and  C_34
REMARK   12  A    between atoms: C_32  and  C_35
REMARK                            x       y       z     vdW  Elec       q    Type
REMARK                         _______ _______ _______ _____ _____    ______ ____
ROOT
ATOM      1  C   UNL     1       2.334  -6.815   5.278  0.00  0.00    +0.229 C 
ENDROOT
BRANCH   1   2
ATOM      2  C   UNL     1       2.102  -5.351   5.006  0.00  0.00    +0.134 A 
ATOM      3  C   UNL     1       2.103  -4.370   5.927  0.00  0.00    +0.047 A 
ATOM      4  C   UNL     1       1.845  -3.162   5.239  0.00  0.00    +0.041 A 
ATOM      5  C   UNL     1       1.702  -3.477   3.939  0.00  0.00    +0.195 A 
ATOM      6  O   UNL     1       1.864  -4.803   3.803  0.00  0.00    -0.465 OA
ENDBRANCH   1   2
BRANCH   1   8
ATOM      7  N   UNL     1       0.426  -6.590   6.836  0.00  0.00    -0.294 N 
ATOM      8  C   UNL     1       1.153  -7.381   6.022  0.00  0.00    +0.242 C 
ATOM      9  O   UNL     1       0.855  -8.550   5.889  0.00  0.00    -0.273 OA
ATOM     10  H   UNL     1       0.664  -5.656   6.943  0.00  0.00    +0.150 HD
BRANCH   7  11
ATOM     11  C   UNL     1      -0.722  -7.141   7.560  0.00  0.00    +0.278 C 
BRANCH  11  12
ATOM     12  S   UNL     1      -0.204  -7.643   9.224  0.00  0.00    +0.013 S 
ATOM     13  O   UNL     1       0.996  -8.400   9.156  0.00  0.00    -0.168 OA
ATOM     14  O   UNL     1      -1.321  -8.121   9.961  0.00  0.00    -0.168 OA
BRANCH  12  19
ATOM     15  C   UNL     1       1.369  -2.509  11.976  0.00  0.00    +0.044 C 
ATOM     16  C   UNL     1       0.976  -3.791  11.289  0.00  0.00    -0.050 A 
ATOM     17  C   UNL     1      -0.328  -4.244  11.363  0.00  0.00    +0.005 A 
ATOM     18  C   UNL     1      -0.688  -5.420  10.732  0.00  0.00    +0.027 A 
ATOM     19  C   UNL     1       0.255  -6.143  10.027  0.00  0.00    +0.090 A 
ATOM     20  C   UNL     1       1.559  -5.690   9.952  0.00  0.00    +0.027 A 
ATOM     21  C   UNL     1       1.919  -4.512  10.579  0.00  0.00    +0.005 A 
ENDBRANCH  12  19
ENDBRANCH  11  12
ENDBRANCH   7  11
ENDBRANCH   1   8
BRANCH   1  22
ATOM     22  N   UNL     1       2.499  -7.527   4.008  0.00  0.00    -0.274 N 
ATOM     23  C   UNL     1       3.630  -8.219   3.765  0.00  0.00    +0.248 C 
ATOM     24  O   UNL     1       4.671  -7.888   4.298  0.00  0.00    -0.270 OA
BRANCH  23  25
ATOM     25  C   UNL     1       3.603  -9.380   2.851  0.00  0.00    +0.038 A 
ATOM     26  C   UNL     1       2.969  -9.283   1.611  0.00  0.00    +0.013 A 
ATOM     27  C   UNL     1       2.948 -10.369   0.762  0.00  0.00    +0.002 A 
ATOM     28  C   UNL     1       3.554 -11.556   1.137  0.00  0.00    +0.020 A 
ATOM     29  C   UNL     1       4.186 -11.660   2.364  0.00  0.00    +0.042 A 
ATOM     30  C   UNL     1       4.218 -10.577   3.221  0.00  0.00    +0.033 A 
ATOM     31 CL   UNL     1       4.944 -13.152   2.825  0.00  0.00    -0.084 Cl
ENDBRANCH  23  25
BRANCH  22  32
ATOM     32  C   UNL     1       1.434  -7.487   3.003  0.00  0.00    +0.030 C 
ATOM     33  C   UNL     1       0.209  -6.779   3.585  0.00  0.00    +0.031 C 
ATOM     34  C   UNL     1       1.925  -6.725   1.770  0.00  0.00    +0.031 C 
ATOM     35  C   UNL     1       1.056  -8.914   2.603  0.00  0.00    +0.031 C 
ENDBRANCH  22  32
ENDBRANCH   1  22
TORSDOF 8
