REMARK  Name = ZINC12636456
REMARK  4 active torsions:
REMARK  status: ('A' for Active; 'I' for Inactive)
REMARK    1  A    between atoms: C_8  and  C_10
REMARK    2  A    between atoms: N_12  and  C_13
REMARK    3  A    between atoms: C_13  and  C_14
REMARK    4  A    between atoms: C_16  and  C_19
REMARK                            x       y       z     vdW  Elec       q    Type
REMARK                         _______ _______ _______ _____ _____    ______ ____
ROOT
ATOM      1  C   UNL     1       4.764   2.689  -0.028  0.00  0.00    +0.280 C 
ATOM      2  O   UNL     1       5.447   1.683  -0.040  0.00  0.00    -0.267 OA
ATOM      3  N   UNL     1       5.351   3.902  -0.027  0.00  0.00    -0.303 N 
ATOM      4  H   UNL     1       4.806   4.705  -0.017  0.00  0.00    +0.149 HD
ENDROOT
BRANCH   1  12
ATOM      5  C   UNL     1      -1.203   1.746   0.017  0.00  0.00    +0.001 A 
ATOM      6  C   UNL     1      -1.229   3.134   0.031  0.00  0.00    +0.004 A 
ATOM      7  C   UNL     1      -0.058   3.860   0.023  0.00  0.00    +0.047 A 
ATOM      8  C   UNL     1       1.165   3.201   0.008  0.00  0.00    +0.136 A 
ATOM      9  C   UNL     1       1.186   1.794   0.000  0.00  0.00    +0.021 A 
ATOM     10  C   UNL     1      -0.013   1.076   0.008  0.00  0.00    +0.011 A 
ATOM     11  C   UNL     1       2.599   1.418  -0.015  0.00  0.00    +0.063 A 
ATOM     12  C   UNL     1       3.298   2.583  -0.015  0.00  0.00    +0.190 A 
ATOM     13  O   UNL     1       2.443   3.627  -0.001  0.00  0.00    -0.450 OA
ENDBRANCH   1  12
BRANCH   3  14
ATOM     14  C   UNL     1       6.812   4.009  -0.040  0.00  0.00    +0.163 C 
BRANCH  14  15
ATOM     15  C   UNL     1       7.210   5.462  -0.035  0.00  0.00    +0.101 A 
ATOM     16  C   UNL     1       7.532   6.245   1.093  0.00  0.00    +0.077 A 
ATOM     17  C   UNL     1       7.821   7.475   0.567  0.00  0.00    +0.168 A 
ATOM     18  O   UNL     1       7.655   7.362  -0.763  0.00  0.00    -0.354 OA
ATOM     19  N   UNL     1       7.318   6.243  -1.073  0.00  0.00    -0.081 NA
BRANCH  17  20
ATOM     20  C   UNL     1       8.226   8.686   1.312  0.00  0.00    +0.020 A 
ATOM     21  C   UNL     1       8.349   8.645   2.702  0.00  0.00    +0.013 A 
ATOM     22  C   UNL     1       8.732   9.777   3.391  0.00  0.00    +0.021 A 
ATOM     23  C   UNL     1       8.984  10.954   2.708  0.00  0.00    +0.041 A 
ATOM     24  C   UNL     1       8.858  11.002   1.330  0.00  0.00    +0.021 A 
ATOM     25  C   UNL     1       8.481   9.876   0.629  0.00  0.00    +0.013 A 
ATOM     26 CL   UNL     1       9.459  12.377   3.583  0.00  0.00    -0.084 Cl
ENDBRANCH  17  20
ENDBRANCH  14  15
ENDBRANCH   3  14
TORSDOF 4
