REMARK  Name = ZINC09045311
REMARK  15 active torsions:
REMARK  status: ('A' for Active; 'I' for Inactive)
REMARK    1  A    between atoms: C_1  and  C_2
REMARK    2  A    between atoms: C_2  and  N_64
REMARK    3  A    between atoms: C_3  and  C_4
REMARK    4  A    between atoms: C_3  and  N_64
REMARK    5  A    between atoms: C_5  and  C_6
REMARK    6  A    between atoms: C_5  and  N_64
REMARK    7  A    between atoms: C_6  and  C_7
REMARK    8  A    between atoms: C_7  and  N_8
REMARK    9  A    between atoms: C_9  and  C_24
REMARK   10  A    between atoms: C_12  and  C_13
REMARK   11  A    between atoms: C_12  and  O_19
REMARK   12  A    between atoms: C_16  and  C_18
REMARK   13  A    between atoms: C_27  and  O_30
REMARK   14  A    between atoms: O_30  and  C_31
REMARK   15  A    between atoms: C_31  and  C_32
REMARK                            x       y       z     vdW  Elec       q    Type
REMARK                         _______ _______ _______ _____ _____    ______ ____
ROOT
ATOM      1  N   UNL     1      -1.334  -4.642  -0.204  0.00  0.00    -0.284 N 
ATOM      2  C   UNL     1      -1.970  -3.326  -0.092  0.00  0.00    +0.145 C 
ATOM      3  C   UNL     1      -0.854  -2.319   0.056  0.00  0.00    +0.074 C 
ATOM      4  C   UNL     1      -0.985  -0.944   0.193  0.00  0.00    +0.168 C 
ATOM      5  C   UNL     1       0.338  -3.049   0.022  0.00  0.00    +0.249 C 
ATOM      6  O   UNL     1       1.462  -2.585   0.108  0.00  0.00    -0.282 OA
ATOM      7  C   UNL     1      -0.001  -4.487  -0.136  0.00  0.00    +0.288 C 
ATOM      8  O   UNL     1       0.809  -5.390  -0.198  0.00  0.00    -0.266 OA
ENDROOT
BRANCH   4   9
ATOM      9  C   UNL     1       0.167  -0.120   0.200  0.00  0.00    +0.170 A 
ATOM     10  C   UNL     1       0.352   1.026  -0.548  0.00  0.00    +0.053 A 
ATOM     11  C   UNL     1       1.626   1.512  -0.225  0.00  0.00    +0.045 A 
ATOM     12  C   UNL     1       2.158   0.664   0.686  0.00  0.00    +0.103 A 
ATOM     13  O   UNL     1       1.279  -0.314   0.939  0.00  0.00    -0.457 OA
ATOM     14  C   UNL     1       3.521   0.800   1.316  0.00  0.00    +0.086 C 
ENDBRANCH   4   9
BRANCH   2  15
ATOM     15  C   UNL     1      -2.769  -3.032  -1.335  0.00  0.00    -0.022 A 
ATOM     16  C   UNL     1      -2.280  -3.403  -2.574  0.00  0.00    +0.009 A 
ATOM     17  C   UNL     1      -3.014  -3.140  -3.715  0.00  0.00    +0.046 A 
ATOM     18  C   UNL     1      -4.237  -2.492  -3.618  0.00  0.00    +0.121 A 
ATOM     19  C   UNL     1      -4.723  -2.116  -2.374  0.00  0.00    +0.046 A 
ATOM     20  C   UNL     1      -3.988  -2.387  -1.236  0.00  0.00    +0.009 A 
BRANCH  18  21
ATOM     21  O   UNL     1      -4.958  -2.227  -4.739  0.00  0.00    -0.492 OA
BRANCH  21  22
ATOM     22  C   UNL     1      -4.396  -2.643  -5.985  0.00  0.00    +0.225 C 
ATOM     23  C   UNL     1      -5.343  -2.262  -7.124  0.00  0.00    +0.048 C 
ENDBRANCH  21  22
ENDBRANCH  18  21
ENDBRANCH   2  15
BRANCH   4  24
ATOM     24  O   UNL     1      -2.212  -0.392   0.320  0.00  0.00    -0.503 OA
ATOM     25  H   UNL     1      -2.124   0.601   0.407  0.00  0.00    +0.292 HD
ENDBRANCH   4  24
BRANCH   1  26
ATOM     26  C   UNL     1      -2.036  -5.918  -0.364  0.00  0.00    +0.107 C 
BRANCH  26  27
ATOM     27  C   UNL     1      -2.225  -6.213  -1.853  0.00  0.00    +0.000 C 
BRANCH  27  28
ATOM     28  C   UNL     1      -2.958  -7.545  -2.021  0.00  0.00    -0.077 C 
BRANCH  28  29
ATOM     29  N   UNL     1      -3.151  -7.806  -3.463  0.00  0.00    +0.379 N 
ATOM     30  H   UNL     1      -3.585  -6.981  -3.895  0.00  0.00    -0.082 HD
BRANCH  29  32
ATOM     31  C   UNL     1      -1.195  -9.315  -3.533  0.00  0.00    -0.017 C 
ATOM     32  C   UNL     1      -1.847  -8.057  -4.110  0.00  0.00    -0.082 C 
ENDBRANCH  29  32
BRANCH  29  33
ATOM     33  C   UNL     1      -4.041  -8.971  -3.651  0.00  0.00    -0.082 C 
ATOM     34  C   UNL     1      -4.504  -9.005  -5.109  0.00  0.00    -0.017 C 
ENDBRANCH  29  33
ENDBRANCH  28  29
ENDBRANCH  27  28
ENDBRANCH  26  27
ENDBRANCH   1  26
TORSDOF 11
