REMARK  Name = ZINC01374901
REMARK  14 active torsions:
REMARK  status: ('A' for Active; 'I' for Inactive)
REMARK    1  A    between atoms: C_1  and  C_2
REMARK    2  A    between atoms: C_2  and  C_3
REMARK    3  A    between atoms: C_3  and  C_5
REMARK    4  A    between atoms: C_3  and  N_16
REMARK    5  A    between atoms: N_9  and  C_10
REMARK    6  A    between atoms: C_10  and  C_11
REMARK    7  A    between atoms: C_11  and  O_13
REMARK    8  A    between atoms: O_13  and  C_14
REMARK    9  A    between atoms: C_14  and  C_15
REMARK   10  A    between atoms: N_16  and  C_17
REMARK   11  A    between atoms: N_16  and  C_25
REMARK   12  A    between atoms: C_17  and  C_18
REMARK   13  A    between atoms: C_21  and  C_24
REMARK   14  A    between atoms: C_25  and  C_26
REMARK                            x       y       z     vdW  Elec       q    Type
REMARK                         _______ _______ _______ _____ _____    ______ ____
ROOT
ATOM      1  N   UNL     1       2.145  -0.248  -1.207  0.00  0.00    -0.284 NA
ENDROOT
BRANCH   1   2
ATOM      2  C   UNL     1       0.978  -1.129  -1.347  0.00  0.00    +0.127 C 
BRANCH   2   3
ATOM      3  C   UNL     1       0.286  -0.844  -2.655  0.00  0.00    +0.169 A 
ATOM      4  N   UNL     1       0.858  -0.687  -3.824  0.00  0.00    -0.112 NA
ATOM      5  N   UNL     1      -0.067  -0.459  -4.692  0.00  0.00    -0.023 NA
ATOM      6  N   UNL     1      -1.214  -0.466  -4.106  0.00  0.00    -0.043 NA
ATOM      7  N   UNL     1      -1.038  -0.705  -2.851  0.00  0.00    -0.217 N 
BRANCH   7   8
ATOM      8  C   UNL     1      -2.084  -0.803  -1.829  0.00  0.00    +0.267 C 
BRANCH   8   9
ATOM      9  C   UNL     1      -2.333   0.558  -1.232  0.00  0.00    +0.329 C 
ATOM     10  O   UNL     1      -1.701   1.512  -1.621  0.00  0.00    -0.249 OA
BRANCH   9  11
ATOM     11  O   UNL     1      -3.255   0.710  -0.270  0.00  0.00    -0.464 OA
BRANCH  11  12
ATOM     12  C   UNL     1      -3.439   2.029   0.251  0.00  0.00    +0.229 C 
ATOM     13  C   UNL     1      -4.523   2.005   1.330  0.00  0.00    +0.048 C 
ENDBRANCH  11  12
ENDBRANCH   9  11
ENDBRANCH   8   9
ENDBRANCH   7   8
ENDBRANCH   2   3
BRANCH   2  15
ATOM     14  C   UNL     1       2.114  -2.886   0.018  0.00  0.00    +0.006 C 
ATOM     15  C   UNL     1       1.435  -2.589  -1.320  0.00  0.00    +0.023 C 
ENDBRANCH   2  15
ENDBRANCH   1   2
BRANCH   1  16
ATOM     16  C   UNL     1       2.960  -0.256  -2.429  0.00  0.00    +0.120 C 
BRANCH  16  17
ATOM     17  C   UNL     1       4.322   0.312  -2.128  0.00  0.00    -0.033 A 
ATOM     18  C   UNL     1       4.577   1.652  -2.351  0.00  0.00    +0.005 A 
ATOM     19  C   UNL     1       5.828   2.173  -2.075  0.00  0.00    +0.003 A 
ATOM     20  C   UNL     1       6.823   1.354  -1.575  0.00  0.00    -0.050 A 
ATOM     21  C   UNL     1       6.567   0.014  -1.351  0.00  0.00    +0.003 A 
ATOM     22  C   UNL     1       5.316  -0.506  -1.623  0.00  0.00    +0.005 A 
ATOM     23  C   UNL     1       8.186   1.922  -1.274  0.00  0.00    +0.044 C 
ENDBRANCH  16  17
ENDBRANCH   1  16
BRANCH   1  24
ATOM     24  C   UNL     1       1.734   1.118  -0.857  0.00  0.00    +0.126 C 
BRANCH  24  25
ATOM     25  C   UNL     1       1.583   1.229   0.638  0.00  0.00    +0.031 A 
ATOM     26  C   UNL     1       2.608   1.710   1.388  0.00  0.00    +0.020 A 
ATOM     27  C   UNL     1       2.430   1.806   2.836  0.00  0.00    +0.003 A 
ATOM     28  C   UNL     1       3.453   2.292   3.659  0.00  0.00    +0.059 A 
ATOM     29  C   UNL     1       3.256   2.373   5.021  0.00  0.00    +0.163 A 
ATOM     30  C   UNL     1       2.040   1.972   5.582  0.00  0.00    +0.164 A 
ATOM     31  C   UNL     1       1.024   1.488   4.776  0.00  0.00    +0.075 A 
ATOM     32  C   UNL     1       1.206   1.400   3.402  0.00  0.00    +0.053 A 
ATOM     33  N   UNL     1       0.203   0.920   2.584  0.00  0.00    -0.322 N 
ATOM     34  H   UNL     1      -0.639   0.640   2.974  0.00  0.00    +0.169 HD
ATOM     35  C   UNL     1       0.376   0.840   1.253  0.00  0.00    +0.254 A 
ATOM     36  O   UNL     1      -0.534   0.416   0.561  0.00  0.00    -0.268 OA
ATOM     37  O   UNL     1       1.835   2.057   6.924  0.00  0.00    -0.485 OA
ATOM     38  C   UNL     1       2.999   2.193   7.746  0.00  0.00    +0.270 C 
ATOM     39  C   UNL     1       3.902   3.268   7.128  0.00  0.00    +0.270 C 
ATOM     40  O   UNL     1       4.263   2.846   5.808  0.00  0.00    -0.485 OA
ENDBRANCH  24  25
ENDBRANCH   1  24
TORSDOF 11
