REMARK  Name = ZINC14732948
REMARK  10 active torsions:
REMARK  status: ('A' for Active; 'I' for Inactive)
REMARK    1  A    between atoms: C_1  and  C_2
REMARK    2  A    between atoms: C_3  and  C_10
REMARK    3  A    between atoms: C_10  and  N_68
REMARK    4  A    between atoms: C_12  and  O_28
REMARK    5  A    between atoms: N_15  and  C_19
REMARK    6  A    between atoms: C_19  and  C_20
REMARK    7  A    between atoms: C_20  and  C_21
REMARK    8  A    between atoms: C_21  and  N_22
REMARK    9  A    between atoms: O_28  and  C_29
REMARK   10  A    between atoms: C_29  and  C_30
REMARK                            x       y       z     vdW  Elec       q    Type
REMARK                         _______ _______ _______ _____ _____    ______ ____
ROOT
ATOM      1  C   UNL     1      -1.784   0.895   2.576  0.00  0.00    -0.044 C 
ATOM      2  C   UNL     1      -3.110   0.905   1.839  0.00  0.00    +0.120 C 
ATOM      3  C   UNL     1      -3.051   0.001   0.605  0.00  0.00    +0.137 C 
ATOM      4  N   UNL     1      -2.497   0.780  -0.515  0.00  0.00    -0.301 N 
ATOM      5  C   UNL     1      -1.208   1.133  -0.506  0.00  0.00    +0.199 C 
ATOM      6  O   UNL     1      -0.753   1.782  -1.424  0.00  0.00    -0.278 OA
ATOM      7  C   UNL     1      -0.314   0.725   0.645  0.00  0.00    +0.019 C 
ATOM      8  N   UNL     1      -0.690   1.544   1.823  0.00  0.00    +0.391 N 
ATOM      9  H   UNL     1      -1.014   2.462   1.496  0.00  0.00    -0.080 HD
ENDROOT
BRANCH   8  10
ATOM     10  C   UNL     1       0.479   1.736   2.698  0.00  0.00    -0.021 C 
BRANCH  10  13
ATOM     11  C   UNL     1       0.076   4.812   2.956  0.00  0.00    +0.067 C 
ATOM     12  C   UNL     1       1.183   4.127   2.198  0.00  0.00    +0.059 A 
ATOM     13  C   UNL     1       1.355   2.799   2.088  0.00  0.00    +0.030 A 
ATOM     14  N   UNL     1       2.485   2.582   1.303  0.00  0.00    -0.299 N 
ATOM     15  C   UNL     1       3.203   1.515   0.807  0.00  0.00    +0.100 A 
ATOM     16  C   UNL     1       4.285   1.712   0.056  0.00  0.00    +0.067 A 
ATOM     17  S   UNL     1       4.371   3.495  -0.007  0.00  0.00    -0.058 S 
ATOM     18  C   UNL     1       2.938   3.835   0.987  0.00  0.00    +0.178 A 
ATOM     19  N   UNL     1       2.168   4.739   1.521  0.00  0.00    -0.226 NA
ENDBRANCH  10  13
ENDBRANCH   8  10
BRANCH   4  20
ATOM     20  C   UNL     1      -3.356   1.167  -1.637  0.00  0.00    +0.109 C 
BRANCH  20  21
ATOM     21  C   UNL     1      -3.315   0.077  -2.711  0.00  0.00    +0.038 C 
BRANCH  21  22
ATOM     22  C   UNL     1      -4.213   0.481  -3.882  0.00  0.00    +0.109 C 
BRANCH  22  23
ATOM     23  N   UNL     1      -4.173  -0.562  -4.910  0.00  0.00    -0.301 N 
ATOM     24  C   UNL     1      -3.216  -0.593  -6.022  0.00  0.00    +0.108 C 
ATOM     25  C   UNL     1      -3.257  -2.042  -6.559  0.00  0.00    +0.028 C 
ATOM     26  C   UNL     1      -4.678  -2.489  -6.144  0.00  0.00    +0.097 C 
ATOM     27  C   UNL     1      -5.013  -1.610  -4.959  0.00  0.00    +0.216 C 
ATOM     28  O   UNL     1      -5.908  -1.821  -4.168  0.00  0.00    -0.276 OA
ENDBRANCH  22  23
ENDBRANCH  21  22
ENDBRANCH  20  21
ENDBRANCH   4  20
BRANCH   2  29
ATOM     29  O   UNL     1      -4.138   0.438   2.715  0.00  0.00    -0.372 OA
BRANCH  29  30
ATOM     30  C   UNL     1      -5.421   1.018   2.467  0.00  0.00    +0.195 C 
BRANCH  30  31
ATOM     31  C   UNL     1      -6.423   0.457   3.443  0.00  0.00    -0.022 A 
ATOM     32  C   UNL     1      -7.138  -0.681   3.121  0.00  0.00    +0.006 A 
ATOM     33  C   UNL     1      -8.054  -1.198   4.018  0.00  0.00    +0.000 A 
ATOM     34  C   UNL     1      -8.262  -0.571   5.233  0.00  0.00    +0.000 A 
ATOM     35  C   UNL     1      -7.550   0.570   5.552  0.00  0.00    +0.000 A 
ATOM     36  C   UNL     1      -6.631   1.084   4.657  0.00  0.00    +0.006 A 
ENDBRANCH  30  31
ENDBRANCH  29  30
ENDBRANCH   2  29
TORSDOF 9
