REMARK  Name = ZINC50306096
REMARK  11 active torsions:
REMARK  status: ('A' for Active; 'I' for Inactive)
REMARK    1  A    between atoms: C_1  and  C_2
REMARK    2  A    between atoms: C_2  and  C_3
REMARK    3  A    between atoms: C_3  and  C_4
REMARK    4  A    between atoms: C_4  and  C_5
REMARK    5  A    between atoms: C_5  and  N_6
REMARK    6  A    between atoms: N_6  and  C_7
REMARK    7  A    between atoms: C_7  and  C_8
REMARK    8  A    between atoms: C_7  and  C_9
REMARK    9  A    between atoms: C_10  and  C_12
REMARK   10  A    between atoms: C_13  and  N_19
REMARK   11  A    between atoms: C_14  and  C_18
REMARK                            x       y       z     vdW  Elec       q    Type
REMARK                         _______ _______ _______ _____ _____    ______ ____
ROOT
ATOM      1  N   UNL     1       1.587  -3.908   2.454  0.00  0.00    -0.294 N 
ATOM      2  C   UNL     1       0.700  -4.721   3.061  0.00  0.00    +0.269 C 
ATOM      3  O   UNL     1       0.842  -5.927   3.002  0.00  0.00    -0.268 OA
ENDROOT
BRANCH   2   4
ATOM      4  C   UNL     1      -0.443  -4.148   3.795  0.00  0.00    +0.168 A 
ATOM      5  C   UNL     1      -1.393  -4.864   4.568  0.00  0.00    +0.078 A 
ATOM      6  C   UNL     1      -2.250  -3.924   5.049  0.00  0.00    +0.054 A 
ATOM      7  N   UNL     1      -1.825  -2.721   4.582  0.00  0.00    -0.279 N 
ATOM      8  H   UNL     1      -2.252  -1.870   4.770  0.00  0.00    +0.189 HD
ATOM      9  N   UNL     1      -0.772  -2.872   3.861  0.00  0.00    -0.167 NA
ATOM     10  C   UNL     1      -3.446  -4.170   5.932  0.00  0.00    +0.067 C 
BRANCH   5  11
ATOM     11  N   UNL     1      -1.438  -6.248   4.790  0.00  0.00    -0.355 N 
ATOM     12  H   UNL     1      -0.768  -6.825   4.392  0.00  0.00    +0.142 HD
ATOM     13  H   UNL     1      -2.140  -6.628   5.341  0.00  0.00    +0.142 HD
ENDBRANCH   5  11
ENDBRANCH   2   4
BRANCH   1  14
ATOM     14  C   UNL     1       2.659  -4.476   1.632  0.00  0.00    +0.070 C 
ATOM     15  C   UNL     1       3.559  -5.354   2.503  0.00  0.00    +0.028 C 
ATOM     16  C   UNL     1       2.049  -5.323   0.513  0.00  0.00    +0.028 C 
ENDBRANCH   1  14
BRANCH   1  17
ATOM     17  C   UNL     1       1.480  -2.456   2.616  0.00  0.00    +0.108 C 
BRANCH  17  18
ATOM     18  C   UNL     1       0.514  -1.895   1.571  0.00  0.00    +0.019 C 
BRANCH  18  19
ATOM     19  C   UNL     1       0.402  -0.379   1.741  0.00  0.00    +0.001 C 
BRANCH  19  21
ATOM     20  C   UNL     1      -0.676   1.698   0.866  0.00  0.00    +0.004 C 
ATOM     21  C   UNL     1      -0.565   0.181   0.696  0.00  0.00    -0.003 C 
ENDBRANCH  19  21
ENDBRANCH  18  19
ENDBRANCH  17  18
ENDBRANCH   1  17
TORSDOF 7
