REMARK  Name = ZINC39958100
REMARK  10 active torsions:
REMARK  status: ('A' for Active; 'I' for Inactive)
REMARK    1  A    between atoms: C_1  and  C_2
REMARK    2  A    between atoms: C_5  and  O_9
REMARK    3  A    between atoms: C_7  and  C_8
REMARK    4  A    between atoms: O_9  and  C_10
REMARK    5  A    between atoms: C_10  and  C_11
REMARK    6  A    between atoms: C_11  and  N_12
REMARK    7  A    between atoms: C_14  and  C_21
REMARK    8  A    between atoms: C_23  and  C_34
REMARK    9  A    between atoms: C_24  and  N_33
REMARK   10  A    between atoms: C_29  and  C_32
REMARK                            x       y       z     vdW  Elec       q    Type
REMARK                         _______ _______ _______ _____ _____    ______ ____
ROOT
ATOM      1  N   UNL     1       0.081  -6.947  -2.414  0.00  0.00    -0.343 N 
ATOM      2  C   UNL     1      -1.033  -7.396  -3.070  0.00  0.00    +0.091 A 
ATOM      3  C   UNL     1      -0.683  -7.948  -4.242  0.00  0.00    -0.010 A 
ATOM      4  C   UNL     1       0.775  -7.843  -4.346  0.00  0.00    +0.004 A 
ATOM      5  C   UNL     1       1.203  -7.199  -3.171  0.00  0.00    +0.049 A 
ATOM      6  C   UNL     1       2.559  -6.952  -2.985  0.00  0.00    +0.026 A 
ATOM      7  C   UNL     1       3.463  -7.336  -3.951  0.00  0.00    +0.002 A 
ATOM      8  C   UNL     1       3.035  -7.968  -5.111  0.00  0.00    +0.001 A 
ATOM      9  C   UNL     1       1.709  -8.228  -5.310  0.00  0.00    +0.010 A 
ENDROOT
BRANCH   3  10
ATOM     10  C   UNL     1      -1.613  -8.559  -5.258  0.00  0.00    +0.100 C 
ATOM     11  C   UNL     1      -2.640  -7.538  -5.711  0.00  0.00    +0.098 C 
ATOM     12  C   UNL     1      -3.941  -7.641  -5.367  0.00  0.00    +0.195 C 
ATOM     13  O   UNL     1      -4.504  -8.618  -4.634  0.00  0.00    -0.448 OA
ATOM     14  C   UNL     1      -3.643  -9.382  -3.786  0.00  0.00    +0.343 C 
ATOM     15  C   UNL     1      -2.402  -9.678  -4.635  0.00  0.00    +0.030 C 
ATOM     16  C   UNL     1      -2.294 -10.983  -4.643  0.00  0.00    +0.066 C 
ATOM     17  N   UNL     1      -3.351 -11.547  -4.005  0.00  0.00    -0.155 NA
ATOM     18  N   UNL     1      -4.167 -10.723  -3.513  0.00  0.00    -0.138 NA
ATOM     19  C   UNL     1      -1.159 -11.750  -5.271  0.00  0.00    +0.067 C 
BRANCH  12  20
ATOM     20  N   UNL     1      -4.775  -6.645  -5.811  0.00  0.00    -0.329 N 
ATOM     21  H   UNL     1      -4.420  -5.916  -6.343  0.00  0.00    +0.145 HD
ATOM     22  H   UNL     1      -5.720  -6.671  -5.591  0.00  0.00    +0.145 HD
ENDBRANCH  12  20
BRANCH  11  23
ATOM     23  C   UNL     1      -2.218  -6.437  -6.524  0.00  0.00    +0.101 C 
ATOM     24  N   UNL     1      -1.884  -5.564  -7.169  0.00  0.00    -0.191 NA
ENDBRANCH  11  23
ENDBRANCH   3  10
BRANCH   1  25
ATOM     25  C   UNL     1       0.079  -6.289  -1.105  0.00  0.00    +0.162 C 
BRANCH  25  26
ATOM     26  C   UNL     1       0.058  -4.771  -1.298  0.00  0.00    +0.250 C 
BRANCH  26  27
ATOM     27  O   UNL     1       0.057  -4.129  -0.021  0.00  0.00    -0.490 OA
BRANCH  27  32
ATOM     28  C   UNL     1      -0.018   1.503   0.010  0.00  0.00    +0.044 C 
ATOM     29  C   UNL     1       0.002  -0.004   0.002  0.00  0.00    -0.047 A 
ATOM     30  C   UNL     1       0.006  -0.688  -1.200  0.00  0.00    +0.007 A 
ATOM     31  C   UNL     1       0.024  -2.069  -1.210  0.00  0.00    +0.046 A 
ATOM     32  C   UNL     1       0.039  -2.770  -0.013  0.00  0.00    +0.121 A 
ATOM     33  C   UNL     1       0.036  -2.082   1.191  0.00  0.00    +0.049 A 
ATOM     34  C   UNL     1       0.023  -0.701   1.196  0.00  0.00    -0.044 A 
ATOM     35  C   UNL     1       0.025   0.048   2.504  0.00  0.00    +0.044 C 
ENDBRANCH  27  32
ENDBRANCH  26  27
ENDBRANCH  25  26
ENDBRANCH   1  25
TORSDOF 7
