REMARK  Name = ZINC64215325
REMARK  8 active torsions:
REMARK  status: ('A' for Active; 'I' for Inactive)
REMARK    1  A    between atoms: C_1  and  C_2
REMARK    2  A    between atoms: C_9  and  C_14
REMARK    3  A    between atoms: N_16  and  C_17
REMARK    4  A    between atoms: C_17  and  C_19
REMARK    5  A    between atoms: C_17  and  C_29
REMARK    6  A    between atoms: C_19  and  C_20
REMARK    7  A    between atoms: C_29  and  O_31
REMARK    8  A    between atoms: O_31  and  C_32
REMARK                            x       y       z     vdW  Elec       q    Type
REMARK                         _______ _______ _______ _____ _____    ______ ____
ROOT
ATOM      1  C   UNL     1       6.624   0.407  -0.018  0.00  0.00    +0.245 C 
ATOM      2  O   UNL     1       6.963   0.377  -1.185  0.00  0.00    -0.270 OA
ATOM      3  N   UNL     1       7.532   0.673   0.942  0.00  0.00    -0.298 N 
ATOM      4  H   UNL     1       7.261   0.697   1.873  0.00  0.00    +0.150 HD
ENDROOT
BRANCH   1  12
ATOM      5  C   UNL     1      -0.019   1.526   0.010  0.00  0.00    +0.029 C 
ATOM      6  C   UNL     1       0.002  -0.004   0.002  0.00  0.00    +0.134 C 
ATOM      7  C   UNL     1       0.712  -0.492  -1.231  0.00  0.00    +0.230 C 
ATOM      8  O   UNL     1       0.043  -0.768  -2.205  0.00  0.00    -0.274 OA
ATOM      9  N   UNL     1       2.031  -0.636  -1.313  0.00  0.00    -0.284 N 
ATOM     10  C   UNL     1       2.955  -0.360  -0.308  0.00  0.00    +0.048 A 
ATOM     11  C   UNL     1       4.277  -0.121  -0.647  0.00  0.00    +0.037 A 
ATOM     12  C   UNL     1       5.218   0.154   0.348  0.00  0.00    +0.039 A 
ATOM     13  C   UNL     1       4.829   0.189   1.691  0.00  0.00    +0.014 A 
ATOM     14  C   UNL     1       3.514  -0.047   2.029  0.00  0.00    +0.017 A 
ATOM     15  C   UNL     1       2.579  -0.318   1.039  0.00  0.00    +0.030 A 
ATOM     16  S   UNL     1       0.888  -0.610   1.470  0.00  0.00    -0.111 S 
ATOM     17  H   UNL     1       2.385  -0.967  -2.154  0.00  0.00    +0.155 HD
ENDBRANCH   1  12
BRANCH   3  18
ATOM     18  C   UNL     1       8.929   0.924   0.578  0.00  0.00    +0.186 C 
BRANCH  18  19
ATOM     19  C   UNL     1       9.100   2.377   0.216  0.00  0.00    +0.328 C 
ATOM     20  O   UNL     1       8.152   3.126   0.258  0.00  0.00    -0.249 OA
BRANCH  19  21
ATOM     21  O   UNL     1      10.305   2.840  -0.152  0.00  0.00    -0.467 OA
ATOM     22  C   UNL     1      10.394   4.228  -0.481  0.00  0.00    +0.280 C 
ENDBRANCH  19  21
ENDBRANCH  18  19
BRANCH  18  23
ATOM     23  C   UNL     1       9.834   0.584   1.764  0.00  0.00    +0.067 C 
BRANCH  23  24
ATOM     24  C   UNL     1       9.756  -0.894   2.048  0.00  0.00    -0.039 C 
ATOM     25  C   UNL     1      10.598  -1.853   1.601  0.00  0.00    -0.001 A 
ATOM     26  C   UNL     1      11.792  -1.810   0.749  0.00  0.00    +0.010 A 
ATOM     27  C   UNL     1      12.441  -2.963   0.468  0.00  0.00    +0.001 A 
ATOM     28  C   UNL     1      12.001  -4.196   0.969  0.00  0.00    +0.002 A 
ATOM     29  C   UNL     1      10.913  -4.316   1.758  0.00  0.00    +0.026 A 
ATOM     30  C   UNL     1      10.155  -3.168   2.118  0.00  0.00    +0.043 A 
ATOM     31  N   UNL     1       9.081  -3.026   2.856  0.00  0.00    -0.380 N 
ATOM     32  C   UNL     1       8.724  -1.604   2.895  0.00  0.00    +0.144 C 
ATOM     33  H   UNL     1       8.604  -3.742   3.304  0.00  0.00    +0.160 HD
ENDBRANCH  23  24
ENDBRANCH  18  23
ENDBRANCH   3  18
TORSDOF 6
