REMARK  Name = ZINC67587482
REMARK  2 active torsions:
REMARK  status: ('A' for Active; 'I' for Inactive)
REMARK    1  A    between atoms: C_4  and  C_6
REMARK    2  A    between atoms: C_18  and  C_20
REMARK                            x       y       z     vdW  Elec       q    Type
REMARK                         _______ _______ _______ _____ _____    ______ ____
ROOT
ATOM      1  C   UNL     1       1.126  -1.241  -1.874  0.00  0.00    +0.081 C 
ATOM      2  C   UNL     1       0.478  -2.596  -1.517  0.00  0.00    +0.024 C 
ATOM      3  C   UNL     1      -0.525  -2.818  -2.680  0.00  0.00    +0.021 C 
ATOM      4  C   UNL     1      -1.002  -1.371  -2.960  0.00  0.00    +0.110 C 
ATOM      5  N   UNL     1       0.199  -0.532  -2.769  0.00  0.00    -0.282 N 
ATOM      6  C   UNL     1       0.411   0.679  -3.320  0.00  0.00    +0.308 C 
ATOM      7  O   UNL     1       1.478   1.239  -3.164  0.00  0.00    -0.252 OA
ATOM      8  N   UNL     1      -0.561   1.270  -4.043  0.00  0.00    -0.247 N 
ATOM      9  C   UNL     1      -0.343   2.520  -4.612  0.00  0.00    +0.189 A 
ATOM     10  N   UNL     1       0.735   3.278  -4.564  0.00  0.00    -0.125 NA
ATOM     11  N   UNL     1       0.786   4.403  -5.137  0.00  0.00    -0.139 NA
ATOM     12  C   UNL     1      -0.268   4.832  -5.802  0.00  0.00    +0.169 A 
ATOM     13  S   UNL     1      -1.383   3.459  -5.548  0.00  0.00    -0.030 S 
ATOM     14  H   UNL     1      -1.413   0.823  -4.167  0.00  0.00    +0.158 HD
ENDROOT
BRANCH   1  18
ATOM     15  C   UNL     1       1.375  -1.407   1.663  0.00  0.00    +0.000 C 
ATOM     16  C   UNL     1       0.343  -0.254   1.614  0.00  0.00    +0.000 C 
ATOM     17  C   UNL     1       0.003  -0.163   0.105  0.00  0.00    +0.005 C 
ATOM     18  C   UNL     1       1.350  -0.421  -0.602  0.00  0.00    +0.010 C 
ATOM     19  C   UNL     1       2.222  -1.212   0.388  0.00  0.00    +0.005 C 
ENDBRANCH   1  18
BRANCH  12  20
ATOM     20  C   UNL     1      -0.473   6.116  -6.564  0.00  0.00    +0.398 C 
ATOM     21  F   UNL     1       0.752   6.553  -7.080  0.00  0.00    -0.202 F 
ATOM     22  F   UNL     1      -1.370   5.896  -7.615  0.00  0.00    -0.202 F 
ENDBRANCH  12  20
TORSDOF 2
