REMARK  Name = ZINC39529555
REMARK  12 active torsions:
REMARK  status: ('A' for Active; 'I' for Inactive)
REMARK    1  A    between atoms: C_1  and  C_2
REMARK    2  A    between atoms: C_2  and  C_3
REMARK    3  A    between atoms: C_2  and  C_4
REMARK    4  A    between atoms: C_4  and  C_5
REMARK    5  A    between atoms: C_7  and  S_28
REMARK    6  A    between atoms: C_10  and  N_11
REMARK    7  A    between atoms: C_15  and  S_18
REMARK    8  A    between atoms: S_18  and  O_21
REMARK    9  A    between atoms: O_21  and  C_22
REMARK   10  A    between atoms: S_28  and  C_31
REMARK   11  A    between atoms: C_31  and  C_32
REMARK   12  A    between atoms: C_31  and  C_33
REMARK                            x       y       z     vdW  Elec       q    Type
REMARK                         _______ _______ _______ _____ _____    ______ ____
ROOT
ATOM      1  N   UNL     1      -1.583  -2.209   2.182  0.00  0.00    -0.331 N 
ATOM      2  C   UNL     1      -2.858  -1.853   2.823  0.00  0.00    +0.086 C 
ATOM      3  C   UNL     1      -2.939  -2.568   4.176  0.00  0.00    -0.061 C 
ATOM      4  N   UNL     1      -1.749  -2.243   4.972  0.00  0.00    +0.398 N 
ATOM      5  C   UNL     1      -0.547  -2.773   4.316  0.00  0.00    +0.133 C 
ATOM      6  C   UNL     1      -0.349  -2.074   2.971  0.00  0.00    +0.115 C 
ATOM      7  H   UNL     1      -1.668  -1.241   5.060  0.00  0.00    -0.083 HD
ATOM      8  H   UNL     1      -1.837  -2.652   5.890  0.00  0.00    -0.083 HD
ENDROOT
BRANCH   1  14
ATOM      9  C   UNL     1      -1.398  -1.769  -0.183  0.00  0.00    -0.024 A 
ATOM     10  C   UNL     1      -1.355  -2.227  -1.485  0.00  0.00    +0.032 A 
ATOM     11  C   UNL     1      -1.466  -3.580  -1.748  0.00  0.00    +0.089 A 
ATOM     12  C   UNL     1      -1.619  -4.479  -0.708  0.00  0.00    +0.029 A 
ATOM     13  C   UNL     1      -1.662  -4.028   0.597  0.00  0.00    +0.025 A 
ATOM     14  C   UNL     1      -1.546  -2.669   0.864  0.00  0.00    +0.033 A 
BRANCH  11  15
ATOM     15  S   UNL     1      -1.413  -4.161  -3.410  0.00  0.00    -0.001 S 
ATOM     16  O   UNL     1      -2.136  -5.384  -3.391  0.00  0.00    -0.169 OA
ATOM     17  O   UNL     1      -1.865  -3.064  -4.192  0.00  0.00    -0.169 OA
BRANCH  15  18
ATOM     18  C   UNL     1       0.343  -4.479  -3.737  0.00  0.00    +0.130 C 
ATOM     19  C   UNL     1       0.526  -4.873  -5.204  0.00  0.00    +0.032 C 
ATOM     20  C   UNL     1       1.154  -3.215  -3.444  0.00  0.00    +0.032 C 
ENDBRANCH  15  18
ENDBRANCH  11  15
BRANCH   9  21
ATOM     21  C   UNL     1      -1.277  -0.294   0.102  0.00  0.00    +0.040 C 
BRANCH  21  23
ATOM     22  C   UNL     1      -2.557   1.787   0.628  0.00  0.00    +0.007 C 
ATOM     23  C   UNL     1      -2.674   0.322   0.203  0.00  0.00    -0.013 C 
ATOM     24  C   UNL     1      -3.368   0.239  -1.158  0.00  0.00    +0.007 C 
ENDBRANCH  21  23
ENDBRANCH   9  21
ENDBRANCH   1  14
BRANCH   5  25
ATOM     25  S   UNL     1       0.898  -2.481   5.371  0.00  0.00    +0.109 S 
ATOM     26  O   UNL     1       2.037  -3.142   4.837  0.00  0.00    -0.138 OA
ATOM     27  O   UNL     1       0.965  -1.110   5.742  0.00  0.00    -0.138 OA
BRANCH  25  28
ATOM     28  O   UNL     1       0.593  -3.219   6.667  0.00  0.00    -0.347 OA
BRANCH  28  29
ATOM     29  C   UNL     1       0.720  -4.569   6.577  0.00  0.00    +0.156 A 
ATOM     30  C   UNL     1      -0.367  -5.346   6.204  0.00  0.00    +0.048 A 
ATOM     31  C   UNL     1      -0.234  -6.718   6.113  0.00  0.00    +0.004 A 
ATOM     32  C   UNL     1       0.980  -7.317   6.394  0.00  0.00    +0.000 A 
ATOM     33  C   UNL     1       2.064  -6.544   6.768  0.00  0.00    +0.004 A 
ATOM     34  C   UNL     1       1.939  -5.171   6.854  0.00  0.00    +0.048 A 
ENDBRANCH  28  29
ENDBRANCH  25  28
ENDBRANCH   5  25
TORSDOF 8
