REMARK  Name = ZINC09361194
REMARK  2 active torsions:
REMARK  status: ('A' for Active; 'I' for Inactive)
REMARK    1  A    between atoms: C_4  and  C_7
REMARK    2  A    between atoms: C_12  and  C_20
REMARK                            x       y       z     vdW  Elec       q    Type
REMARK                         _______ _______ _______ _____ _____    ______ ____
ROOT
ATOM      1  C   UNL     1       3.711  -0.707  -0.038  0.00  0.00    +0.032 C 
ATOM      2  C   UNL     1       3.791  -1.592  -1.284  0.00  0.00    +0.060 C 
ATOM      3  C   UNL     1       5.093  -2.358  -1.279  0.00  0.00    +0.020 C 
ATOM      4  C   UNL     1       5.672  -2.733  -0.118  0.00  0.00    +0.041 C 
ATOM      5  C   UNL     1       6.966  -3.516  -0.082  0.00  0.00    +0.178 C 
ATOM      6  N   UNL     1       7.607  -3.480  -1.390  0.00  0.00    -0.221 N 
ATOM      7  C   UNL     1       6.976  -3.073  -2.520  0.00  0.00    +0.218 A 
ATOM      8  N   UNL     1       7.820  -3.167  -3.509  0.00  0.00    -0.201 NA
ATOM      9  C   UNL     1       8.992  -3.623  -3.056  0.00  0.00    +0.247 A 
ATOM     10  N   UNL     1       8.905  -3.826  -1.764  0.00  0.00    -0.156 NA
ATOM     11  N   UNL     1       5.658  -2.647  -2.498  0.00  0.00    -0.287 N 
ATOM     12  C   UNL     1       5.089  -2.402   1.118  0.00  0.00    +0.164 C 
ATOM     13  O   UNL     1       5.627  -2.767   2.145  0.00  0.00    -0.292 OA
ATOM     14  C   UNL     1       3.817  -1.605   1.200  0.00  0.00    +0.088 C 
ATOM     15  H   UNL     1       5.149  -2.556  -3.318  0.00  0.00    +0.155 HD
ENDROOT
BRANCH   5  16
ATOM     16  C   UNL     1       6.675  -4.947   0.291  0.00  0.00    +0.017 A 
ATOM     17  C   UNL     1       5.847  -5.714  -0.507  0.00  0.00    +0.009 A 
ATOM     18  C   UNL     1       5.579  -7.026  -0.165  0.00  0.00    +0.001 A 
ATOM     19  C   UNL     1       6.139  -7.573   0.975  0.00  0.00    +0.003 A 
ATOM     20  C   UNL     1       6.968  -6.808   1.774  0.00  0.00    +0.039 A 
ATOM     21  C   UNL     1       7.240  -5.495   1.429  0.00  0.00    +0.129 A 
ATOM     22  F   UNL     1       8.054  -4.747   2.207  0.00  0.00    -0.205 F 
ENDBRANCH   5  16
BRANCH   1  26
ATOM     23  C   UNL     1      -0.017   1.378   0.010  0.00  0.00    +0.000 A 
ATOM     24  C   UNL     1       1.171   2.086   0.002  0.00  0.00    +0.000 A 
ATOM     25  C   UNL     1       2.377   1.411  -0.013  0.00  0.00    +0.004 A 
ATOM     26  C   UNL     1       2.396   0.029  -0.020  0.00  0.00    -0.044 A 
ATOM     27  C   UNL     1       1.208  -0.679  -0.012  0.00  0.00    +0.004 A 
ATOM     28  C   UNL     1       0.002  -0.004   0.002  0.00  0.00    +0.000 A 
ENDBRANCH   1  26
TORSDOF 2
