REMARK  Name = ZINC35921380
REMARK  12 active torsions:
REMARK  status: ('A' for Active; 'I' for Inactive)
REMARK    1  A    between atoms: C_1  and  C_2
REMARK    2  A    between atoms: C_2  and  C_3
REMARK    3  A    between atoms: C_2  and  C_4
REMARK    4  A    between atoms: C_4  and  N_5
REMARK    5  A    between atoms: N_5  and  C_6
REMARK    6  A    between atoms: C_6  and  C_7
REMARK    7  A    between atoms: N_10  and  C_12
REMARK    8  A    between atoms: C_17  and  O_18
REMARK    9  A    between atoms: O_18  and  C_19
REMARK   10  A    between atoms: N_22  and  C_24
REMARK   11  A    between atoms: C_24  and  C_25
REMARK   12  A    between atoms: C_27  and  C_29
REMARK                            x       y       z     vdW  Elec       q    Type
REMARK                         _______ _______ _______ _____ _____    ______ ____
ROOT
ATOM      1  C   UNL     1       0.337  -2.085   3.925  0.00  0.00    +0.082 A 
ATOM      2  C   UNL     1       1.189  -3.092   3.486  0.00  0.00    -0.018 A 
ATOM      3  C   UNL     1       1.982  -3.455   4.530  0.00  0.00    +0.045 A 
ATOM      4  N   UNL     1       1.645  -2.700   5.587  0.00  0.00    -0.233 N 
ATOM      5  N   UNL     1       0.610  -1.841   5.185  0.00  0.00    -0.169 NA
ATOM      6  C   UNL     1       3.031  -4.535   4.426  0.00  0.00    +0.037 C 
ATOM      7  C   UNL     1       2.748  -5.338   3.148  0.00  0.00    -0.072 C 
ATOM      8  N   UNL     1       2.573  -4.420   2.015  0.00  0.00    +0.385 N 
ATOM      9  C   UNL     1       1.282  -3.721   2.118  0.00  0.00    -0.039 C 
ATOM     10  H   UNL     1       3.321  -3.742   2.016  0.00  0.00    -0.081 HD
ENDROOT
BRANCH   4  11
ATOM     11  C   UNL     1       2.226  -2.756   6.862  0.00  0.00    +0.107 A 
ATOM     12  C   UNL     1       3.606  -2.748   6.999  0.00  0.00    +0.031 A 
ATOM     13  C   UNL     1       4.176  -2.803   8.256  0.00  0.00    +0.002 A 
ATOM     14  C   UNL     1       3.374  -2.865   9.381  0.00  0.00    +0.004 A 
ATOM     15  C   UNL     1       1.998  -2.873   9.253  0.00  0.00    +0.048 A 
ATOM     16  C   UNL     1       1.418  -2.812   7.996  0.00  0.00    +0.145 A 
BRANCH  16  17
ATOM     17  O   UNL     1       0.065  -2.814   7.868  0.00  0.00    -0.493 OA
ATOM     18  C   UNL     1      -0.700  -2.874   9.074  0.00  0.00    +0.277 C 
ENDBRANCH  16  17
ENDBRANCH   4  11
BRANCH   1  19
ATOM     19  C   UNL     1      -0.712  -1.389   3.096  0.00  0.00    +0.165 C 
BRANCH  19  20
ATOM     20  N   UNL     1      -0.155  -0.153   2.540  0.00  0.00    -0.295 N 
ATOM     21  C   UNL     1      -0.303   1.010   3.204  0.00  0.00    +0.219 C 
ATOM     22  O   UNL     1      -0.862   1.028   4.281  0.00  0.00    -0.275 OA
BRANCH  21  23
ATOM     23  C   UNL     1       0.225   2.290   2.609  0.00  0.00    +0.075 C 
ATOM     24  C   UNL     1       1.746   2.460   2.764  0.00  0.00    +0.013 C 
ATOM     25  C   UNL     1       1.470   3.944   3.060  0.00  0.00    +0.001 C 
ATOM     26  C   UNL     1       0.073   3.509   3.534  0.00  0.00    +0.013 C 
ENDBRANCH  21  23
BRANCH  20  27
ATOM     27  C   UNL     1       0.562  -0.182   1.264  0.00  0.00    +0.111 C 
BRANCH  27  29
ATOM     28  C   UNL     1      -1.165   1.191   0.092  0.00  0.00    +0.009 C 
ATOM     29  C   UNL     1      -0.445  -0.159   0.112  0.00  0.00    +0.000 C 
ATOM     30  C   UNL     1       0.291  -0.363  -1.214  0.00  0.00    +0.009 C 
ENDBRANCH  27  29
ENDBRANCH  20  27
ENDBRANCH  19  20
ENDBRANCH   1  19
BRANCH   8  31
ATOM     31  C   UNL     1       2.614  -5.183   0.760  0.00  0.00    -0.051 C 
BRANCH  31  32
ATOM     32  C   UNL     1       3.985  -5.784   0.582  0.00  0.00    -0.053 C 
ATOM     33  C   UNL     1       4.116  -7.074   0.397  0.00  0.00    +0.002 C 
ENDBRANCH  31  32
ENDBRANCH   8  31
TORSDOF 9
