REMARK  Name = ZINC38680549
REMARK  9 active torsions:
REMARK  status: ('A' for Active; 'I' for Inactive)
REMARK    1  A    between atoms: C_1  and  C_2
REMARK    2  A    between atoms: C_2  and  O_3
REMARK    3  A    between atoms: O_3  and  C_4
REMARK    4  A    between atoms: C_8  and  C_10
REMARK    5  A    between atoms: C_10  and  O_12
REMARK    6  A    between atoms: O_12  and  C_13
REMARK    7  A    between atoms: C_20  and  N_34
REMARK    8  A    between atoms: C_21  and  C_32
REMARK    9  A    between atoms: C_22  and  C_24
REMARK                            x       y       z     vdW  Elec       q    Type
REMARK                         _______ _______ _______ _____ _____    ______ ____
ROOT
ATOM      1  C   UNL     1       2.897  -6.157  -5.043  0.00  0.00    +0.135 A 
ATOM      2  C   UNL     1       3.488  -5.350  -6.005  0.00  0.00    +0.047 A 
ATOM      3  C   UNL     1       4.086  -5.920  -7.112  0.00  0.00    +0.012 A 
ATOM      4  C   UNL     1       4.099  -7.295  -7.267  0.00  0.00    +0.008 A 
ATOM      5  C   UNL     1       3.510  -8.106  -6.309  0.00  0.00    +0.138 A 
ATOM      6  C   UNL     1       2.914  -7.534  -5.192  0.00  0.00    +0.093 A 
ATOM      7  O   UNL     1       3.513  -9.455  -6.443  0.00  0.00    -0.441 OA
ATOM      8  C   UNL     1       3.728 -10.008  -7.648  0.00  0.00    +0.199 C 
ATOM      9  C   UNL     1       4.313  -9.322  -8.658  0.00  0.00    +0.098 C 
ATOM     10  C   UNL     1       4.756  -7.897  -8.480  0.00  0.00    +0.102 C 
ENDROOT
BRANCH  10  11
ATOM     11  C   UNL     1       6.253  -7.857  -8.309  0.00  0.00    +0.019 A 
ATOM     12  C   UNL     1       6.846  -8.520  -7.248  0.00  0.00    +0.129 A 
ATOM     13  C   UNL     1       8.221  -8.482  -7.092  0.00  0.00    +0.039 A 
ATOM     14  C   UNL     1       9.001  -7.784  -7.995  0.00  0.00    +0.004 A 
ATOM     15  C   UNL     1       8.408  -7.123  -9.054  0.00  0.00    +0.020 A 
ATOM     16  C   UNL     1       7.034  -7.164  -9.215  0.00  0.00    +0.048 A 
ATOM     17 CL   UNL     1       6.292  -6.339 -10.550  0.00  0.00    -0.083 Cl
ATOM     18  F   UNL     1       6.084  -9.201  -6.365  0.00  0.00    -0.205 F 
ENDBRANCH  10  11
BRANCH   8  19
ATOM     19  N   UNL     1       3.343 -11.308  -7.862  0.00  0.00    -0.328 N 
ATOM     20  H   UNL     1       2.923 -11.813  -7.148  0.00  0.00    +0.145 HD
ATOM     21  H   UNL     1       3.491 -11.722  -8.726  0.00  0.00    +0.145 HD
ENDBRANCH   8  19
BRANCH   9  22
ATOM     22  C   UNL     1       4.513  -9.967  -9.921  0.00  0.00    +0.101 C 
ATOM     23  N   UNL     1       4.673 -10.479 -10.922  0.00  0.00    -0.191 NA
ENDBRANCH   9  22
BRANCH   1  24
ATOM     24  O   UNL     1       2.309  -5.597  -3.953  0.00  0.00    -0.422 OA
BRANCH  24  25
ATOM     25  C   UNL     1       1.091  -5.042  -4.108  0.00  0.00    +0.345 C 
ATOM     26  O   UNL     1       0.591  -4.971  -5.213  0.00  0.00    -0.245 OA
BRANCH  25  31
ATOM     27  C   UNL     1      -1.574  -3.455  -1.985  0.00  0.00    +0.121 A 
ATOM     28  C   UNL     1      -0.997  -3.539  -0.725  0.00  0.00    +0.046 A 
ATOM     29  C   UNL     1       0.253  -4.109  -0.567  0.00  0.00    +0.004 A 
ATOM     30  C   UNL     1       0.935  -4.599  -1.662  0.00  0.00    +0.015 A 
ATOM     31  C   UNL     1       0.363  -4.519  -2.933  0.00  0.00    +0.063 A 
ATOM     32  C   UNL     1      -0.901  -3.948  -3.089  0.00  0.00    +0.060 A 
BRANCH  27  33
ATOM     33  O   UNL     1      -2.802  -2.893  -2.133  0.00  0.00    -0.492 OA
BRANCH  33  35
ATOM     34  C   UNL     1      -4.803  -1.812  -1.313  0.00  0.00    +0.048 C 
ATOM     35  C   UNL     1      -3.440  -2.405  -0.951  0.00  0.00    +0.225 C 
ENDBRANCH  33  35
ENDBRANCH  27  33
ENDBRANCH  25  31
ENDBRANCH  24  25
ENDBRANCH   1  24
TORSDOF 8
