REMARK  Name = ZINC09632321
REMARK  5 active torsions:
REMARK  status: ('A' for Active; 'I' for Inactive)
REMARK    1  A    between atoms: C_12  and  S_13
REMARK    2  A    between atoms: S_13  and  C_14
REMARK    3  A    between atoms: C_14  and  C_15
REMARK    4  A    between atoms: N_17  and  N_18
REMARK    5  A    between atoms: C_19  and  C_21
REMARK                            x       y       z     vdW  Elec       q    Type
REMARK                         _______ _______ _______ _____ _____    ______ ____
ROOT
ATOM      1  C   UNL     1       3.524   1.907  -0.021  0.00  0.00    +0.239 C 
ATOM      2  O   UNL     1       3.508   3.120  -0.015  0.00  0.00    -0.273 OA
ATOM      3  N   UNL     1       2.366   1.217  -0.014  0.00  0.00    -0.233 N 
ATOM      4  H   UNL     1       2.379   0.247  -0.019  0.00  0.00    +0.173 HD
ENDROOT
BRANCH   3   5
ATOM      5  N   UNL     1       1.143   1.901   0.001  0.00  0.00    -0.230 N 
ATOM      6  C   UNL     1      -0.014   1.211   0.009  0.00  0.00    +0.260 C 
ATOM      7  O   UNL     1       0.002  -0.004   0.002  0.00  0.00    -0.269 OA
ATOM      8  H   UNL     1       1.130   2.871   0.007  0.00  0.00    +0.173 HD
BRANCH   6   9
ATOM      9  C   UNL     1      -1.304   1.933   0.019  0.00  0.00    +0.038 A 
ATOM     10  C   UNL     1      -1.326   3.329   0.032  0.00  0.00    +0.014 A 
ATOM     11  C   UNL     1      -2.533   3.996   0.035  0.00  0.00    +0.021 A 
ATOM     12  C   UNL     1      -3.721   3.285   0.037  0.00  0.00    +0.041 A 
ATOM     13  C   UNL     1      -3.706   1.900   0.030  0.00  0.00    +0.021 A 
ATOM     14  C   UNL     1      -2.505   1.221   0.021  0.00  0.00    +0.014 A 
ATOM     15 CL   UNL     1      -5.236   4.132   0.048  0.00  0.00    -0.084 Cl
ENDBRANCH   6   9
ENDBRANCH   3   5
BRANCH   1  16
ATOM     16  C   UNL     1       4.839   1.171  -0.038  0.00  0.00    +0.174 C 
BRANCH  16  17
ATOM     17  S   UNL     1       6.202   2.369  -0.044  0.00  0.00    -0.076 S 
BRANCH  17  29
ATOM     18  C   UNL     1       9.678   5.503  -0.061  0.00  0.00    +0.002 A 
ATOM     19  C   UNL     1      11.063   5.479  -0.074  0.00  0.00    +0.001 A 
ATOM     20  C   UNL     1      11.716   4.259  -0.087  0.00  0.00    +0.017 A 
ATOM     21  C   UNL     1      10.980   3.096  -0.086  0.00  0.00    +0.040 A 
ATOM     22  C   UNL     1       9.582   3.088  -0.073  0.00  0.00    +0.065 A 
ATOM     23  C   UNL     1       8.945   4.340  -0.060  0.00  0.00    +0.027 A 
ATOM     24  N   UNL     1       8.956   1.832  -0.074  0.00  0.00    -0.264 N 
ATOM     25  C   UNL     1       9.750   0.717  -0.087  0.00  0.00    +0.202 A 
ATOM     26  S   UNL     1      11.402   1.371  -0.099  0.00  0.00    -0.048 S 
ATOM     27  N   UNL     1       9.012  -0.353  -0.086  0.00  0.00    -0.121 NA
ATOM     28  N   UNL     1       7.672   0.058  -0.065  0.00  0.00    -0.121 NA
ATOM     29  C   UNL     1       7.650   1.366  -0.064  0.00  0.00    +0.197 A 
ENDBRANCH  17  29
ENDBRANCH  16  17
ENDBRANCH   1  16
TORSDOF 5
