REMARK  Name = ZINC24348526
REMARK  8 active torsions:
REMARK  status: ('A' for Active; 'I' for Inactive)
REMARK    1  A    between atoms: C_1  and  C_2
REMARK    2  A    between atoms: C_2  and  C_3
REMARK    3  A    between atoms: C_3  and  C_4
REMARK    4  A    between atoms: C_4  and  C_6
REMARK    5  A    between atoms: C_4  and  N_7
REMARK    6  A    between atoms: C_8  and  C_10
REMARK    7  A    between atoms: C_10  and  N_11
REMARK    8  A    between atoms: C_19  and  C_21
REMARK                            x       y       z     vdW  Elec       q    Type
REMARK                         _______ _______ _______ _____ _____    ______ ____
ROOT
ATOM      1  N   UNL     1       2.536   3.862  -0.877  0.00  0.00    +0.393 N 
ATOM      2  C   UNL     1       2.933   5.275  -0.814  0.00  0.00    -0.072 C 
ATOM      3  C   UNL     1       3.609   5.540   0.542  0.00  0.00    +0.024 C 
ATOM      4  C   UNL     1       2.757   4.923   1.603  0.00  0.00    -0.010 A 
ATOM      5  C   UNL     1       1.745   4.030   1.417  0.00  0.00    -0.046 A 
ATOM      6  C   UNL     1       1.084   3.591   2.562  0.00  0.00    +0.010 A 
ATOM      7  C   UNL     1       1.459   4.052   3.778  0.00  0.00    +0.045 A 
ATOM      8  S   UNL     1       2.798   5.158   3.358  0.00  0.00    -0.101 S 
ATOM      9  C   UNL     1       1.399   3.568   0.005  0.00  0.00    +0.002 C 
ATOM     10  H   UNL     1       3.388   3.268  -0.514  0.00  0.00    -0.080 HD
ENDROOT
BRANCH   9  11
ATOM     11  C   UNL     1       1.131   2.085   0.009  0.00  0.00    -0.019 A 
ATOM     12  C   UNL     1      -0.057   1.433   0.018  0.00  0.00    +0.010 A 
ATOM     13  C   UNL     1      -0.062   0.050   0.019  0.00  0.00    +0.008 A 
ATOM     14  C   UNL     1       1.121  -0.612   0.012  0.00  0.00    +0.045 A 
ATOM     15  S   UNL     1       2.296   0.733   0.002  0.00  0.00    -0.103 S 
ENDBRANCH   9  11
BRANCH   1  16
ATOM     16  C   UNL     1       2.248   3.457  -2.259  0.00  0.00    +0.020 C 
BRANCH  16  18
ATOM     17  N   UNL     1       0.600   4.015  -4.018  0.00  0.00    -0.314 N 
ATOM     18  C   UNL     1       1.103   4.278  -2.795  0.00  0.00    +0.197 C 
ATOM     19  O   UNL     1       0.636   5.175  -2.127  0.00  0.00    -0.278 OA
ATOM     20  H   UNL     1       1.024   3.201  -4.624  0.00  0.00    +0.149 HD
BRANCH  17  21
ATOM     21  C   UNL     1      -0.513   4.813  -4.538  0.00  0.00    +0.070 C 
ATOM     22  C   UNL     1       0.034   6.081  -5.198  0.00  0.00    +0.028 C 
BRANCH  21  23
ATOM     23  C   UNL     1      -1.288   3.994  -5.573  0.00  0.00    +0.022 C 
BRANCH  23  25
ATOM     24  C   UNL     1      -2.714   1.972  -5.921  0.00  0.00    +0.004 C 
ATOM     25  C   UNL     1      -1.939   2.791  -4.887  0.00  0.00    -0.002 C 
ENDBRANCH  23  25
ENDBRANCH  21  23
ENDBRANCH  17  21
ENDBRANCH  16  18
ENDBRANCH   1  16
TORSDOF 6
