REMARK  Name = ZINC46699258
REMARK  8 active torsions:
REMARK  status: ('A' for Active; 'I' for Inactive)
REMARK    1  A    between atoms: C_1  and  C_2
REMARK    2  A    between atoms: C_2  and  C_3
REMARK    3  A    between atoms: C_3  and  N_4
REMARK    4  A    between atoms: C_5  and  C_7
REMARK    5  A    between atoms: C_7  and  C_9
REMARK    6  A    between atoms: C_7  and  N_10
REMARK    7  A    between atoms: C_11  and  C_13
REMARK    8  A    between atoms: C_24  and  C_28
REMARK                            x       y       z     vdW  Elec       q    Type
REMARK                         _______ _______ _______ _____ _____    ______ ____
ROOT
ATOM      1  C   UNL     1       2.444  -6.301  -5.207  0.00  0.00    +0.061 A 
ATOM      2  C   UNL     1       3.384  -5.491  -5.841  0.00  0.00    +0.015 A 
ATOM      3  C   UNL     1       4.035  -5.932  -6.980  0.00  0.00    +0.001 A 
ATOM      4  C   UNL     1       3.764  -7.177  -7.506  0.00  0.00    +0.010 A 
ATOM      5  C   UNL     1       2.826  -8.008  -6.890  0.00  0.00    +0.004 A 
ATOM      6  C   UNL     1       2.161  -7.574  -5.727  0.00  0.00    +0.059 A 
ATOM      7  N   UNL     1       1.315  -8.583  -5.340  0.00  0.00    -0.357 N 
ATOM      8  H   UNL     1       0.730  -8.552  -4.566  0.00  0.00    +0.166 HD
ATOM      9  C   UNL     1       1.417  -9.637  -6.204  0.00  0.00    +0.020 A 
ATOM     10  C   UNL     1       2.310  -9.345  -7.168  0.00  0.00    -0.019 A 
ATOM     11  C   UNL     1       2.687 -10.268  -8.297  0.00  0.00    +0.040 C 
ATOM     12  C   UNL     1       2.204 -11.682  -7.950  0.00  0.00    -0.009 C 
ATOM     13  C   UNL     1       0.738 -11.623  -7.513  0.00  0.00    +0.009 C 
ATOM     14  C   UNL     1       0.654 -10.940  -6.136  0.00  0.00    +0.054 C 
ATOM     15  C   UNL     1       2.335 -12.583  -9.180  0.00  0.00    +0.008 C 
ENDROOT
BRANCH   1  17
ATOM     16  N   UNL     1       2.027  -4.602  -3.498  0.00  0.00    -0.300 N 
ATOM     17  C   UNL     1       1.753  -5.825  -3.994  0.00  0.00    +0.247 C 
ATOM     18  O   UNL     1       0.937  -6.537  -3.441  0.00  0.00    -0.270 OA
ATOM     19  H   UNL     1       2.678  -4.035  -3.940  0.00  0.00    +0.150 HD
BRANCH  16  20
ATOM     20  C   UNL     1       1.341  -4.130  -2.293  0.00  0.00    +0.156 C 
ATOM     21  C   UNL     1       2.082  -4.636  -1.054  0.00  0.00    +0.038 C 
BRANCH  20  23
ATOM     22  N   UNL     1       0.738  -1.962  -1.265  0.00  0.00    -0.314 N 
ATOM     23  C   UNL     1       1.321  -2.623  -2.285  0.00  0.00    +0.233 C 
ATOM     24  O   UNL     1       1.829  -2.004  -3.196  0.00  0.00    -0.274 OA
ATOM     25  H   UNL     1       0.332  -2.457  -0.536  0.00  0.00    +0.149 HD
BRANCH  22  26
ATOM     26  C   UNL     1       0.718  -0.497  -1.257  0.00  0.00    +0.104 C 
BRANCH  26  28
ATOM     27  C   UNL     1      -0.019   1.526   0.010  0.00  0.00    +0.005 C 
ATOM     28  C   UNL     1       0.002  -0.004   0.002  0.00  0.00    +0.015 C 
ENDBRANCH  26  28
ENDBRANCH  22  26
ENDBRANCH  20  23
ENDBRANCH  16  20
ENDBRANCH   1  17
TORSDOF 5
