REMARK  Name = ZINC41333497
REMARK  4 active torsions:
REMARK  status: ('A' for Active; 'I' for Inactive)
REMARK    1  A    between atoms: C_4  and  N_7
REMARK    2  A    between atoms: C_12  and  N_20
REMARK    3  A    between atoms: N_16  and  C_17
REMARK    4  A    between atoms: N_20  and  C_21
REMARK                            x       y       z     vdW  Elec       q    Type
REMARK                         _______ _______ _______ _____ _____    ______ ____
ROOT
ATOM      1  N   UNL     1       3.590  -0.528   0.131  0.00  0.00    -0.214 N 
ATOM      2  C   UNL     1       4.017  -1.510   0.979  0.00  0.00    +0.170 A 
ATOM      3  C   UNL     1       5.210  -2.022   0.431  0.00  0.00    +0.079 A 
ATOM      4  C   UNL     1       5.459  -1.306  -0.760  0.00  0.00    +0.148 A 
ATOM      5  N   UNL     1       4.502  -0.438  -0.928  0.00  0.00    -0.172 NA
ATOM      6  C   UNL     1       5.870  -3.062   1.116  0.00  0.00    +0.139 A 
ATOM      7  N   UNL     1       5.338  -3.512   2.247  0.00  0.00    -0.199 NA
ATOM      8  C   UNL     1       4.212  -3.000   2.727  0.00  0.00    +0.219 A 
ATOM      9  N   UNL     1       3.559  -2.025   2.118  0.00  0.00    -0.195 NA
ATOM     10  N   UNL     1       3.701  -3.507   3.910  0.00  0.00    -0.311 N 
ATOM     11  H   UNL     1       2.848  -3.190   4.244  0.00  0.00    +0.149 HD
ENDROOT
BRANCH   1  15
ATOM     12  C   UNL     1       0.157   1.787   0.603  0.00  0.00    +0.000 A 
ATOM     13  C   UNL     1       1.292   2.342   0.042  0.00  0.00    +0.002 A 
ATOM     14  C   UNL     1       2.432   1.578  -0.116  0.00  0.00    +0.028 A 
ATOM     15  C   UNL     1       2.437   0.250   0.290  0.00  0.00    +0.068 A 
ATOM     16  C   UNL     1       1.295  -0.305   0.853  0.00  0.00    +0.028 A 
ATOM     17  C   UNL     1       0.159   0.464   1.008  0.00  0.00    +0.002 A 
ENDBRANCH   1  15
BRANCH  10  18
ATOM     18  C   UNL     1       4.449  -4.522   4.655  0.00  0.00    +0.073 C 
ATOM     19  C   UNL     1       3.684  -5.761   5.125  0.00  0.00    +0.024 C 
ATOM     20  C   UNL     1       4.115  -4.698   6.138  0.00  0.00    +0.024 C 
ENDBRANCH  10  18
BRANCH   6  21
ATOM     21  N   UNL     1       7.043  -3.600   0.623  0.00  0.00    -0.297 N 
ATOM     22  H   UNL     1       7.471  -3.202  -0.151  0.00  0.00    +0.154 HD
BRANCH  21  23
ATOM     23  C   UNL     1       7.610  -4.718   1.237  0.00  0.00    +0.059 A 
ATOM     24  C   UNL     1       6.890  -5.442   2.162  0.00  0.00    +0.025 A 
ATOM     25  C   UNL     1       7.444  -6.558   2.782  0.00  0.00    +0.003 A 
ATOM     26  C   UNL     1       8.711  -6.964   2.491  0.00  0.00    +0.010 A 
ATOM     27  C   UNL     1       9.477  -6.253   1.554  0.00  0.00    +0.002 A 
ATOM     28  C   UNL     1       8.924  -5.118   0.911  0.00  0.00    +0.092 A 
ATOM     29  N   UNL     1       9.649  -4.442   0.015  0.00  0.00    -0.253 NA
ATOM     30  C   UNL     1      10.869  -4.808  -0.291  0.00  0.00    +0.111 A 
ATOM     31  C   UNL     1      11.471  -5.918   0.299  0.00  0.00    +0.020 A 
ATOM     32  C   UNL     1      10.790  -6.647   1.231  0.00  0.00    +0.011 A 
ENDBRANCH  21  23
ENDBRANCH   6  21
TORSDOF 4
