REMARK  Name = ZINC64040727
REMARK  12 active torsions:
REMARK  status: ('A' for Active; 'I' for Inactive)
REMARK    1  A    between atoms: C_1  and  C_2
REMARK    2  A    between atoms: C_2  and  C_3
REMARK    3  A    between atoms: C_2  and  C_4
REMARK    4  A    between atoms: C_4  and  C_5
REMARK    5  A    between atoms: C_5  and  C_6
REMARK    6  A    between atoms: C_6  and  C_18
REMARK    7  A    between atoms: N_9  and  C_13
REMARK    8  A    between atoms: C_13  and  C_14
REMARK    9  A    between atoms: C_14  and  N_15
REMARK   10  A    between atoms: N_15  and  C_16
REMARK   11  A    between atoms: N_15  and  C_17
REMARK   12  A    between atoms: C_24  and  C_26
REMARK                            x       y       z     vdW  Elec       q    Type
REMARK                         _______ _______ _______ _____ _____    ______ ____
ROOT
ATOM      1  C   UNL     1      -3.571  -0.661  -1.275  0.00  0.00    +0.115 C 
ATOM      2  C   UNL     1      -3.585  -2.157  -1.033  0.00  0.00    +0.247 C 
ATOM      3  O   UNL     1      -3.087  -3.016  -1.729  0.00  0.00    -0.273 OA
ATOM      4  N   UNL     1      -4.266  -2.334   0.116  0.00  0.00    -0.226 N 
ATOM      5  C   UNL     1      -4.679  -1.170   0.629  0.00  0.00    +0.309 C 
ATOM      6  O   UNL     1      -5.314  -1.073   1.661  0.00  0.00    -0.252 OA
ATOM      7  N   UNL     1      -4.315  -0.117  -0.126  0.00  0.00    -0.285 N 
ATOM      8  H   UNL     1      -4.505   0.817   0.052  0.00  0.00    +0.151 HD
ENDROOT
BRANCH   1   9
ATOM      9  C   UNL     1      -4.279  -0.317  -2.586  0.00  0.00    +0.024 C 
ATOM     10  C   UNL     1      -4.310   1.202  -2.766  0.00  0.00    +0.025 C 
ATOM     11  C   UNL     1      -4.990   1.542  -4.097  0.00  0.00    +0.108 C 
ATOM     12  N   UNL     1      -6.313   0.903  -4.128  0.00  0.00    -0.300 N 
ATOM     13  C   UNL     1      -6.406  -0.542  -3.877  0.00  0.00    +0.108 C 
ATOM     14  C   UNL     1      -5.711  -0.857  -2.549  0.00  0.00    +0.025 C 
ATOM     15  C   UNL     1      -7.420   1.629  -4.382  0.00  0.00    +0.242 C 
ATOM     16  O   UNL     1      -7.329   2.821  -4.587  0.00  0.00    -0.273 OA
BRANCH  15  17
ATOM     17  C   UNL     1      -8.770   0.959  -4.411  0.00  0.00    +0.190 C 
ATOM     18  C   UNL     1      -8.816  -0.072  -5.516  0.00  0.00    +0.016 C 
ATOM     19  C   UNL     1      -9.801   0.323  -6.356  0.00  0.00    -0.004 A 
ATOM     20  C   UNL     1     -10.333  -0.244  -7.601  0.00  0.00    +0.010 A 
ATOM     21  C   UNL     1     -11.346   0.393  -8.231  0.00  0.00    +0.001 A 
ATOM     22  C   UNL     1     -11.899   1.577  -7.726  0.00  0.00    +0.002 A 
ATOM     23  C   UNL     1     -11.464   2.159  -6.588  0.00  0.00    +0.026 A 
ATOM     24  C   UNL     1     -10.403   1.575  -5.843  0.00  0.00    +0.043 A 
ATOM     25  N   UNL     1      -9.813   1.940  -4.729  0.00  0.00    -0.370 N 
ATOM     26  H   UNL     1     -10.031   2.726  -4.204  0.00  0.00    +0.161 HD
ENDBRANCH  15  17
ENDBRANCH   1   9
BRANCH   1  27
ATOM     27  C   UNL     1      -2.135  -0.131  -1.286  0.00  0.00    +0.036 C 
BRANCH  27  28
ATOM     28  C   UNL     1      -1.433  -0.534   0.013  0.00  0.00    +0.005 C 
BRANCH  28  30
ATOM     29  C   UNL     1      -0.019   1.526   0.010  0.00  0.00    +0.007 C 
ATOM     30  C   UNL     1       0.002  -0.004   0.002  0.00  0.00    -0.017 C 
ATOM     31  C   UNL     1       0.742  -0.511   1.242  0.00  0.00    +0.007 C 
ENDBRANCH  28  30
ENDBRANCH  27  28
ENDBRANCH   1  27
BRANCH   4  32
ATOM     32  C   UNL     1      -4.523  -3.640   0.728  0.00  0.00    +0.099 C 
BRANCH  32  33
ATOM     33  C   UNL     1      -3.382  -3.987   1.687  0.00  0.00    -0.060 C 
BRANCH  33  34
ATOM     34  N   UNL     1      -3.639  -5.297   2.300  0.00  0.00    +0.377 N 
ATOM     35  C   UNL     1      -3.607  -6.338   1.264  0.00  0.00    -0.097 C 
ATOM     36  C   UNL     1      -2.607  -5.577   3.308  0.00  0.00    -0.097 C 
ATOM     37  H   UNL     1      -4.546  -5.290   2.741  0.00  0.00    -0.083 HD
ENDBRANCH  33  34
ENDBRANCH  32  33
ENDBRANCH   4  32
TORSDOF 8
