REMARK  Name = ZINC08694372
REMARK  9 active torsions:
REMARK  status: ('A' for Active; 'I' for Inactive)
REMARK    1  A    between atoms: C_5  and  C_7
REMARK    2  A    between atoms: C_7  and  N_8
REMARK    3  A    between atoms: N_8  and  C_9
REMARK    4  A    between atoms: C_9  and  C_11
REMARK    5  A    between atoms: C_9  and  C_18
REMARK    6  A    between atoms: N_20  and  C_21
REMARK    7  A    between atoms: C_24  and  N_27
REMARK    8  A    between atoms: C_33  and  C_35
REMARK    9  A    between atoms: C_35  and  N_36
REMARK                            x       y       z     vdW  Elec       q    Type
REMARK                         _______ _______ _______ _____ _____    ______ ____
ROOT
ATOM      1  N   UNL     1       1.913   4.837  -3.130  0.00  0.00    -0.284 N 
ATOM      2  C   UNL     1       2.402   5.092  -4.360  0.00  0.00    +0.234 C 
ATOM      3  O   UNL     1       2.782   6.209  -4.642  0.00  0.00    -0.274 OA
ENDROOT
BRANCH   1   4
ATOM      4  C   UNL     1       1.455   3.487  -2.790  0.00  0.00    +0.146 C 
BRANCH   4   9
ATOM      5  C   UNL     1       2.942   1.937   0.315  0.00  0.00    +0.000 A 
ATOM      6  C   UNL     1       4.236   1.678  -0.097  0.00  0.00    +0.003 A 
ATOM      7  C   UNL     1       4.629   1.996  -1.383  0.00  0.00    +0.038 A 
ATOM      8  C   UNL     1       3.730   2.584  -2.256  0.00  0.00    +0.128 A 
ATOM      9  C   UNL     1       2.435   2.848  -1.841  0.00  0.00    +0.005 A 
ATOM     10  C   UNL     1       2.043   2.524  -0.556  0.00  0.00    +0.008 A 
ATOM     11  F   UNL     1       4.114   2.900  -3.512  0.00  0.00    -0.205 F 
ENDBRANCH   4   9
ENDBRANCH   1   4
BRANCH   1  12
ATOM     12  C   UNL     1       1.841   5.908  -2.134  0.00  0.00    +0.166 C 
BRANCH  12  13
ATOM     13  C   UNL     1       2.783   5.587  -0.971  0.00  0.00    +0.023 C 
ATOM     14  C   UNL     1       4.236   5.610  -1.464  0.00  0.00    +0.010 C 
ATOM     15  C   UNL     1       5.138   5.114  -0.332  0.00  0.00    +0.027 C 
ATOM     16  C   UNL     1       4.814   5.837   0.943  0.00  0.00    -0.031 C 
ATOM     17  C   UNL     1       3.719   6.499   1.143  0.00  0.00    -0.031 C 
ATOM     18  C   UNL     1       2.627   6.644   0.124  0.00  0.00    +0.032 C 
ENDBRANCH  12  13
BRANCH  12  19
ATOM     19  C   UNL     1       0.429   6.021  -1.619  0.00  0.00    +0.238 C 
ATOM     20  O   UNL     1      -0.319   5.069  -1.686  0.00  0.00    -0.273 OA
ATOM     21  N   UNL     1      -0.002   7.181  -1.085  0.00  0.00    -0.284 N 
ATOM     22  H   UNL     1       0.584   7.954  -1.067  0.00  0.00    +0.155 HD
BRANCH  21  23
ATOM     23  C   UNL     1      -1.298   7.270  -0.558  0.00  0.00    +0.034 A 
ATOM     24  C   UNL     1      -1.876   6.166   0.054  0.00  0.00    +0.025 A 
ATOM     25  C   UNL     1      -3.150   6.255   0.578  0.00  0.00    +0.025 A 
ATOM     26  C   UNL     1      -3.857   7.447   0.484  0.00  0.00    +0.030 A 
ATOM     27  C   UNL     1      -3.281   8.550  -0.132  0.00  0.00    +0.025 A 
ATOM     28  C   UNL     1      -2.005   8.462  -0.652  0.00  0.00    +0.025 A 
BRANCH  26  29
ATOM     29  N   UNL     1      -5.150   7.536   1.012  0.00  0.00    -0.326 N 
ATOM     30  C   UNL     1      -5.246   8.630   1.989  0.00  0.00    +0.133 C 
ATOM     31  C   UNL     1      -6.687   8.730   2.495  0.00  0.00    +0.178 C 
ATOM     32  O   UNL     1      -7.081   7.472   3.050  0.00  0.00    -0.377 OA
ATOM     33  C   UNL     1      -7.000   6.384   2.124  0.00  0.00    +0.178 C 
ATOM     34  C   UNL     1      -5.562   6.260   1.615  0.00  0.00    +0.133 C 
ENDBRANCH  26  29
ENDBRANCH  21  23
ENDBRANCH  12  19
ENDBRANCH   1  12
BRANCH   2  35
ATOM     35  C   UNL     1       2.476   3.990  -5.385  0.00  0.00    +0.210 C 
BRANCH  35  36
ATOM     36  N   UNL     1       3.039   4.519  -6.631  0.00  0.00    -0.255 N 
ATOM     37  C   UNL     1       2.281   5.064  -7.664  0.00  0.00    +0.048 A 
ATOM     38  C   UNL     1       0.912   5.260  -7.795  0.00  0.00    +0.024 A 
ATOM     39  C   UNL     1       0.399   5.841  -8.940  0.00  0.00    +0.002 A 
ATOM     40  C   UNL     1       1.238   6.242  -9.966  0.00  0.00    +0.001 A 
ATOM     41  C   UNL     1       2.602   6.063  -9.854  0.00  0.00    +0.014 A 
ATOM     42  C   UNL     1       3.130   5.477  -8.704  0.00  0.00    +0.048 A 
ATOM     43  C   UNL     1       4.505   5.152  -8.280  0.00  0.00    +0.250 C 
ATOM     44  O   UNL     1       5.534   5.342  -8.895  0.00  0.00    -0.282 OA
ATOM     45  C   UNL     1       4.351   4.533  -6.923  0.00  0.00    +0.292 C 
ATOM     46  O   UNL     1       5.247   4.120  -6.217  0.00  0.00    -0.266 OA
ENDBRANCH  35  36
ENDBRANCH   2  35
TORSDOF 9
