REMARK  Name = ZINC24480071
REMARK  13 active torsions:
REMARK  status: ('A' for Active; 'I' for Inactive)
REMARK    1  A    between atoms: C_1  and  C_2
REMARK    2  A    between atoms: C_2  and  N_3
REMARK    3  A    between atoms: N_3  and  C_4
REMARK    4  A    between atoms: N_3  and  S_6
REMARK    5  A    between atoms: C_4  and  C_5
REMARK    6  A    between atoms: S_6  and  C_9
REMARK    7  A    between atoms: C_12  and  C_34
REMARK    8  A    between atoms: C_13  and  C_15
REMARK    9  A    between atoms: C_15  and  O_17
REMARK   10  A    between atoms: O_17  and  C_18
REMARK   11  A    between atoms: C_18  and  C_19
REMARK   12  A    between atoms: N_24  and  C_25
REMARK   13  A    between atoms: C_31  and  C_33
REMARK                            x       y       z     vdW  Elec       q    Type
REMARK                         _______ _______ _______ _____ _____    ______ ____
ROOT
ATOM      1  C   UNL     1       3.719   0.448  -4.637  0.00  0.00    +0.340 C 
ATOM      2  O   UNL     1       4.802   0.247  -5.149  0.00  0.00    -0.245 OA
ENDROOT
BRANCH   1   7
ATOM      3  C   UNL     1       1.511  -1.101  -2.025  0.00  0.00    +0.106 A 
ATOM      4  C   UNL     1       2.350  -2.071  -1.504  0.00  0.00    +0.029 A 
ATOM      5  C   UNL     1       3.633  -2.224  -2.000  0.00  0.00    +0.006 A 
ATOM      6  C   UNL     1       4.084  -1.408  -3.017  0.00  0.00    -0.036 A 
ATOM      7  C   UNL     1       3.243  -0.428  -3.547  0.00  0.00    +0.064 A 
ATOM      8  C   UNL     1       1.948  -0.283  -3.046  0.00  0.00    +0.043 A 
ATOM      9  C   UNL     1       5.481  -1.576  -3.556  0.00  0.00    +0.044 C 
BRANCH   3  10
ATOM     10  S   UNL     1      -0.120  -0.916  -1.386  0.00  0.00    +0.061 S 
ATOM     11  O   UNL     1      -0.476  -2.166  -0.811  0.00  0.00    -0.153 OA
ATOM     12  O   UNL     1      -0.890  -0.303  -2.411  0.00  0.00    -0.153 OA
BRANCH  10  13
ATOM     13  N   UNL     1      -0.038   0.172  -0.141  0.00  0.00    -0.177 NA
BRANCH  13  15
ATOM     14  C   UNL     1       1.157   2.259  -0.585  0.00  0.00    +0.022 C 
ATOM     15  C   UNL     1      -0.213   1.602  -0.405  0.00  0.00    +0.106 C 
ENDBRANCH  13  15
BRANCH  13  16
ATOM     16  C   UNL     1       0.209  -0.296   1.226  0.00  0.00    +0.106 C 
ATOM     17  C   UNL     1      -1.125  -0.475   1.953  0.00  0.00    +0.022 C 
ENDBRANCH  13  16
ENDBRANCH  10  13
ENDBRANCH   3  10
ENDBRANCH   1   7
BRANCH   1  18
ATOM     18  O   UNL     1       2.952   1.470  -5.064  0.00  0.00    -0.452 OA
BRANCH  18  19
ATOM     19  C   UNL     1       3.483   2.289  -6.138  0.00  0.00    +0.328 C 
BRANCH  19  20
ATOM     20  C   UNL     1       2.494   3.374  -6.479  0.00  0.00    +0.258 C 
ATOM     21  O   UNL     1       1.445   3.449  -5.876  0.00  0.00    -0.272 OA
ATOM     22  N   UNL     1       2.775   4.261  -7.454  0.00  0.00    -0.237 N 
ATOM     23  C   UNL     1       1.891   5.230  -7.759  0.00  0.00    +0.306 C 
ATOM     24  O   UNL     1       0.839   5.306  -7.155  0.00  0.00    -0.252 OA
ATOM     25  N   UNL     1       2.172   6.117  -8.734  0.00  0.00    -0.296 N 
ATOM     26  H   UNL     1       3.727   4.193  -8.001  0.00  0.00    +0.159 HD
ATOM     27  H   UNL     1       3.124   6.049  -9.281  0.00  0.00    +0.151 HD
BRANCH  25  28
ATOM     28  C   UNL     1       1.210   7.171  -9.066  0.00  0.00    +0.077 C 
ATOM     29  C   UNL     1       0.180   6.628 -10.059  0.00  0.00    +0.022 C 
ATOM     30  C   UNL     1       0.893   6.169 -11.332  0.00  0.00    +0.002 C 
ATOM     31  C   UNL     1       1.631   7.354 -11.960  0.00  0.00    +0.000 C 
ATOM     32  C   UNL     1       2.660   7.897 -10.967  0.00  0.00    +0.005 C 
ATOM     33  C   UNL     1       1.948   8.356  -9.693  0.00  0.00    +0.006 C 
ATOM     34  C   UNL     1       2.978   8.899  -8.700  0.00  0.00    +0.009 C 
ENDBRANCH  25  28
ENDBRANCH  19  20
ENDBRANCH  18  19
ENDBRANCH   1  18
TORSDOF 9
