REMARK  Name = ZINC12662228
REMARK  7 active torsions:
REMARK  status: ('A' for Active; 'I' for Inactive)
REMARK    1  A    between atoms: C_1  and  C_2
REMARK    2  A    between atoms: C_2  and  C_3
REMARK    3  A    between atoms: C_3  and  C_5
REMARK    4  A    between atoms: C_3  and  N_6
REMARK    5  A    between atoms: C_7  and  C_9
REMARK    6  A    between atoms: C_12  and  N_15
REMARK    7  A    between atoms: C_18  and  C_34
REMARK                            x       y       z     vdW  Elec       q    Type
REMARK                         _______ _______ _______ _____ _____    ______ ____
ROOT
ATOM      1  N   UNL     1       0.002  -0.004   0.002  0.00  0.00    -0.192 N 
ATOM      2  C   UNL     1       1.261  -0.484  -0.096  0.00  0.00    +0.257 C 
ATOM      3  O   UNL     1       1.610  -1.644  -0.046  0.00  0.00    -0.272 OA
ATOM      4  C   UNL     1       2.142   0.728  -0.281  0.00  0.00    +0.153 C 
ATOM      5  C   UNL     1       3.197   0.818   0.795  0.00  0.00    +0.053 A 
ATOM      6  C   UNL     1       3.347   1.903   1.589  0.00  0.00    -0.015 A 
ATOM      7  C   UNL     1       4.465   1.618   2.471  0.00  0.00    +0.003 A 
ATOM      8  C   UNL     1       5.081   2.361   3.483  0.00  0.00    +0.010 A 
ATOM      9  C   UNL     1       6.138   1.769   4.130  0.00  0.00    +0.001 A 
ATOM     10  C   UNL     1       6.580   0.497   3.806  0.00  0.00    +0.002 A 
ATOM     11  C   UNL     1       5.989  -0.260   2.809  0.00  0.00    +0.026 A 
ATOM     12  C   UNL     1       4.915   0.317   2.134  0.00  0.00    +0.047 A 
ATOM     13  N   UNL     1       4.122  -0.137   1.120  0.00  0.00    -0.356 N 
ATOM     14  H   UNL     1       4.202  -1.004   0.694  0.00  0.00    +0.166 HD
ATOM     15  C   UNL     1       2.511   3.157   1.557  0.00  0.00    +0.056 C 
ATOM     16  C   UNL     1       1.678   3.210   0.268  0.00  0.00    +0.115 C 
ATOM     17  N   UNL     1       1.212   1.852  -0.017  0.00  0.00    -0.265 N 
ATOM     18  C   UNL     1      -0.018   1.339  -0.014  0.00  0.00    +0.317 C 
ATOM     19  O   UNL     1      -1.035   2.005  -0.030  0.00  0.00    -0.252 OA
ATOM     20  C   UNL     1       2.740   0.792  -1.688  0.00  0.00    +0.048 C 
ENDROOT
BRANCH   1  24
ATOM     21  C   UNL     1      -3.399  -2.395   0.317  0.00  0.00    +0.037 A 
ATOM     22  C   UNL     1      -3.505  -1.007   0.439  0.00  0.00    +0.015 A 
ATOM     23  C   UNL     1      -2.379  -0.220   0.334  0.00  0.00    +0.025 A 
ATOM     24  C   UNL     1      -1.138  -0.806   0.108  0.00  0.00    +0.046 A 
ATOM     25  C   UNL     1      -1.030  -2.186  -0.020  0.00  0.00    +0.025 A 
ATOM     26  C   UNL     1      -2.150  -2.979   0.089  0.00  0.00    +0.015 A 
BRANCH  21  28
ATOM     27  N   UNL     1      -4.499  -4.580   0.311  0.00  0.00    -0.309 N 
ATOM     28  C   UNL     1      -4.603  -3.241   0.429  0.00  0.00    +0.244 C 
ATOM     29  O   UNL     1      -5.688  -2.731   0.628  0.00  0.00    -0.270 OA
ATOM     30  H   UNL     1      -3.633  -4.987   0.153  0.00  0.00    +0.149 HD
BRANCH  27  31
ATOM     31  C   UNL     1      -5.694  -5.420   0.422  0.00  0.00    +0.070 C 
ATOM     32  C   UNL     1      -5.972  -5.719   1.897  0.00  0.00    +0.028 C 
BRANCH  31  34
ATOM     33  C   UNL     1      -5.312  -6.445  -1.824  0.00  0.00    +0.005 C 
ATOM     34  C   UNL     1      -5.466  -6.733  -0.329  0.00  0.00    +0.018 C 
ENDBRANCH  31  34
ENDBRANCH  27  31
ENDBRANCH  21  28
ENDBRANCH   1  24
TORSDOF 4
