REMARK  Name = ZINC35746627
REMARK  16 active torsions:
REMARK  status: ('A' for Active; 'I' for Inactive)
REMARK    1  A    between atoms: C_1  and  C_2
REMARK    2  A    between atoms: C_8  and  C_20
REMARK    3  A    between atoms: C_12  and  C_13
REMARK    4  A    between atoms: C_13  and  O_15
REMARK    5  A    between atoms: O_15  and  C_16
REMARK    6  A    between atoms: C_16  and  C_17
REMARK    7  A    between atoms: C_17  and  O_18
REMARK    8  A    between atoms: O_18  and  C_19
REMARK    9  A    between atoms: C_20  and  N_21
REMARK   10  A    between atoms: N_21  and  C_22
REMARK   11  A    between atoms: N_21  and  C_29
REMARK   12  A    between atoms: C_22  and  C_23
REMARK   13  A    between atoms: C_29  and  C_30
REMARK   14  A    between atoms: C_30  and  C_31
REMARK   15  A    between atoms: C_30  and  C_32
REMARK   16  A    between atoms: C_30  and  O_33
REMARK                            x       y       z     vdW  Elec       q    Type
REMARK                         _______ _______ _______ _____ _____    ______ ____
ROOT
ATOM      1  C   UNL     1      -0.790   2.771  -1.354  0.00  0.00    +0.046 C 
ATOM      2  C   UNL     1      -0.229   1.395  -1.105  0.00  0.00    -0.015 A 
ATOM      3  C   UNL     1      -0.389   0.390  -2.061  0.00  0.00    +0.076 A 
ATOM      4  C   UNL     1      -1.066   0.450  -3.376  0.00  0.00    +0.260 A 
ATOM      5  O   UNL     1      -1.586   1.480  -3.765  0.00  0.00    -0.267 OA
ATOM      6  N   UNL     1      -1.091  -0.665  -4.133  0.00  0.00    -0.312 N 
ATOM      7  H   UNL     1      -1.530  -0.643  -4.997  0.00  0.00    +0.170 HD
ATOM      8  C   UNL     1      -0.514  -1.817  -3.710  0.00  0.00    +0.094 A 
ATOM      9  N   UNL     1       0.090  -1.904  -2.556  0.00  0.00    -0.229 NA
ATOM     10  C   UNL     1       0.172  -0.866  -1.734  0.00  0.00    +0.116 A 
ATOM     11  S   UNL     1       0.886  -0.590  -0.133  0.00  0.00    -0.062 S 
ATOM     12  C   UNL     1       0.442   1.129   0.054  0.00  0.00    +0.102 A 
ENDROOT
BRANCH  12  13
ATOM     13  C   UNL     1       0.725   2.029   1.174  0.00  0.00    +0.346 C 
ATOM     14  O   UNL     1       0.342   3.183   1.138  0.00  0.00    -0.244 OA
BRANCH  13  15
ATOM     15  O   UNL     1       1.409   1.579   2.245  0.00  0.00    -0.458 OA
BRANCH  15  16
ATOM     16  C   UNL     1       1.650   2.512   3.301  0.00  0.00    +0.260 C 
BRANCH  16  17
ATOM     17  C   UNL     1       2.434   1.825   4.421  0.00  0.00    +0.200 C 
BRANCH  17  18
ATOM     18  O   UNL     1       3.728   1.457   3.939  0.00  0.00    -0.380 OA
ATOM     19  C   UNL     1       4.546   0.804   4.912  0.00  0.00    +0.194 C 
ENDBRANCH  17  18
ENDBRANCH  16  17
ENDBRANCH  15  16
ENDBRANCH  13  15
ENDBRANCH  12  13
BRANCH   8  20
ATOM     20  C   UNL     1      -0.574  -3.034  -4.598  0.00  0.00    -0.003 C 
BRANCH  20  21
ATOM     21  N   UNL     1      -0.044  -4.196  -3.873  0.00  0.00    +0.389 N 
ATOM     22  H   UNL     1       0.606  -3.884  -3.167  0.00  0.00    -0.081 HD
BRANCH  21  23
ATOM     23  C   UNL     1       0.647  -5.087  -4.814  0.00  0.00    -0.042 C 
BRANCH  23  24
ATOM     24  C   UNL     1       1.327  -6.194  -4.051  0.00  0.00    -0.064 A 
ATOM     25  C   UNL     1       2.576  -5.987  -3.497  0.00  0.00    +0.002 A 
ATOM     26  C   UNL     1       3.200  -7.003  -2.797  0.00  0.00    +0.000 A 
ATOM     27  C   UNL     1       2.573  -8.226  -2.650  0.00  0.00    +0.000 A 
ATOM     28  C   UNL     1       1.323  -8.434  -3.203  0.00  0.00    +0.000 A 
ATOM     29  C   UNL     1       0.698  -7.417  -3.900  0.00  0.00    +0.002 A 
ENDBRANCH  23  24
ENDBRANCH  21  23
BRANCH  21  30
ATOM     30  C   UNL     1      -1.150  -4.921  -3.234  0.00  0.00    -0.043 C 
BRANCH  30  31
ATOM     31  C   UNL     1      -1.367  -4.378  -1.820  0.00  0.00    +0.046 C 
ATOM     32  C   UNL     1      -2.514  -5.139  -1.152  0.00  0.00    +0.039 C 
ATOM     33  C   UNL     1      -0.088  -4.563  -1.002  0.00  0.00    +0.039 C 
BRANCH  31  34
ATOM     34  O   UNL     1      -1.693  -2.989  -1.888  0.00  0.00    -0.391 OA
ATOM     35  H   UNL     1      -1.778  -2.562  -1.024  0.00  0.00    +0.210 HD
ENDBRANCH  31  34
ENDBRANCH  30  31
ENDBRANCH  21  30
ENDBRANCH  20  21
ENDBRANCH   8  20
TORSDOF 12
