REMARK  Name = ZINC21228450
REMARK  9 active torsions:
REMARK  status: ('A' for Active; 'I' for Inactive)
REMARK    1  A    between atoms: C_1  and  C_2
REMARK    2  A    between atoms: C_2  and  N_3
REMARK    3  A    between atoms: C_12  and  S_13
REMARK    4  A    between atoms: S_13  and  C_14
REMARK    5  A    between atoms: C_14  and  C_16
REMARK    6  A    between atoms: C_14  and  C_17
REMARK    7  A    between atoms: N_19  and  C_20
REMARK    8  A    between atoms: C_23  and  C_26
REMARK    9  A    between atoms: C_30  and  C_34
REMARK                            x       y       z     vdW  Elec       q    Type
REMARK                         _______ _______ _______ _____ _____    ______ ____
ROOT
ATOM      1  S   UNL     1       1.818   2.313   2.189  0.00  0.00    -0.075 S 
ENDROOT
BRANCH   1  11
ATOM      2  N   UNL     1      -0.634   2.460   1.045  0.00  0.00    -0.288 N 
ATOM      3  C   UNL     1      -1.968   2.632   1.023  0.00  0.00    +0.263 A 
ATOM      4  O   UNL     1      -2.582   2.563  -0.028  0.00  0.00    -0.267 OA
ATOM      5  C   UNL     1      -2.657   2.891   2.250  0.00  0.00    +0.076 A 
ATOM      6  C   UNL     1      -4.091   3.101   2.458  0.00  0.00    -0.023 A 
ATOM      7  C   UNL     1      -4.498   3.335   3.723  0.00  0.00    -0.004 A 
ATOM      8  S   UNL     1      -3.018   3.291   4.698  0.00  0.00    -0.073 S 
ATOM      9  C   UNL     1      -1.854   2.956   3.401  0.00  0.00    +0.117 A 
ATOM     10  N   UNL     1      -0.538   2.782   3.355  0.00  0.00    -0.216 NA
ATOM     11  C   UNL     1       0.071   2.539   2.212  0.00  0.00    +0.173 A 
ATOM     12  C   UNL     1      -5.899   3.578   4.195  0.00  0.00    +0.046 C 
ATOM     13  C   UNL     1      -6.866   3.155   3.081  0.00  0.00    -0.009 C 
ATOM     14  C   UNL     1      -6.383   3.755   1.757  0.00  0.00    +0.008 C 
ATOM     15  C   UNL     1      -5.096   3.062   1.311  0.00  0.00    +0.037 C 
ATOM     16  C   UNL     1      -8.271   3.671   3.397  0.00  0.00    +0.008 C 
BRANCH   2  18
ATOM     17  C   UNL     1       0.145   0.677  -0.437  0.00  0.00    +0.027 C 
ATOM     18  C   UNL     1       0.077   2.188  -0.206  0.00  0.00    +0.124 C 
ENDBRANCH   2  18
ENDBRANCH   1  11
BRANCH   1  19
ATOM     19  C   UNL     1       2.185   2.522   3.949  0.00  0.00    +0.137 C 
ATOM     20  C   UNL     1       1.533   1.389   4.744  0.00  0.00    +0.029 C 
BRANCH  19  21
ATOM     21  C   UNL     1       3.677   2.488   4.158  0.00  0.00    +0.230 C 
ATOM     22  O   UNL     1       4.396   1.990   3.318  0.00  0.00    -0.274 OA
ATOM     23  N   UNL     1       4.213   3.012   5.279  0.00  0.00    -0.285 N 
ATOM     24  H   UNL     1       3.571   3.540   6.000  0.00  0.00    +0.155 HD
BRANCH  23  25
ATOM     25  C   UNL     1       5.579   2.884   5.524  0.00  0.00    +0.033 A 
ATOM     26  C   UNL     1       6.255   1.741   5.108  0.00  0.00    +0.024 A 
ATOM     27  C   UNL     1       7.605   1.613   5.345  0.00  0.00    +0.015 A 
ATOM     28  C   UNL     1       8.295   2.628   6.014  0.00  0.00    +0.037 A 
ATOM     29  C   UNL     1       7.612   3.772   6.435  0.00  0.00    +0.015 A 
ATOM     30  C   UNL     1       6.263   3.896   6.191  0.00  0.00    +0.024 A 
BRANCH  28  31
ATOM     31  C   UNL     1       9.741   2.492   6.274  0.00  0.00    +0.242 C 
ATOM     32  O   UNL     1      10.340   3.376   6.856  0.00  0.00    -0.270 OA
ATOM     33  N   UNL     1      10.398   1.388   5.867  0.00  0.00    -0.325 N 
ATOM     34  H   UNL     1      11.476   1.287   6.061  0.00  0.00    +0.145 HD
ATOM     35  H   UNL     1       9.857   0.589   5.340  0.00  0.00    +0.145 HD
ENDBRANCH  28  31
ENDBRANCH  23  25
ENDBRANCH  19  21
ENDBRANCH   1  19
TORSDOF 6
