REMARK  Name = ZINC12402354
REMARK  7 active torsions:
REMARK  status: ('A' for Active; 'I' for Inactive)
REMARK    1  A    between atoms: C_1  and  C_2
REMARK    2  A    between atoms: C_2  and  C_32
REMARK    3  A    between atoms: C_6  and  C_21
REMARK    4  A    between atoms: C_8  and  C_19
REMARK    5  A    between atoms: C_9  and  N_18
REMARK    6  A    between atoms: N_10  and  C_11
REMARK    7  A    between atoms: C_24  and  N_26
REMARK                            x       y       z     vdW  Elec       q    Type
REMARK                         _______ _______ _______ _____ _____    ______ ____
ROOT
ATOM      1  C   UNL     1      -5.776   7.866  -2.694  0.00  0.00    +0.011 C 
ATOM      2  C   UNL     1      -4.474   7.406  -3.352  0.00  0.00    -0.023 C 
ATOM      3  C   UNL     1      -3.306   7.619  -2.386  0.00  0.00    +0.058 C 
ATOM      4  C   UNL     1      -3.522   6.794  -1.142  0.00  0.00    +0.025 C 
ATOM      5  C   UNL     1      -4.181   5.618  -1.192  0.00  0.00    +0.026 C 
ATOM      6  C   UNL     1      -4.378   4.785   0.048  0.00  0.00    +0.104 C 
ATOM      7  C   UNL     1      -4.169   5.602   1.289  0.00  0.00    +0.077 C 
ATOM      8  C   UNL     1      -3.510   6.789   1.244  0.00  0.00    +0.107 C 
ATOM      9  N   UNL     1      -3.027   7.266   0.046  0.00  0.00    -0.259 N 
ATOM     10  C   UNL     1      -4.709   5.135  -2.404  0.00  0.00    +0.162 C 
ATOM     11  O   UNL     1      -5.292   4.069  -2.417  0.00  0.00    -0.292 OA
ATOM     12  C   UNL     1      -4.564   5.913  -3.683  0.00  0.00    +0.086 C 
ATOM     13  C   UNL     1      -4.234   8.207  -4.633  0.00  0.00    +0.011 C 
ENDROOT
BRANCH   9  14
ATOM     14  C   UNL     1      -2.022   8.241   0.041  0.00  0.00    +0.058 A 
ATOM     15  C   UNL     1      -0.686   7.863   0.033  0.00  0.00    +0.025 A 
ATOM     16  C   UNL     1       0.303   8.826   0.028  0.00  0.00    +0.002 A 
ATOM     17  C   UNL     1      -0.035  10.168   0.032  0.00  0.00    +0.002 A 
ATOM     18  C   UNL     1      -1.364  10.548   0.040  0.00  0.00    +0.022 A 
ATOM     19  C   UNL     1      -2.359   9.589   0.039  0.00  0.00    +0.063 A 
ATOM     20 CL   UNL     1      -4.028  10.067   0.042  0.00  0.00    -0.082 Cl
ENDBRANCH   9  14
BRANCH   6  21
ATOM     21  C   UNL     1      -3.395   3.643   0.038  0.00  0.00    +0.005 A 
ATOM     22  C   UNL     1      -3.636   2.309   0.032  0.00  0.00    +0.014 A 
ATOM     23  C   UNL     1      -2.565   1.434   0.017  0.00  0.00    +0.041 A 
ATOM     24  C   UNL     1      -1.306   1.937   0.019  0.00  0.00    +0.164 A 
ATOM     25  S   UNL     1      -1.611   3.696   0.029  0.00  0.00    -0.068 S 
BRANCH  24  26
ATOM     26  N   UNL     1      -0.014   1.214   0.009  0.00  0.00    +0.063 N 
ATOM     27  O   UNL     1       0.002  -0.004   0.002  0.00  0.00    -0.126 OA
ATOM     28  O   UNL     1       1.032   1.837   0.002  0.00  0.00    -0.126 OA
ENDBRANCH  24  26
ENDBRANCH   6  21
BRANCH   8  29
ATOM     29  N   UNL     1      -3.325   7.515   2.396  0.00  0.00    -0.345 N 
ATOM     30  H   UNL     1      -3.665   7.180   3.240  0.00  0.00    +0.144 HD
ATOM     31  H   UNL     1      -2.854   8.363   2.364  0.00  0.00    +0.144 HD
ENDBRANCH   8  29
BRANCH   7  32
ATOM     32  C   UNL     1      -4.673   5.124   2.541  0.00  0.00    +0.099 C 
ATOM     33  N   UNL     1      -5.072   4.745   3.534  0.00  0.00    -0.191 NA
ENDBRANCH   7  32
TORSDOF 5
