REMARK  Name = ZINC09477852
REMARK  11 active torsions:
REMARK  status: ('A' for Active; 'I' for Inactive)
REMARK    1  A    between atoms: C_1  and  N_2
REMARK    2  A    between atoms: C_6  and  S_28
REMARK    3  A    between atoms: C_10  and  C_11
REMARK    4  A    between atoms: C_11  and  C_12
REMARK    5  A    between atoms: C_12  and  C_13
REMARK    6  A    between atoms: N_15  and  C_16
REMARK    7  A    between atoms: C_16  and  C_17
REMARK    8  A    between atoms: C_17  and  C_22
REMARK    9  A    between atoms: S_28  and  N_31
REMARK   10  A    between atoms: N_31  and  C_32
REMARK   11  A    between atoms: N_31  and  C_33
REMARK                            x       y       z     vdW  Elec       q    Type
REMARK                         _______ _______ _______ _____ _____    ______ ____
ROOT
ATOM      1  C   UNL     1      -3.112  -3.791   0.622  0.00  0.00    +0.083 C 
ENDROOT
BRANCH   1  11
ATOM      2  C   UNL     1      -4.679  -4.120   3.267  0.00  0.00    +0.150 C 
ATOM      3  N   UNL     1      -5.204  -4.408   1.930  0.00  0.00    -0.331 N 
ATOM      4  C   UNL     1      -6.471  -4.866   1.630  0.00  0.00    +0.069 A 
ATOM      5  C   UNL     1      -7.588  -5.188   2.389  0.00  0.00    +0.030 A 
ATOM      6  C   UNL     1      -8.732  -5.637   1.765  0.00  0.00    +0.030 A 
ATOM      7  C   UNL     1      -8.773  -5.770   0.384  0.00  0.00    +0.108 A 
ATOM      8  C   UNL     1      -7.684  -5.458  -0.379  0.00  0.00    +0.058 A 
ATOM      9  C   UNL     1      -6.514  -5.001   0.232  0.00  0.00    +0.091 A 
ATOM     10  N   UNL     1      -5.298  -4.621  -0.239  0.00  0.00    -0.232 NA
ATOM     11  C   UNL     1      -4.534  -4.271   0.754  0.00  0.00    +0.111 A 
BRANCH   7  12
ATOM     12  S   UNL     1     -10.246  -6.347  -0.393  0.00  0.00    +0.060 S 
ATOM     13  O   UNL     1      -9.856  -6.904  -1.640  0.00  0.00    -0.153 OA
ATOM     14  O   UNL     1     -10.956  -7.093   0.586  0.00  0.00    -0.153 OA
BRANCH  12  15
ATOM     15  N   UNL     1     -11.171  -5.017  -0.737  0.00  0.00    -0.183 NA
ATOM     16  C   UNL     1     -11.020  -4.333  -2.023  0.00  0.00    +0.131 C 
ATOM     17  C   UNL     1     -12.141  -4.526   0.245  0.00  0.00    +0.131 C 
ENDBRANCH  12  15
ENDBRANCH   7  12
ENDBRANCH   1  11
BRANCH   1  18
ATOM     18  C   UNL     1      -3.101  -2.269   0.461  0.00  0.00    +0.103 C 
BRANCH  18  19
ATOM     19  C   UNL     1      -1.678  -1.788   0.329  0.00  0.00    +0.213 C 
ATOM     20  O   UNL     1      -0.764  -2.584   0.360  0.00  0.00    -0.276 OA
ATOM     21  N   UNL     1      -1.423  -0.474   0.175  0.00  0.00    -0.314 N 
ATOM     22  H   UNL     1      -2.154   0.163   0.150  0.00  0.00    +0.149 HD
BRANCH  21  23
ATOM     23  C   UNL     1      -0.040  -0.007   0.047  0.00  0.00    +0.115 C 
BRANCH  23  24
ATOM     24  C   UNL     1      -0.026   1.519  -0.067  0.00  0.00    +0.011 C 
ATOM     25  C   UNL     1      -0.884   1.967  -1.263  0.00  0.00    +0.013 C 
ATOM     26  C   UNL     1       0.058   2.719  -2.224  0.00  0.00    +0.001 C 
ATOM     27  C   UNL     1       1.466   2.171  -1.883  0.00  0.00    +0.001 C 
ATOM     28  C   UNL     1       1.408   2.015  -0.343  0.00  0.00    +0.013 C 
BRANCH  24  29
ATOM     29  C   UNL     1      -0.549   2.135   1.205  0.00  0.00    -0.040 A 
ATOM     30  C   UNL     1      -0.721   3.505   1.290  0.00  0.00    +0.004 A 
ATOM     31  C   UNL     1      -1.206   4.069   2.455  0.00  0.00    +0.000 A 
ATOM     32  C   UNL     1      -1.509   3.267   3.538  0.00  0.00    +0.000 A 
ATOM     33  C   UNL     1      -1.332   1.898   3.455  0.00  0.00    +0.000 A 
ATOM     34  C   UNL     1      -0.852   1.333   2.289  0.00  0.00    +0.004 A 
ENDBRANCH  24  29
ENDBRANCH  23  24
ENDBRANCH  21  23
ENDBRANCH  18  19
ENDBRANCH   1  18
TORSDOF 8
