REMARK  Name = ZINC63526199
REMARK  3 active torsions:
REMARK  status: ('A' for Active; 'I' for Inactive)
REMARK    1  A    between atoms: C_1  and  C_2
REMARK    2  A    between atoms: C_7  and  N_8
REMARK    3  A    between atoms: C_27  and  C_30
REMARK                            x       y       z     vdW  Elec       q    Type
REMARK                         _______ _______ _______ _____ _____    ______ ____
ROOT
ATOM      1  N   UNL     1       0.049  -0.246   2.584  0.00  0.00    -0.189 N 
ATOM      2  C   UNL     1      -1.125   0.043   3.182  0.00  0.00    +0.265 C 
ATOM      3  O   UNL     1      -2.158  -0.487   2.818  0.00  0.00    -0.269 OA
ATOM      4  C   UNL     1      -1.123   1.018   4.286  0.00  0.00    +0.117 C 
ATOM      5  C   UNL     1       0.175   1.609   4.658  0.00  0.00    +0.258 C 
ATOM      6  N   UNL     1       1.270   1.225   3.970  0.00  0.00    -0.235 N 
ATOM      7  H   UNL     1       2.132   1.604   4.203  0.00  0.00    +0.159 HD
ATOM      8  C   UNL     1       1.195   0.327   2.978  0.00  0.00    +0.320 C 
ATOM      9  O   UNL     1       2.220   0.020   2.401  0.00  0.00    -0.251 OA
ATOM     10  O   UNL     1       0.256   2.422   5.559  0.00  0.00    -0.270 OA
ATOM     11  C   UNL     1      -2.289   1.364   4.946  0.00  0.00    +0.027 C 
ATOM     12  N   UNL     1      -3.377   1.091   4.315  0.00  0.00    -0.316 N 
ATOM     13  C   UNL     1      -4.726   0.983   4.509  0.00  0.00    +0.045 A 
ATOM     14  C   UNL     1      -5.418   0.347   3.464  0.00  0.00    +0.024 A 
ATOM     15  C   UNL     1      -6.779   0.163   3.503  0.00  0.00    +0.002 A 
ATOM     16  C   UNL     1      -7.499   0.612   4.596  0.00  0.00    +0.001 A 
ATOM     17  C   UNL     1      -6.839   1.234   5.629  0.00  0.00    +0.016 A 
ATOM     18  C   UNL     1      -5.450   1.428   5.605  0.00  0.00    +0.030 A 
ATOM     19  S   UNL     1      -4.753   2.228   6.993  0.00  0.00    -0.115 S 
ATOM     20  C   UNL     1      -3.126   1.547   7.277  0.00  0.00    +0.087 C 
ATOM     21  C   UNL     1      -2.098   1.992   6.281  0.00  0.00    +0.071 C 
ATOM     22  H   UNL     1      -3.169   0.896   3.387  0.00  0.00    +0.152 HD
ENDROOT
BRANCH  20  23
ATOM     23  C   UNL     1      -2.667   1.956   8.653  0.00  0.00    -0.030 A 
ATOM     24  C   UNL     1      -2.549   3.296   8.971  0.00  0.00    +0.008 A 
ATOM     25  C   UNL     1      -2.129   3.676  10.232  0.00  0.00    +0.050 A 
ATOM     26  C   UNL     1      -1.825   2.713  11.181  0.00  0.00    +0.166 A 
ATOM     27  C   UNL     1      -1.944   1.363  10.860  0.00  0.00    +0.167 A 
ATOM     28  C   UNL     1      -2.371   0.990   9.596  0.00  0.00    +0.054 A 
ATOM     29  O   UNL     1      -1.590   0.623  11.951  0.00  0.00    -0.453 OA
ATOM     30  C   UNL     1      -0.864   1.524  12.808  0.00  0.00    +0.466 C 
ATOM     31  O   UNL     1      -1.397   2.819  12.473  0.00  0.00    -0.453 OA
ENDBRANCH  20  23
BRANCH   1  38
ATOM     32  C   UNL     1      -0.293   0.726  -0.069  0.00  0.00    +0.045 C 
ATOM     33  C   UNL     1      -0.091  -0.738   0.222  0.00  0.00    -0.029 A 
ATOM     34  C   UNL     1      -0.063  -1.652  -0.814  0.00  0.00    +0.005 A 
ATOM     35  C   UNL     1       0.123  -2.995  -0.548  0.00  0.00    +0.000 A 
ATOM     36  C   UNL     1       0.281  -3.430   0.756  0.00  0.00    +0.002 A 
ATOM     37  C   UNL     1       0.253  -2.522   1.796  0.00  0.00    +0.024 A 
ATOM     38  C   UNL     1       0.072  -1.171   1.531  0.00  0.00    +0.049 A 
ENDBRANCH   1  38
TORSDOF 2
