REMARK  Name = ZINC38980514
REMARK  7 active torsions:
REMARK  status: ('A' for Active; 'I' for Inactive)
REMARK    1  A    between atoms: C_1  and  O_2
REMARK    2  A    between atoms: O_2  and  C_3
REMARK    3  A    between atoms: C_7  and  C_11
REMARK    4  A    between atoms: C_8  and  O_9
REMARK    5  A    between atoms: O_9  and  C_10
REMARK    6  A    between atoms: N_12  and  N_13
REMARK    7  A    between atoms: C_14  and  C_20
REMARK                            x       y       z     vdW  Elec       q    Type
REMARK                         _______ _______ _______ _____ _____    ______ ____
ROOT
ATOM      1  N   UNL     1      -1.542  -6.241  -0.098  0.00  0.00    -0.175 N 
ATOM      2  C   UNL     1      -0.407  -7.179  -0.117  0.00  0.00    +0.230 C 
ATOM      3  N   UNL     1      -1.043  -8.502  -0.242  0.00  0.00    -0.242 N 
ATOM      4  N   UNL     1      -2.423  -8.268  -0.285  0.00  0.00    -0.160 NA
ATOM      5  C   UNL     1      -2.691  -7.008  -0.199  0.00  0.00    +0.206 C 
ATOM      6  S   UNL     1      -4.323  -6.343  -0.213  0.00  0.00    -0.011 SA
ATOM      7  H   UNL     1      -0.596  -9.361  -0.286  0.00  0.00    +0.170 HD
ENDROOT
BRANCH   2   8
ATOM      8  C   UNL     1       0.500  -6.900  -1.317  0.00  0.00    +0.197 C 
ATOM      9  C   UNL     1       1.635  -7.902  -1.376  0.00  0.00    -0.017 C 
ATOM     10  C   UNL     1       1.466  -8.539  -2.533  0.00  0.00    +0.065 C 
ATOM     11  C   UNL     1       2.554  -9.583  -2.709  0.00  0.00    +0.057 C 
ATOM     12  C   UNL     1       3.653  -9.193  -1.697  0.00  0.00    +0.011 C 
ATOM     13  C   UNL     1       2.840  -8.419  -0.635  0.00  0.00    +0.035 C 
ATOM     14  N   UNL     1       0.372  -8.047  -3.177  0.00  0.00    -0.158 NA
ATOM     15  N   UNL     1      -0.218  -7.141  -2.580  0.00  0.00    -0.176 NA
ENDBRANCH   2   8
BRANCH   1  17
ATOM     16  C   UNL     1      -0.328  -4.265   0.204  0.00  0.00    +0.142 C 
ATOM     17  N   UNL     1      -1.473  -4.846   0.008  0.00  0.00    -0.184 NA
BRANCH  16  22
ATOM     18  C   UNL     1      -1.287  -0.633  -0.021  0.00  0.00    +0.162 A 
ATOM     19  C   UNL     1      -0.060  -0.023   0.190  0.00  0.00    +0.049 A 
ATOM     20  C   UNL     1       1.073  -0.788   0.403  0.00  0.00    +0.004 A 
ATOM     21  C   UNL     1       0.993  -2.165   0.409  0.00  0.00    +0.013 A 
ATOM     22  C   UNL     1      -0.238  -2.794   0.199  0.00  0.00    +0.040 A 
ATOM     23  C   UNL     1      -1.385  -2.019  -0.011  0.00  0.00    +0.170 A 
BRANCH  18  25
ATOM     24  C   UNL     1      -2.223   1.544  -0.226  0.00  0.00    +0.277 C 
ATOM     25  O   UNL     1      -2.397   0.125  -0.230  0.00  0.00    -0.491 OA
ENDBRANCH  18  25
BRANCH  23  26
ATOM     26  O   UNL     1      -2.588  -2.620  -0.212  0.00  0.00    -0.491 OA
ATOM     27  C   UNL     1      -2.941  -2.931  -1.561  0.00  0.00    +0.277 C 
ENDBRANCH  23  26
ENDBRANCH  16  22
ENDBRANCH   1  17
TORSDOF 5
