REMARK  Name = ZINC21298084
REMARK  8 active torsions:
REMARK  status: ('A' for Active; 'I' for Inactive)
REMARK    1  A    between atoms: C_1  and  C_2
REMARK    2  A    between atoms: C_6  and  N_9
REMARK    3  A    between atoms: C_7  and  C_8
REMARK    4  A    between atoms: N_9  and  C_10
REMARK    5  A    between atoms: C_10  and  N_12
REMARK    6  A    between atoms: N_12  and  N_13
REMARK    7  A    between atoms: C_14  and  C_16
REMARK    8  A    between atoms: C_17  and  C_21
REMARK                            x       y       z     vdW  Elec       q    Type
REMARK                         _______ _______ _______ _____ _____    ______ ____
ROOT
ATOM      1  C   UNL     1      -1.159   7.981   0.442  0.00  0.00    +0.151 C 
ATOM      2  S   UNL     1      -2.022   9.367   0.957  0.00  0.00    -0.017 S 
ENDROOT
BRANCH   1   3
ATOM      3  N   UNL     1       0.123   8.096   0.041  0.00  0.00    -0.296 N 
ATOM      4  H   UNL     1       0.706   7.195  -0.204  0.00  0.00    +0.154 HD
BRANCH   3  10
ATOM      5  C   UNL     1       3.964  11.055   0.852  0.00  0.00    +0.044 C 
ATOM      6  C   UNL     1       2.573  10.823   0.321  0.00  0.00    -0.046 A 
ATOM      7  C   UNL     1       1.878  11.861  -0.271  0.00  0.00    +0.004 A 
ATOM      8  C   UNL     1       0.601  11.652  -0.760  0.00  0.00    +0.002 A 
ATOM      9  C   UNL     1       0.017  10.405  -0.658  0.00  0.00    +0.023 A 
ATOM     10  C   UNL     1       0.712   9.360  -0.064  0.00  0.00    +0.036 A 
ATOM     11  C   UNL     1       1.992   9.575   0.431  0.00  0.00    -0.026 A 
ATOM     12  C   UNL     1       2.748   8.445   1.082  0.00  0.00    +0.046 C 
ENDBRANCH   3  10
ENDBRANCH   1   3
BRANCH   1  13
ATOM     13  N   UNL     1      -1.761   6.775   0.438  0.00  0.00    -0.245 N 
ATOM     14  H   UNL     1      -2.807   6.681   0.765  0.00  0.00    +0.172 HD
BRANCH  13  15
ATOM     15  N   UNL     1      -1.054   5.641   0.016  0.00  0.00    -0.229 N 
ATOM     16  C   UNL     1      -1.656   4.435   0.012  0.00  0.00    +0.296 C 
ATOM     17  O   UNL     1      -2.813   4.331   0.374  0.00  0.00    -0.265 OA
ATOM     18  H   UNL     1      -0.008   5.735  -0.311  0.00  0.00    +0.173 HD
BRANCH  16  19
ATOM     19  C   UNL     1      -0.916   3.248  -0.429  0.00  0.00    +0.193 A 
ATOM     20  C   UNL     1      -1.405   1.974  -0.488  0.00  0.00    -0.000 A 
ATOM     21  C   UNL     1      -0.361   1.163  -0.960  0.00  0.00    +0.045 A 
ATOM     22  C   UNL     1       0.703   1.968  -1.173  0.00  0.00    +0.196 A 
ATOM     23  O   UNL     1       0.364   3.224  -0.852  0.00  0.00    -0.458 OA
ATOM     24  C   UNL     1      -2.795   1.526  -0.117  0.00  0.00    +0.048 C 
ENDBRANCH  16  19
ENDBRANCH  13  15
ENDBRANCH   1  13
TORSDOF 5
