REMARK  Name = ZINC03403546
REMARK  5 active torsions:
REMARK  status: ('A' for Active; 'I' for Inactive)
REMARK    1  A    between atoms: C_1  and  C_2
REMARK    2  A    between atoms: C_3  and  C_13
REMARK    3  A    between atoms: C_4  and  C_7
REMARK    4  A    between atoms: N_15  and  C_16
REMARK    5  A    between atoms: C_17  and  C_21
REMARK                            x       y       z     vdW  Elec       q    Type
REMARK                         _______ _______ _______ _____ _____    ______ ____
ROOT
ATOM      1  C   UNL     1      -0.018   1.503   0.010  0.00  0.00    +0.090 C 
ATOM      2  C   UNL     1       0.002  -0.004   0.002  0.00  0.00    +0.147 A 
ATOM      3  C   UNL     1      -1.093  -0.818   0.003  0.00  0.00    +0.106 A 
ATOM      4  C   UNL     1      -0.592  -2.201  -0.007  0.00  0.00    +0.126 A 
ATOM      5  N   UNL     1       0.715  -2.133  -0.013  0.00  0.00    -0.077 NA
ATOM      6  O   UNL     1       1.095  -0.772  -0.013  0.00  0.00    -0.359 OA
ENDROOT
BRANCH   4   7
ATOM      7  C   UNL     1      -1.413  -3.437  -0.010  0.00  0.00    +0.004 A 
ATOM      8  C   UNL     1      -2.621  -3.476   0.683  0.00  0.00    +0.010 A 
ATOM      9  C   UNL     1      -3.381  -4.628   0.677  0.00  0.00    +0.001 A 
ATOM     10  C   UNL     1      -2.944  -5.744  -0.015  0.00  0.00    +0.000 A 
ATOM     11  C   UNL     1      -1.744  -5.711  -0.704  0.00  0.00    +0.001 A 
ATOM     12  C   UNL     1      -0.980  -4.562  -0.709  0.00  0.00    +0.010 A 
ENDBRANCH   4   7
BRANCH   3  13
ATOM     13  C   UNL     1      -2.502  -0.394   0.012  0.00  0.00    +0.254 C 
ATOM     14  O   UNL     1      -3.090  -0.213  -1.038  0.00  0.00    -0.270 OA
ATOM     15  N   UNL     1      -3.142  -0.206   1.183  0.00  0.00    -0.275 N 
ATOM     16  H   UNL     1      -2.674  -0.350   2.020  0.00  0.00    +0.156 HD
BRANCH  15  17
ATOM     17  C   UNL     1      -4.470   0.193   1.192  0.00  0.00    +0.089 A 
ATOM     18  C   UNL     1      -5.279   0.438   2.291  0.00  0.00    +0.080 A 
ATOM     19  C   UNL     1      -6.638   0.847   2.016  0.00  0.00    +0.028 A 
ATOM     20  C   UNL     1      -6.968   0.945   0.714  0.00  0.00    +0.048 A 
ATOM     21  S   UNL     1      -5.464   0.498  -0.125  0.00  0.00    -0.081 S 
BRANCH  18  22
ATOM     22  C   UNL     1      -4.794   0.293   3.630  0.00  0.00    +0.102 C 
ATOM     23  N   UNL     1      -4.409   0.178   4.693  0.00  0.00    -0.191 NA
ENDBRANCH  18  22
ENDBRANCH  15  17
ENDBRANCH   3  13
TORSDOF 4
