REMARK  Name = ZINC12208667
REMARK  10 active torsions:
REMARK  status: ('A' for Active; 'I' for Inactive)
REMARK    1  A    between atoms: C_1  and  N_68
REMARK    2  A    between atoms: C_2  and  N_68
REMARK    3  A    between atoms: C_3  and  C_4
REMARK    4  A    between atoms: C_3  and  N_68
REMARK    5  A    between atoms: C_4  and  N_5
REMARK    6  A    between atoms: C_8  and  C_12
REMARK    7  A    between atoms: C_8  and  C_20
REMARK    8  A    between atoms: C_12  and  C_13
REMARK    9  A    between atoms: C_13  and  C_14
REMARK   10  A    between atoms: C_26  and  C_28
REMARK                            x       y       z     vdW  Elec       q    Type
REMARK                         _______ _______ _______ _____ _____    ______ ____
ROOT
ATOM      1  N   UNL     1       5.080   8.243  -2.893  0.00  0.00    -0.226 N 
ATOM      2  C   UNL     1       5.569   7.774  -1.728  0.00  0.00    +0.247 C 
ATOM      3  O   UNL     1       5.955   8.424  -0.781  0.00  0.00    -0.273 OA
ATOM      4  C   UNL     1       5.535   6.263  -1.849  0.00  0.00    +0.116 C 
ATOM      5  N   UNL     1       4.979   6.035  -3.193  0.00  0.00    -0.285 N 
ATOM      6  C   UNL     1       4.745   7.249  -3.724  0.00  0.00    +0.309 C 
ATOM      7  O   UNL     1       4.281   7.424  -4.833  0.00  0.00    -0.252 OA
ATOM      8  H   UNL     1       4.814   5.177  -3.615  0.00  0.00    +0.151 HD
ENDROOT
BRANCH   4   9
ATOM      9  C   UNL     1       4.624   5.658  -0.779  0.00  0.00    +0.024 C 
ATOM     10  C   UNL     1       3.236   6.296  -0.872  0.00  0.00    +0.025 C 
ATOM     11  C   UNL     1       2.336   5.713   0.223  0.00  0.00    +0.108 C 
ATOM     12  N   UNL     1       2.336   4.248   0.104  0.00  0.00    -0.297 N 
ATOM     13  C   UNL     1       3.624   3.540   0.096  0.00  0.00    +0.108 C 
ATOM     14  C   UNL     1       4.509   4.148  -1.002  0.00  0.00    +0.025 C 
ATOM     15  C   UNL     1       1.177   3.567   0.009  0.00  0.00    +0.249 C 
ATOM     16  O   UNL     1       0.125   4.168  -0.084  0.00  0.00    -0.270 OA
BRANCH  15  17
ATOM     17  C   UNL     1       1.186   2.090   0.020  0.00  0.00    +0.072 A 
ATOM     18  C   UNL     1       1.817   1.399   1.057  0.00  0.00    +0.016 A 
ATOM     19  C   UNL     1       1.822   0.020   1.060  0.00  0.00    +0.001 A 
ATOM     20  C   UNL     1       1.203  -0.681   0.039  0.00  0.00    +0.003 A 
ATOM     21  C   UNL     1       0.576  -0.007  -0.991  0.00  0.00    +0.039 A 
ATOM     22  C   UNL     1       0.563   1.376  -1.009  0.00  0.00    +0.135 A 
ATOM     23  F   UNL     1      -0.045   2.036  -2.019  0.00  0.00    -0.205 F 
ENDBRANCH  15  17
ENDBRANCH   4   9
BRANCH   1  24
ATOM     24  C   UNL     1       4.931   9.666  -3.209  0.00  0.00    +0.099 C 
BRANCH  24  25
ATOM     25  C   UNL     1       3.548  10.146  -2.766  0.00  0.00    -0.060 C 
BRANCH  25  28
ATOM     26  C   UNL     1       3.396  11.791  -4.536  0.00  0.00    -0.097 C 
ATOM     27  C   UNL     1       2.188  12.126  -2.465  0.00  0.00    -0.097 C 
ATOM     28  N   UNL     1       3.422  11.586  -3.072  0.00  0.00    +0.377 N 
ATOM     29  H   UNL     1       4.231  12.082  -2.681  0.00  0.00    -0.083 HD
ENDBRANCH  25  28
ENDBRANCH  24  25
ENDBRANCH   1  24
BRANCH   4  30
ATOM     30  C   UNL     1       6.946   5.680  -1.744  0.00  0.00    +0.040 C 
BRANCH  30  31
ATOM     31  C   UNL     1       7.836   6.301  -2.823  0.00  0.00    +0.038 C 
BRANCH  31  32
ATOM     32  C   UNL     1       9.225   5.726  -2.720  0.00  0.00    -0.047 A 
ATOM     33  C   UNL     1      10.170   6.342  -1.921  0.00  0.00    +0.003 A 
ATOM     34  C   UNL     1      11.443   5.813  -1.823  0.00  0.00    +0.000 A 
ATOM     35  C   UNL     1      11.774   4.673  -2.532  0.00  0.00    +0.000 A 
ATOM     36  C   UNL     1      10.831   4.061  -3.335  0.00  0.00    +0.000 A 
ATOM     37  C   UNL     1       9.556   4.587  -3.429  0.00  0.00    +0.003 A 
ENDBRANCH  31  32
ENDBRANCH  30  31
ENDBRANCH   4  30
TORSDOF 8
