REMARK  Name = ZINC31755496
REMARK  7 active torsions:
REMARK  status: ('A' for Active; 'I' for Inactive)
REMARK    1  A    between atoms: C_1  and  C_2
REMARK    2  A    between atoms: C_2  and  C_4
REMARK    3  A    between atoms: C_2  and  N_16
REMARK    4  A    between atoms: C_7  and  N_10
REMARK    5  A    between atoms: C_11  and  C_13
REMARK    6  A    between atoms: C_17  and  C_19
REMARK    7  A    between atoms: C_19  and  N_20
REMARK                            x       y       z     vdW  Elec       q    Type
REMARK                         _______ _______ _______ _____ _____    ______ ____
ROOT
ATOM      1  N   UNL     1      -5.327   4.330  -0.541  0.00  0.00    -0.307 N 
ATOM      2  C   UNL     1      -6.539   4.693  -1.004  0.00  0.00    +0.231 C 
ATOM      3  O   UNL     1      -7.530   4.094  -0.643  0.00  0.00    -0.274 OA
ATOM      4  H   UNL     1      -4.428   4.873  -0.868  0.00  0.00    +0.149 HD
ENDROOT
BRANCH   1   6
ATOM      5  C   UNL     1      -5.437   3.717   1.824  0.00  0.00    +0.033 C 
ATOM      6  C   UNL     1      -5.206   3.212   0.399  0.00  0.00    +0.100 C 
BRANCH   6   7
ATOM      7  C   UNL     1      -3.826   2.615   0.294  0.00  0.00    -0.027 A 
ATOM      8  C   UNL     1      -3.662   1.243   0.349  0.00  0.00    +0.007 A 
ATOM      9  C   UNL     1      -2.398   0.694   0.254  0.00  0.00    +0.023 A 
ATOM     10  C   UNL     1      -1.292   1.520   0.104  0.00  0.00    +0.033 A 
ATOM     11  C   UNL     1      -1.460   2.897   0.055  0.00  0.00    +0.023 A 
ATOM     12  C   UNL     1      -2.727   3.441   0.145  0.00  0.00    +0.007 A 
BRANCH  10  13
ATOM     13  N   UNL     1      -0.011   0.966   0.007  0.00  0.00    -0.285 N 
ATOM     14  C   UNL     1       0.924   1.561  -0.759  0.00  0.00    +0.220 C 
ATOM     15  O   UNL     1       0.631   2.523  -1.436  0.00  0.00    -0.275 OA
ATOM     16  H   UNL     1       0.233   0.044   0.557  0.00  0.00    +0.155 HD
BRANCH  14  17
ATOM     17  C   UNL     1       2.335   1.031  -0.773  0.00  0.00    +0.075 C 
ATOM     18  C   UNL     1       3.424   1.902  -0.143  0.00  0.00    +0.013 C 
ATOM     19  C   UNL     1       3.351   1.750  -1.663  0.00  0.00    +0.013 C 
ENDBRANCH  14  17
ENDBRANCH  10  13
ENDBRANCH   6   7
ENDBRANCH   1   6
BRANCH   2  20
ATOM     20  C   UNL     1      -6.663   5.842  -1.970  0.00  0.00    +0.209 C 
BRANCH  20  21
ATOM     21  N   UNL     1      -8.073   6.036  -2.320  0.00  0.00    -0.257 N 
ATOM     22  C   UNL     1      -8.631   5.369  -3.421  0.00  0.00    +0.079 A 
ATOM     23  C   UNL     1      -7.984   4.285  -3.993  0.00  0.00    +0.028 A 
ATOM     24  C   UNL     1      -8.552   3.637  -5.074  0.00  0.00    +0.017 A 
ATOM     25  C   UNL     1      -9.767   4.064  -5.581  0.00  0.00    +0.021 A 
ATOM     26  C   UNL     1     -10.420   5.142  -5.010  0.00  0.00    +0.062 A 
ATOM     27  C   UNL     1      -9.856   5.795  -3.928  0.00  0.00    +0.144 A 
ATOM     28  O   UNL     1     -10.485   6.856  -3.354  0.00  0.00    -0.481 OA
ATOM     29  C   UNL     1     -10.310   7.021  -1.944  0.00  0.00    +0.325 C 
ATOM     30  C   UNL     1      -8.853   6.864  -1.592  0.00  0.00    +0.258 C 
ATOM     31  O   UNL     1      -8.383   7.478  -0.657  0.00  0.00    -0.271 OA
ATOM     32 BR   UNL     1     -10.537   3.172  -7.059  0.00  0.00    -0.050 Br
ENDBRANCH  20  21
ENDBRANCH   2  20
TORSDOF 6
