REMARK  Name = ZINC35891043
REMARK  15 active torsions:
REMARK  status: ('A' for Active; 'I' for Inactive)
REMARK    1  A    between atoms: C_1  and  C_2
REMARK    2  A    between atoms: C_6  and  C_8
REMARK    3  A    between atoms: C_8  and  N_9
REMARK    4  A    between atoms: N_9  and  C_10
REMARK    5  A    between atoms: N_9  and  C_17
REMARK    6  A    between atoms: C_10  and  C_11
REMARK    7  A    between atoms: C_17  and  C_18
REMARK    8  A    between atoms: C_18  and  C_20
REMARK    9  A    between atoms: C_18  and  O_28
REMARK   10  A    between atoms: N_22  and  C_23
REMARK   11  A    between atoms: C_23  and  C_24
REMARK   12  A    between atoms: C_24  and  C_25
REMARK   13  A    between atoms: C_25  and  C_26
REMARK   14  A    between atoms: C_25  and  C_27
REMARK   15  A    between atoms: O_28  and  C_29
REMARK                            x       y       z     vdW  Elec       q    Type
REMARK                         _______ _______ _______ _____ _____    ______ ____
ROOT
ATOM      1  C   UNL     1       2.738  -4.825   4.196  0.00  0.00    +0.242 C 
ENDROOT
BRANCH   1   2
ATOM      2  C   UNL     1       2.588  -5.969   5.165  0.00  0.00    +0.252 C 
ATOM      3  O   UNL     1       2.796  -7.106   4.797  0.00  0.00    -0.272 OA
ATOM      4  N   UNL     1       2.222  -5.729   6.440  0.00  0.00    -0.312 N 
ATOM      5  H   UNL     1       2.056  -4.820   6.734  0.00  0.00    +0.149 HD
BRANCH   4   6
ATOM      6  C   UNL     1       2.076  -6.842   7.381  0.00  0.00    +0.104 C 
BRANCH   6   7
ATOM      7  C   UNL     1       1.656  -6.301   8.750  0.00  0.00    +0.022 C 
BRANCH   7   8
ATOM      8  C   UNL     1       1.504  -7.463   9.733  0.00  0.00    -0.016 C 
ATOM      9  C   UNL     1       2.866  -8.122   9.959  0.00  0.00    +0.007 C 
ATOM     10  C   UNL     1       0.965  -6.936  11.065  0.00  0.00    +0.007 C 
ENDBRANCH   7   8
ENDBRANCH   6   7
ENDBRANCH   4   6
ENDBRANCH   1   2
BRANCH   1  11
ATOM     11  C   UNL     1       1.376  -4.166   3.970  0.00  0.00    -0.023 C 
BRANCH  11  12
ATOM     12  N   UNL     1       1.520  -3.056   3.018  0.00  0.00    +0.387 N 
ATOM     13  H   UNL     1       1.887  -3.407   2.146  0.00  0.00    -0.081 HD
BRANCH  12  14
ATOM     14  C   UNL     1       0.209  -2.437   2.785  0.00  0.00    -0.043 C 
BRANCH  14  20
ATOM     15  C   UNL     1       1.069   2.281   1.354  0.00  0.00    +0.044 C 
ATOM     16  C   UNL     1       0.739   0.852   1.008  0.00  0.00    -0.050 A 
ATOM     17  C   UNL     1       0.544   0.487  -0.311  0.00  0.00    +0.003 A 
ATOM     18  C   UNL     1       0.241  -0.824  -0.628  0.00  0.00    +0.000 A 
ATOM     19  C   UNL     1       0.133  -1.770   0.374  0.00  0.00    +0.002 A 
ATOM     20  C   UNL     1       0.328  -1.406   1.692  0.00  0.00    -0.064 A 
ATOM     21  C   UNL     1       0.635  -0.095   2.009  0.00  0.00    +0.005 A 
ENDBRANCH  14  20
ENDBRANCH  12  14
BRANCH  12  22
ATOM     22  C   UNL     1       2.443  -2.055   3.570  0.00  0.00    -0.046 C 
BRANCH  22  23
ATOM     23  C   UNL     1       1.845  -1.458   4.846  0.00  0.00    +0.102 C 
ATOM     24  C   UNL     1       2.725  -0.290   5.340  0.00  0.00    +0.032 C 
ATOM     25  C   UNL     1       2.697  -0.485   6.880  0.00  0.00    +0.030 C 
ATOM     26  C   UNL     1       2.643  -2.030   6.980  0.00  0.00    +0.160 C 
ATOM     27  O   UNL     1       1.818  -2.450   5.879  0.00  0.00    -0.378 OA
ENDBRANCH  22  23
ENDBRANCH  12  22
ENDBRANCH  11  12
ENDBRANCH   1  11
BRANCH   1  28
ATOM     28  O   UNL     1       3.241  -5.316   2.952  0.00  0.00    -0.481 OA
BRANCH  28  29
ATOM     29  C   UNL     1       4.589  -5.454   2.843  0.00  0.00    +0.124 A 
ATOM     30  C   UNL     1       5.152  -5.844   1.637  0.00  0.00    +0.048 A 
ATOM     31  C   UNL     1       6.522  -5.984   1.526  0.00  0.00    +0.045 A 
ATOM     32  C   UNL     1       7.335  -5.736   2.619  0.00  0.00    +0.159 A 
ATOM     33  C   UNL     1       6.775  -5.346   3.826  0.00  0.00    +0.162 A 
ATOM     34  C   UNL     1       5.404  -5.199   3.937  0.00  0.00    +0.087 A 
ATOM     35  F   UNL     1       7.569  -5.105   4.892  0.00  0.00    -0.202 F 
ATOM     36  F   UNL     1       8.674  -5.874   2.509  0.00  0.00    -0.202 F 
ENDBRANCH  28  29
ENDBRANCH   1  28
TORSDOF 12
