REMARK  Name = ZINC11898491
REMARK  9 active torsions:
REMARK  status: ('A' for Active; 'I' for Inactive)
REMARK    1  A    between atoms: C_1  and  N_2
REMARK    2  A    between atoms: C_6  and  C_7
REMARK    3  A    between atoms: C_7  and  C_9
REMARK    4  A    between atoms: C_7  and  N_60
REMARK    5  A    between atoms: C_9  and  N_10
REMARK    6  A    between atoms: C_11  and  C_13
REMARK    7  A    between atoms: N_15  and  C_16
REMARK    8  A    between atoms: C_21  and  O_22
REMARK    9  A    between atoms: O_22  and  C_23
REMARK                            x       y       z     vdW  Elec       q    Type
REMARK                         _______ _______ _______ _____ _____    ______ ____
ROOT
ATOM      1  C   UNL     1      -5.005   2.840   8.520  0.00  0.00    -0.003 C 
ENDROOT
BRANCH   1  11
ATOM      2  C   UNL     1      -5.868   4.131   6.659  0.00  0.00    -0.073 C 
ATOM      3  C   UNL     1      -7.139   4.833   6.181  0.00  0.00    +0.017 C 
ATOM      4  C   UNL     1      -7.484   5.965   7.114  0.00  0.00    -0.048 A 
ATOM      5  C   UNL     1      -8.376   6.933   6.678  0.00  0.00    +0.004 A 
ATOM      6  C   UNL     1      -8.726   7.982   7.504  0.00  0.00    +0.000 A 
ATOM      7  C   UNL     1      -8.183   8.069   8.773  0.00  0.00    +0.000 A 
ATOM      8  C   UNL     1      -7.293   7.107   9.207  0.00  0.00    +0.002 A 
ATOM      9  C   UNL     1      -6.940   6.053   8.377  0.00  0.00    -0.061 A 
ATOM     10  C   UNL     1      -5.962   5.031   8.894  0.00  0.00    -0.042 C 
ATOM     11  N   UNL     1      -6.045   3.801   8.088  0.00  0.00    +0.389 N 
ATOM     12  H   UNL     1      -6.970   3.375   8.221  0.00  0.00    -0.080 HD
ENDBRANCH   1  11
BRANCH   1  18
ATOM     13  C   UNL     1      -3.291   0.930  10.258  0.00  0.00    +0.148 C 
ATOM     14  N   UNL     1      -4.579   1.502  10.657  0.00  0.00    -0.355 N 
ATOM     15  C   UNL     1      -5.211   1.285  11.845  0.00  0.00    +0.085 A 
ATOM     16  C   UNL     1      -6.370   1.975  11.838  0.00  0.00    +0.019 A 
ATOM     17  C   UNL     1      -6.453   2.648  10.603  0.00  0.00    +0.021 A 
ATOM     18  C   UNL     1      -5.342   2.343   9.902  0.00  0.00    +0.006 A 
ENDBRANCH   1  18
BRANCH   1  19
ATOM     19  C   UNL     1      -4.976   1.661   7.546  0.00  0.00    +0.095 C 
BRANCH  19  20
ATOM     20  N   UNL     1      -6.327   1.111   7.405  0.00  0.00    -0.309 N 
ATOM     21  C   UNL     1      -6.528  -0.002   6.672  0.00  0.00    +0.299 C 
ATOM     22  O   UNL     1      -5.590  -0.549   6.128  0.00  0.00    -0.265 OA
ATOM     23  H   UNL     1      -7.076   1.547   7.839  0.00  0.00    +0.149 HD
BRANCH  21  24
ATOM     24  C   UNL     1      -7.905  -0.563   6.528  0.00  0.00    +0.303 C 
ATOM     25  O   UNL     1      -8.842  -0.016   7.071  0.00  0.00    -0.265 OA
ATOM     26  N   UNL     1      -8.106  -1.676   5.795  0.00  0.00    -0.275 N 
ATOM     27  H   UNL     1      -7.349  -2.156   5.424  0.00  0.00    +0.155 HD
BRANCH  26  28
ATOM     28  C   UNL     1      -9.406  -2.138   5.568  0.00  0.00    +0.076 A 
ATOM     29  C   UNL     1     -10.482  -1.267   5.669  0.00  0.00    +0.027 A 
ATOM     30  C   UNL     1     -11.766  -1.727   5.444  0.00  0.00    +0.002 A 
ATOM     31  C   UNL     1     -11.982  -3.053   5.118  0.00  0.00    +0.004 A 
ATOM     32  C   UNL     1     -10.915  -3.926   5.010  0.00  0.00    +0.047 A 
ATOM     33  C   UNL     1      -9.625  -3.475   5.239  0.00  0.00    +0.141 A 
BRANCH  33  34
ATOM     34  O   UNL     1      -8.575  -4.333   5.138  0.00  0.00    -0.493 OA
ATOM     35  C   UNL     1      -8.875  -5.688   4.798  0.00  0.00    +0.277 C 
ENDBRANCH  33  34
ENDBRANCH  26  28
ENDBRANCH  21  24
ENDBRANCH  19  20
ENDBRANCH   1  19
TORSDOF 7
