REMARK  Name = ZINC37004538
REMARK  4 active torsions:
REMARK  status: ('A' for Active; 'I' for Inactive)
REMARK    1  A    between atoms: C_3  and  C_6
REMARK    2  A    between atoms: C_6  and  C_8
REMARK    3  A    between atoms: C_6  and  N_13
REMARK    4  A    between atoms: C_14  and  C_16
REMARK                            x       y       z     vdW  Elec       q    Type
REMARK                         _______ _______ _______ _____ _____    ______ ____
ROOT
ATOM      1  N   UNL     1       4.569   1.019  -0.924  0.00  0.00    -0.309 N 
ATOM      2  C   UNL     1       4.598   1.290  -2.244  0.00  0.00    +0.199 C 
ATOM      3  O   UNL     1       3.955   2.218  -2.687  0.00  0.00    -0.278 OA
ATOM      4  H   UNL     1       5.084   0.277  -0.570  0.00  0.00    +0.149 HD
ENDROOT
BRANCH   2   5
ATOM      5  C   UNL     1       5.430   0.441  -3.170  0.00  0.00    +0.016 C 
ATOM      6  C   UNL     1       4.949  -1.010  -3.099  0.00  0.00    -0.007 C 
ATOM      7  C   UNL     1       5.798  -1.870  -4.041  0.00  0.00    -0.003 C 
ATOM      8  C   UNL     1       5.708  -1.297  -5.459  0.00  0.00    -0.019 C 
ATOM      9  C   UNL     1       6.161   0.165  -5.442  0.00  0.00    -0.082 C 
ATOM     10  N   UNL     1       5.294   0.938  -4.544  0.00  0.00    +0.387 N 
ATOM     11  H   UNL     1       4.335   0.845  -4.841  0.00  0.00    -0.085 HD
ATOM     12  H   UNL     1       5.561   1.911  -4.577  0.00  0.00    -0.085 HD
ENDBRANCH   2   5
BRANCH   1  13
ATOM     13  C   UNL     1       3.761   1.845  -0.024  0.00  0.00    +0.113 C 
BRANCH  13  16
ATOM     14  C   UNL     1      -0.016   1.351   0.009  0.00  0.00    +0.008 A 
ATOM     15  C   UNL     1       1.183   2.038   0.002  0.00  0.00    +0.013 A 
ATOM     16  C   UNL     1       2.343   1.336  -0.013  0.00  0.00    +0.010 A 
ATOM     17  S   UNL     1       1.754  -0.349  -0.017  0.00  0.00    -0.100 S 
ATOM     18  C   UNL     1       0.002  -0.004   0.002  0.00  0.00    +0.045 A 
ENDBRANCH  13  16
BRANCH  13  19
ATOM     19  C   UNL     1       4.339   1.775   1.390  0.00  0.00    +0.014 C 
ATOM     20  C   UNL     1       3.540   2.696   2.335  0.00  0.00    +0.006 C 
ATOM     21  C   UNL     1       4.611   3.289   3.284  0.00  0.00    +0.000 C 
ATOM     22  C   UNL     1       5.819   3.511   2.340  0.00  0.00    +0.000 C 
ATOM     23  C   UNL     1       5.788   2.293   1.394  0.00  0.00    +0.006 C 
ENDBRANCH  13  19
ENDBRANCH   1  13
TORSDOF 4
