REMARK  Name = ZINC61949913
REMARK  8 active torsions:
REMARK  status: ('A' for Active; 'I' for Inactive)
REMARK    1  A    between atoms: C_1  and  C_2
REMARK    2  A    between atoms: C_2  and  C_4
REMARK    3  A    between atoms: C_2  and  N_22
REMARK    4  A    between atoms: C_4  and  C_6
REMARK    5  A    between atoms: C_4  and  N_12
REMARK    6  A    between atoms: N_12  and  C_13
REMARK    7  A    between atoms: N_12  and  C_14
REMARK    8  A    between atoms: C_17  and  C_20
REMARK                            x       y       z     vdW  Elec       q    Type
REMARK                         _______ _______ _______ _____ _____    ______ ____
ROOT
ATOM      1  C   UNL     1       0.790  -0.531   1.182  0.00  0.00    +0.095 C 
ENDROOT
BRANCH   1   2
ATOM      2  C   UNL     1       0.758  -2.035   1.097  0.00  0.00    +0.010 A 
ATOM      3  C   UNL     1      -0.018  -2.912   1.780  0.00  0.00    +0.014 A 
ATOM      4  C   UNL     1       0.126  -4.265   1.536  0.00  0.00    +0.028 A 
ATOM      5  C   UNL     1       1.039  -4.675   0.620  0.00  0.00    +0.078 A 
ATOM      6  S   UNL     1       1.726  -3.123   0.064  0.00  0.00    -0.080 S 
ATOM      7 CL   UNL     1       1.433  -6.288   0.115  0.00  0.00    -0.076 Cl
ENDBRANCH   1   2
BRANCH   1   9
ATOM      8  C   UNL     1       0.134   1.592   0.039  0.00  0.00    -0.012 C 
ATOM      9  C   UNL     1       0.101   0.065  -0.048  0.00  0.00    -0.053 C 
BRANCH   9  10
ATOM     10  N   UNL     1      -1.294  -0.393  -0.097  0.00  0.00    +0.381 N 
ATOM     11  H   UNL     1      -1.748  -0.001  -0.908  0.00  0.00    -0.090 HD
ATOM     12  H   UNL     1      -1.315  -1.400  -0.154  0.00  0.00    -0.090 HD
ATOM     13  H   UNL     1      -1.776  -0.093   0.737  0.00  0.00    -0.090 HD
ENDBRANCH   9  10
ENDBRANCH   1   9
BRANCH   1  14
ATOM     14  N   UNL     1       2.181  -0.074   1.232  0.00  0.00    -0.327 N 
ATOM     15  C   UNL     1       3.056  -0.264   0.072  0.00  0.00    +0.130 C 
BRANCH  14  16
ATOM     16  C   UNL     1       2.671   0.541   2.380  0.00  0.00    +0.030 A 
ATOM     17  C   UNL     1       1.813   0.812   3.442  0.00  0.00    +0.024 A 
ATOM     18  C   UNL     1       2.295   1.420   4.580  0.00  0.00    +0.020 A 
ATOM     19  C   UNL     1       3.647   1.766   4.667  0.00  0.00    +0.052 A 
ATOM     20  C   UNL     1       4.505   1.492   3.598  0.00  0.00    +0.020 A 
ATOM     21  C   UNL     1       4.019   0.878   2.466  0.00  0.00    +0.024 A 
BRANCH  19  22
ATOM     22  C   UNL     1       4.151   2.399   5.848  0.00  0.00    +0.099 C 
ATOM     23  N   UNL     1       4.551   2.901   6.785  0.00  0.00    -0.191 NA
ENDBRANCH  19  22
ENDBRANCH  14  16
ENDBRANCH   1  14
TORSDOF 6
