REMARK  Name = ZINC33937339
REMARK  12 active torsions:
REMARK  status: ('A' for Active; 'I' for Inactive)
REMARK    1  A    between atoms: C_1  and  C_2
REMARK    2  A    between atoms: C_2  and  C_3
REMARK    3  A    between atoms: C_2  and  C_4
REMARK    4  A    between atoms: C_4  and  C_6
REMARK    5  A    between atoms: C_4  and  N_18
REMARK    6  A    between atoms: N_10  and  C_11
REMARK    7  A    between atoms: C_11  and  C_12
REMARK    8  A    between atoms: N_18  and  C_19
REMARK    9  A    between atoms: N_18  and  C_27
REMARK   10  A    between atoms: C_19  and  C_20
REMARK   11  A    between atoms: C_20  and  C_21
REMARK   12  A    between atoms: C_27  and  C_28
REMARK                            x       y       z     vdW  Elec       q    Type
REMARK                         _______ _______ _______ _____ _____    ______ ____
ROOT
ATOM      1  N   UNL     1      -1.393   1.081  -0.829  0.00  0.00    +0.390 N 
ATOM      2  H   UNL     1      -1.371   0.551  -1.687  0.00  0.00    -0.080 HD
ENDROOT
BRANCH   1   3
ATOM      3  C   UNL     1      -0.025   1.242  -0.317  0.00  0.00    +0.006 C 
BRANCH   3   4
ATOM      4  C   UNL     1       0.016   2.393   0.654  0.00  0.00    +0.138 A 
ATOM      5  N   UNL     1      -0.987   2.860   1.357  0.00  0.00    -0.115 NA
ATOM      6  N   UNL     1      -0.553   3.843   2.067  0.00  0.00    -0.023 NA
ATOM      7  N   UNL     1       0.702   4.016   1.835  0.00  0.00    -0.044 NA
ATOM      8  N   UNL     1       1.091   3.137   0.974  0.00  0.00    -0.228 N 
BRANCH   8   9
ATOM      9  C   UNL     1       2.446   2.982   0.440  0.00  0.00    +0.178 C 
BRANCH   9  10
ATOM     10  C   UNL     1       2.541   3.672  -0.922  0.00  0.00    +0.140 C 
ATOM     11  C   UNL     1       3.995   3.614  -1.454  0.00  0.00    +0.035 C 
ATOM     12  C   UNL     1       3.754   3.737  -2.984  0.00  0.00    +0.031 C 
ATOM     13  C   UNL     1       2.417   2.986  -3.166  0.00  0.00    +0.160 C 
ATOM     14  O   UNL     1       1.755   2.965  -1.895  0.00  0.00    -0.375 OA
ENDBRANCH   9  10
ENDBRANCH   8   9
ENDBRANCH   3   4
BRANCH   3  16
ATOM     15  C   UNL     1       0.330  -1.217  -0.582  0.00  0.00    +0.006 C 
ATOM     16  C   UNL     1       0.408  -0.042   0.394  0.00  0.00    -0.024 C 
ATOM     17  C   UNL     1       1.846   0.112   0.893  0.00  0.00    +0.006 C 
ENDBRANCH   3  16
ENDBRANCH   1   3
BRANCH   1  18
ATOM     18  C   UNL     1      -1.979   2.403  -1.084  0.00  0.00    -0.073 C 
BRANCH  18  19
ATOM     19  C   UNL     1      -1.011   3.236  -1.927  0.00  0.00    +0.016 C 
BRANCH  19  20
ATOM     20  C   UNL     1      -1.628   4.579  -2.221  0.00  0.00    -0.049 A 
ATOM     21  C   UNL     1      -2.175   4.831  -3.465  0.00  0.00    +0.003 A 
ATOM     22  C   UNL     1      -2.741   6.063  -3.734  0.00  0.00    +0.000 A 
ATOM     23  C   UNL     1      -2.760   7.043  -2.759  0.00  0.00    +0.000 A 
ATOM     24  C   UNL     1      -2.214   6.790  -1.514  0.00  0.00    +0.000 A 
ATOM     25  C   UNL     1      -1.652   5.557  -1.244  0.00  0.00    +0.003 A 
ENDBRANCH  19  20
ENDBRANCH  18  19
ENDBRANCH   1  18
BRANCH   1  26
ATOM     26  C   UNL     1      -2.206   0.368   0.165  0.00  0.00    -0.037 C 
BRANCH  26  27
ATOM     27  C   UNL     1      -3.585   0.129  -0.393  0.00  0.00    +0.001 A 
ATOM     28  C   UNL     1      -3.876  -1.054  -0.994  0.00  0.00    +0.017 A 
ATOM     29  C   UNL     1      -5.223  -1.256  -1.525  0.00  0.00    +0.002 A 
ATOM     30  C   UNL     1      -5.578  -2.454  -2.156  0.00  0.00    +0.059 A 
ATOM     31  C   UNL     1      -6.854  -2.615  -2.648  0.00  0.00    +0.167 A 
ATOM     32  C   UNL     1      -7.796  -1.586  -2.518  0.00  0.00    +0.168 A 
ATOM     33  C   UNL     1      -7.454  -0.399  -1.897  0.00  0.00    +0.075 A 
ATOM     34  C   UNL     1      -6.170  -0.221  -1.396  0.00  0.00    +0.053 A 
ATOM     35  N   UNL     1      -5.811   0.957  -0.773  0.00  0.00    -0.322 N 
ATOM     36  H   UNL     1      -6.464   1.669  -0.683  0.00  0.00    +0.169 HD
ATOM     37  C   UNL     1      -4.571   1.130  -0.284  0.00  0.00    +0.251 A 
ATOM     38  O   UNL     1      -4.290   2.183   0.264  0.00  0.00    -0.268 OA
ATOM     39  O   UNL     1      -8.967  -1.998  -3.083  0.00  0.00    -0.453 OA
ATOM     40  C   UNL     1      -8.620  -3.117  -3.920  0.00  0.00    +0.466 C 
ATOM     41  O   UNL     1      -7.445  -3.664  -3.294  0.00  0.00    -0.453 OA
ENDBRANCH  26  27
ENDBRANCH   1  26
TORSDOF 10
