REMARK  Name = ZINC08559725
REMARK  5 active torsions:
REMARK  status: ('A' for Active; 'I' for Inactive)
REMARK    1  A    between atoms: C_1  and  C_2
REMARK    2  A    between atoms: C_4  and  C_23
REMARK    3  A    between atoms: C_10  and  C_14
REMARK    4  A    between atoms: C_11  and  C_13
REMARK    5  A    between atoms: C_14  and  C_15
REMARK                            x       y       z     vdW  Elec       q    Type
REMARK                         _______ _______ _______ _____ _____    ______ ____
ROOT
ATOM      1  C   UNL     1      -0.018   1.503   0.010  0.00  0.00    +0.066 C 
ATOM      2  C   UNL     1       0.002  -0.004   0.002  0.00  0.00    +0.044 A 
ATOM      3  C   UNL     1       0.006  -0.699  -1.197  0.00  0.00    +0.046 A 
ATOM      4  C   UNL     1       0.025  -2.084  -1.160  0.00  0.00    +0.044 A 
ATOM      5  N   UNL     1       0.039  -2.698   0.012  0.00  0.00    -0.216 NA
ATOM      6  C   UNL     1       0.035  -2.004   1.140  0.00  0.00    +0.253 A 
ATOM      7  N   UNL     1       0.022  -0.680   1.139  0.00  0.00    -0.216 NA
ATOM      8  N   UNL     1       0.049  -2.680   2.352  0.00  0.00    -0.184 N 
ATOM      9  C   UNL     1       0.047  -2.118   3.577  0.00  0.00    +0.278 A 
ATOM     10  C   UNL     1       0.065  -3.164   4.529  0.00  0.00    +0.043 A 
ATOM     11  C   UNL     1       0.077  -4.336   3.862  0.00  0.00    +0.039 A 
ATOM     12  N   UNL     1       0.063  -4.071   2.522  0.00  0.00    -0.292 N 
ATOM     13  C   UNL     1       0.098  -5.706   4.489  0.00  0.00    +0.065 C 
ATOM     14  O   UNL     1       0.034  -0.925   3.821  0.00  0.00    -0.265 OA
ATOM     15  C   UNL     1       0.029  -2.882  -2.438  0.00  0.00    +0.066 C 
ATOM     16  H   UNL     1       0.064  -4.731   1.811  0.00  0.00    +0.187 HD
ENDROOT
BRANCH  10  17
ATOM     17  C   UNL     1       0.070  -2.998   6.026  0.00  0.00    +0.077 C 
BRANCH  17  18
ATOM     18  C   UNL     1       1.486  -2.801   6.505  0.00  0.00    -0.043 A 
ATOM     19  C   UNL     1       2.257  -3.895   6.850  0.00  0.00    +0.005 A 
ATOM     20  C   UNL     1       3.555  -3.715   7.289  0.00  0.00    +0.015 A 
ATOM     21  C   UNL     1       4.083  -2.440   7.382  0.00  0.00    +0.018 A 
ATOM     22  C   UNL     1       3.311  -1.345   7.037  0.00  0.00    +0.015 A 
ATOM     23  C   UNL     1       2.014  -1.526   6.593  0.00  0.00    +0.005 A 
ATOM     24 BR   UNL     1       5.859  -2.193   7.983  0.00  0.00    -0.050 Br
ENDBRANCH  17  18
ENDBRANCH  10  17
TORSDOF 2
