REMARK  Name = ZINC37668075
REMARK  4 active torsions:
REMARK  status: ('A' for Active; 'I' for Inactive)
REMARK    1  A    between atoms: C_1  and  N_2
REMARK    2  A    between atoms: N_2  and  C_3
REMARK    3  A    between atoms: N_2  and  C_11
REMARK    4  A    between atoms: C_5  and  N_10
REMARK                            x       y       z     vdW  Elec       q    Type
REMARK                         _______ _______ _______ _____ _____    ______ ____
ROOT
ATOM      1  C   UNL     1       0.006  -0.802   1.149  0.00  0.00    +0.034 A 
ATOM      2  C   UNL     1       0.106  -0.215   2.402  0.00  0.00    +0.046 A 
ATOM      3  C   UNL     1       0.110  -1.010   3.540  0.00  0.00    +0.029 A 
ATOM      4  C   UNL     1       0.014  -2.391   3.421  0.00  0.00    +0.061 A 
ATOM      5  C   UNL     1      -0.085  -2.974   2.171  0.00  0.00    +0.127 A 
ATOM      6  C   UNL     1      -0.094  -2.182   1.035  0.00  0.00    +0.061 A 
ATOM      7  F   UNL     1      -0.178  -4.317   2.058  0.00  0.00    -0.205 F 
ENDROOT
BRANCH   3   8
ATOM      8  N   UNL     1       0.210  -0.422   4.803  0.00  0.00    -0.358 N 
ATOM      9  H   UNL     1       0.277   0.542   4.885  0.00  0.00    +0.142 HD
ATOM     10  H   UNL     1       0.212  -0.978   5.598  0.00  0.00    +0.142 HD
ENDBRANCH   3   8
BRANCH   1  12
ATOM     11  C   UNL     1      -0.021   1.456   0.125  0.00  0.00    +0.129 C 
ATOM     12  N   UNL     1       0.002  -0.004   0.002  0.00  0.00    -0.330 N 
BRANCH  12  13
ATOM     13  C   UNL     1       0.020  -0.627  -1.324  0.00  0.00    +0.077 C 
ATOM     14  C   UNL     1       1.319  -0.256  -2.047  0.00  0.00    +0.050 C 
ATOM     15  C   UNL     1       1.294  -0.846  -3.459  0.00  0.00    +0.161 C 
ATOM     16  O   UNL     1       0.145  -0.359  -4.157  0.00  0.00    -0.380 OA
ATOM     17  C   UNL     1      -1.099  -0.716  -3.553  0.00  0.00    +0.161 C 
ATOM     18  C   UNL     1      -1.171  -0.121  -2.144  0.00  0.00    +0.050 C 
ENDBRANCH  12  13
ENDBRANCH   1  12
TORSDOF 3
