REMARK  Name = ZINC38083612
REMARK  4 active torsions:
REMARK  status: ('A' for Active; 'I' for Inactive)
REMARK    1  A    between atoms: C_1  and  N_2
REMARK    2  A    between atoms: C_9  and  N_14
REMARK    3  A    between atoms: N_14  and  C_15
REMARK    4  A    between atoms: C_15  and  C_16
REMARK                            x       y       z     vdW  Elec       q    Type
REMARK                         _______ _______ _______ _____ _____    ______ ____
ROOT
ATOM      1  C   UNL     1      -0.018   1.461   0.010  0.00  0.00    +0.138 C 
ATOM      2  N   UNL     1       0.002  -0.004   0.002  0.00  0.00    -0.274 N 
ATOM      3  C   UNL     1      -1.202  -0.715   0.004  0.00  0.00    +0.038 A 
ATOM      4  C   UNL     1      -2.384  -0.088  -0.368  0.00  0.00    +0.024 A 
ATOM      5  C   UNL     1      -3.569  -0.796  -0.365  0.00  0.00    +0.002 A 
ATOM      6  C   UNL     1      -3.581  -2.127   0.009  0.00  0.00    +0.000 A 
ATOM      7  C   UNL     1      -2.406  -2.754   0.381  0.00  0.00    +0.004 A 
ATOM      8  C   UNL     1      -1.217  -2.052   0.379  0.00  0.00    -0.040 A 
ATOM      9  C   UNL     1       0.065  -2.732   0.783  0.00  0.00    -0.030 C 
ATOM     10  C   UNL     1       1.226  -2.160  -0.033  0.00  0.00    +0.085 C 
ATOM     11  C   UNL     1       1.179  -0.656  -0.013  0.00  0.00    +0.218 C 
ATOM     12  O   UNL     1       2.214  -0.025  -0.004  0.00  0.00    -0.275 OA
ENDROOT
BRANCH   9  13
ATOM     13  N   UNL     1       0.312  -2.501   2.212  0.00  0.00    +0.384 N 
ATOM     14  H   UNL     1       0.470  -1.517   2.372  0.00  0.00    -0.085 HD
ATOM     15  H   UNL     1      -0.489  -2.804   2.745  0.00  0.00    -0.085 HD
BRANCH  13  16
ATOM     16  C   UNL     1       1.497  -3.261   2.633  0.00  0.00    -0.077 C 
BRANCH  16  17
ATOM     17  C   UNL     1       1.754  -3.021   4.122  0.00  0.00    -0.006 C 
ATOM     18  C   UNL     1       0.593  -3.608   4.942  0.00  0.00    +0.026 C 
ATOM     19  C   UNL     1       1.021  -3.634   6.438  0.00  0.00    +0.166 C 
ATOM     20  S   UNL     1       2.773  -4.181   6.278  0.00  0.00    -0.031 S 
ATOM     21  O   UNL     1       3.585  -3.383   7.128  0.00  0.00    -0.174 OA
ATOM     22  O   UNL     1       2.827  -5.596   6.385  0.00  0.00    -0.174 OA
ATOM     23  C   UNL     1       3.083  -3.701   4.530  0.00  0.00    +0.167 C 
ENDBRANCH  16  17
ENDBRANCH  13  16
ENDBRANCH   9  13
TORSDOF 3
