REMARK  Name = ZINC05487696
REMARK  4 active torsions:
REMARK  status: ('A' for Active; 'I' for Inactive)
REMARK    1  A    between atoms: C_1  and  C_2
REMARK    2  A    between atoms: C_2  and  C_3
REMARK    3  A    between atoms: C_2  and  C_4
REMARK    4  A    between atoms: C_2  and  C_6
REMARK                            x       y       z     vdW  Elec       q    Type
REMARK                         _______ _______ _______ _____ _____    ______ ____
ROOT
ATOM      1  C   UNL     1       1.617   3.590   0.022  0.00  0.00    +0.043 C 
ATOM      2  C   UNL     1       1.181   4.272  -1.280  0.00  0.00    +0.048 C 
ATOM      3  C   UNL     1       2.452   4.824  -1.930  0.00  0.00    +0.165 C 
ATOM      4  C   UNL     1       2.661   4.172  -3.272  0.00  0.00    +0.238 C 
ATOM      5  O   UNL     1       1.869   3.338  -3.655  0.00  0.00    -0.273 OA
ATOM      6  N   UNL     1       3.694   4.490  -4.047  0.00  0.00    -0.283 N 
ATOM      7  C   UNL     1       4.661   5.441  -3.780  0.00  0.00    +0.046 A 
ATOM      8  C   UNL     1       5.058   6.258  -4.843  0.00  0.00    +0.024 A 
ATOM      9  C   UNL     1       6.027   7.220  -4.667  0.00  0.00    +0.002 A 
ATOM     10  C   UNL     1       6.623   7.390  -3.428  0.00  0.00    +0.001 A 
ATOM     11  C   UNL     1       6.241   6.602  -2.369  0.00  0.00    +0.015 A 
ATOM     12  C   UNL     1       5.248   5.621  -2.530  0.00  0.00    +0.058 A 
ATOM     13  C   UNL     1       4.869   4.841  -1.343  0.00  0.00    +0.250 C 
ATOM     14  O   UNL     1       5.742   4.494  -0.570  0.00  0.00    -0.270 OA
ATOM     15  N   UNL     1       3.597   4.498  -1.075  0.00  0.00    -0.267 N 
ATOM     16  C   UNL     1       3.147   3.751   0.100  0.00  0.00    +0.173 C 
ATOM     17  N   UNL     1       3.682   2.383   0.063  0.00  0.00    -0.325 N 
ATOM     18  C   UNL     1       2.644   1.473  -0.034  0.00  0.00    +0.032 A 
ATOM     19  C   UNL     1       1.401   2.108  -0.066  0.00  0.00    -0.016 A 
ATOM     20  C   UNL     1       0.218   1.397  -0.163  0.00  0.00    +0.006 A 
ATOM     21  C   UNL     1       0.315   0.013  -0.226  0.00  0.00    +0.000 A 
ATOM     22  C   UNL     1       1.537  -0.625  -0.195  0.00  0.00    +0.002 A 
ATOM     23  C   UNL     1       2.727   0.078  -0.099  0.00  0.00    +0.023 A 
ATOM     24  H   UNL     1       3.776   4.007  -4.884  0.00  0.00    +0.155 HD
ATOM     25  H   UNL     1       4.624   2.152   0.101  0.00  0.00    +0.148 HD
ENDROOT
BRANCH   1  27
ATOM     26  C   UNL     1       1.359   3.463   2.503  0.00  0.00    +0.016 C 
ATOM     27  C   UNL     1       0.922   4.205   1.238  0.00  0.00    -0.004 C 
ATOM     28  C   UNL     1       1.306   5.681   1.353  0.00  0.00    +0.016 C 
BRANCH  27  29
ATOM     29  C   UNL     1      -0.572   4.085   1.076  0.00  0.00    -0.027 C 
ATOM     30  C   UNL     1      -1.275   3.419   1.958  0.00  0.00    +0.004 C 
ENDBRANCH  27  29
ENDBRANCH   1  27
TORSDOF 2
