REMARK  Name = ZINC04306264
REMARK  6 active torsions:
REMARK  status: ('A' for Active; 'I' for Inactive)
REMARK    1  A    between atoms: C_1  and  N_2
REMARK    2  A    between atoms: N_2  and  C_3
REMARK    3  A    between atoms: C_7  and  N_23
REMARK    4  A    between atoms: C_8  and  N_10
REMARK    5  A    between atoms: C_13  and  C_16
REMARK    6  A    between atoms: C_16  and  C_17
REMARK                            x       y       z     vdW  Elec       q    Type
REMARK                         _______ _______ _______ _____ _____    ______ ____
ROOT
ATOM      1  C   UNL     1      -0.752   1.249  -3.088  0.00  0.00    +0.132 C 
ATOM      2  N   UNL     1      -0.165   2.000  -1.975  0.00  0.00    -0.306 N 
ATOM      3  C   UNL     1      -0.285   3.460  -1.932  0.00  0.00    +0.132 C 
ATOM      4  C   UNL     1       0.503   1.331  -0.965  0.00  0.00    +0.221 A 
ATOM      5  N   UNL     1       1.033   2.027   0.030  0.00  0.00    -0.197 NA
ATOM      6  C   UNL     1       1.687   1.418   1.016  0.00  0.00    +0.154 A 
ATOM      7  C   UNL     1       1.811   0.032   0.991  0.00  0.00    +0.205 A 
ATOM      8  C   UNL     1       1.242  -0.665  -0.070  0.00  0.00    +0.159 A 
ATOM      9  N   UNL     1       0.602   0.012  -1.021  0.00  0.00    -0.197 NA
ATOM     10  N   UNL     1       2.238   2.154   2.053  0.00  0.00    -0.341 N 
ATOM     11  H   UNL     1       2.714   1.704   2.768  0.00  0.00    +0.144 HD
ATOM     12  H   UNL     1       2.148   3.120   2.063  0.00  0.00    +0.144 HD
ENDROOT
BRANCH   8  13
ATOM     13  N   UNL     1       1.341  -2.046  -0.136  0.00  0.00    -0.313 N 
ATOM     14  C   UNL     1       2.083  -2.464  -1.333  0.00  0.00    +0.107 C 
ATOM     15  C   UNL     1       2.298  -3.979  -1.299  0.00  0.00    +0.023 C 
ATOM     16  C   UNL     1       0.938  -4.681  -1.247  0.00  0.00    -0.004 C 
ATOM     17  C   UNL     1       0.167  -4.193  -0.018  0.00  0.00    +0.023 C 
ATOM     18  C   UNL     1       0.013  -2.672  -0.090  0.00  0.00    +0.107 C 
BRANCH  16  19
ATOM     19  C   UNL     1       1.147  -6.194  -1.152  0.00  0.00    +0.038 C 
BRANCH  19  20
ATOM     20  C   UNL     1       1.797  -6.692  -2.417  0.00  0.00    -0.047 A 
ATOM     21  C   UNL     1       1.015  -7.105  -3.479  0.00  0.00    +0.003 A 
ATOM     22  C   UNL     1       1.611  -7.558  -4.641  0.00  0.00    +0.000 A 
ATOM     23  C   UNL     1       2.990  -7.607  -4.737  0.00  0.00    +0.000 A 
ATOM     24  C   UNL     1       3.771  -7.199  -3.673  0.00  0.00    +0.000 A 
ATOM     25  C   UNL     1       3.175  -6.742  -2.512  0.00  0.00    +0.003 A 
ENDBRANCH  19  20
ENDBRANCH  16  19
ENDBRANCH   8  13
BRANCH   7  26
ATOM     26  N   UNL     1       2.531  -0.683   2.069  0.00  0.00    +0.063 N 
ATOM     27  O   UNL     1       3.728  -0.888   1.970  0.00  0.00    -0.126 OA
ATOM     28  O   UNL     1       1.927  -1.067   3.054  0.00  0.00    -0.126 OA
ENDBRANCH   7  26
TORSDOF 4
