REMARK  Name = ZINC08882443
REMARK  7 active torsions:
REMARK  status: ('A' for Active; 'I' for Inactive)
REMARK    1  A    between atoms: C_1  and  C_2
REMARK    2  A    between atoms: C_2  and  C_9
REMARK    3  A    between atoms: C_9  and  S_10
REMARK    4  A    between atoms: S_10  and  C_11
REMARK    5  A    between atoms: C_16  and  C_17
REMARK    6  A    between atoms: C_24  and  C_25
REMARK    7  A    between atoms: C_24  and  N_60
REMARK                            x       y       z     vdW  Elec       q    Type
REMARK                         _______ _______ _______ _____ _____    ______ ____
ROOT
ATOM      1  C   UNL     1      -0.014   1.212   0.009  0.00  0.00    +0.248 C 
ATOM      2  O   UNL     1       0.129   0.259  -0.734  0.00  0.00    -0.270 OA
ATOM      3  N   UNL     1       1.006   1.617   0.790  0.00  0.00    -0.301 N 
ATOM      4  C   UNL     1       0.877   2.808   1.644  0.00  0.00    +0.089 C 
ATOM      5  C   UNL     1       1.296   2.426   3.072  0.00  0.00    -0.059 C 
ATOM      6  C   UNL     1       2.647   0.580   2.265  0.00  0.00    -0.059 C 
ATOM      7  C   UNL     1       2.280   0.883   0.809  0.00  0.00    +0.089 C 
ATOM      8  N   UNL     1       2.658   1.849   3.026  0.00  0.00    +0.384 N 
ATOM      9  H   UNL     1       3.285   2.512   2.557  0.00  0.00    -0.081 HD
ENDROOT
BRANCH   1  15
ATOM     10  C   UNL     1      -2.501   1.216   0.222  0.00  0.00    +0.020 A 
ATOM     11  C   UNL     1      -3.709   1.903   0.258  0.00  0.00    +0.015 A 
ATOM     12  C   UNL     1      -3.728   3.275   0.125  0.00  0.00    +0.001 A 
ATOM     13  C   UNL     1      -2.546   3.980  -0.045  0.00  0.00    +0.001 A 
ATOM     14  C   UNL     1      -1.339   3.318  -0.079  0.00  0.00    +0.014 A 
ATOM     15  C   UNL     1      -1.302   1.927   0.049  0.00  0.00    +0.050 A 
BRANCH  10  16
ATOM     16  S   UNL     1      -2.473  -0.538   0.391  0.00  0.00    -0.122 S 
BRANCH  16  17
ATOM     17  C   UNL     1      -4.220  -0.987   0.585  0.00  0.00    +0.109 C 
BRANCH  17  19
ATOM     18  C   UNL     1      -3.653  -3.223  -0.418  0.00  0.00    +0.042 C 
ATOM     19  C   UNL     1      -4.342  -2.504   0.744  0.00  0.00    +0.119 C 
ATOM     20  C   UNL     1      -5.798  -2.916   0.838  0.00  0.00    +0.244 C 
ATOM     21  O   UNL     1      -6.658  -2.759  -0.002  0.00  0.00    -0.273 OA
ATOM     22  N   UNL     1      -5.936  -3.492   2.048  0.00  0.00    -0.238 N 
ATOM     23  C   UNL     1      -4.782  -3.502   2.725  0.00  0.00    +0.307 C 
ATOM     24  O   UNL     1      -4.657  -3.969   3.840  0.00  0.00    -0.252 OA
ATOM     25  N   UNL     1      -3.772  -2.938   2.032  0.00  0.00    -0.285 N 
ATOM     26  H   UNL     1      -6.770  -3.855   2.386  0.00  0.00    +0.159 HD
ATOM     27  H   UNL     1      -2.852  -2.837   2.322  0.00  0.00    +0.151 HD
ENDBRANCH  17  19
ENDBRANCH  16  17
ENDBRANCH  10  16
ENDBRANCH   1  15
BRANCH   8  28
ATOM     28  C   UNL     1       3.150   1.609   4.398  0.00  0.00    -0.043 C 
BRANCH  28  29
ATOM     29  C   UNL     1       2.901   2.839   5.234  0.00  0.00    -0.060 A 
ATOM     30  C   UNL     1       3.853   3.839   5.291  0.00  0.00    +0.005 A 
ATOM     31  C   UNL     1       3.626   4.971   6.051  0.00  0.00    +0.050 A 
ATOM     32  C   UNL     1       2.448   5.100   6.768  0.00  0.00    +0.166 A 
ATOM     33  C   UNL     1       1.490   4.090   6.715  0.00  0.00    +0.166 A 
ATOM     34  C   UNL     1       1.722   2.961   5.946  0.00  0.00    +0.051 A 
ATOM     35  O   UNL     1       0.432   4.450   7.497  0.00  0.00    -0.453 OA
ATOM     36  C   UNL     1       0.925   5.500   8.351  0.00  0.00    +0.466 C 
ATOM     37  O   UNL     1       1.989   6.093   7.584  0.00  0.00    -0.453 OA
ENDBRANCH  28  29
ENDBRANCH   8  28
TORSDOF 6
