REMARK  Name = ZINC36207301
REMARK  16 active torsions:
REMARK  status: ('A' for Active; 'I' for Inactive)
REMARK    1  A    between atoms: C_1  and  C_2
REMARK    2  A    between atoms: C_2  and  C_3
REMARK    3  A    between atoms: C_9  and  C_18
REMARK    4  A    between atoms: C_13  and  C_14
REMARK    5  A    between atoms: C_14  and  O_16
REMARK    6  A    between atoms: O_16  and  C_17
REMARK    7  A    between atoms: C_18  and  N_19
REMARK    8  A    between atoms: N_19  and  C_20
REMARK    9  A    between atoms: N_19  and  C_26
REMARK   10  A    between atoms: C_20  and  C_21
REMARK   11  A    between atoms: C_26  and  C_27
REMARK   12  A    between atoms: C_27  and  C_29
REMARK   13  A    between atoms: C_27  and  O_38
REMARK   14  A    between atoms: C_29  and  O_30
REMARK   15  A    between atoms: O_30  and  C_31
REMARK   16  A    between atoms: C_36  and  C_37
REMARK                            x       y       z     vdW  Elec       q    Type
REMARK                         _______ _______ _______ _____ _____    ______ ____
ROOT
ATOM      1  N   UNL     1      -0.494  -1.924  -6.959  0.00  0.00    +0.391 N 
ATOM      2  H   UNL     1       0.351  -1.372  -6.940  0.00  0.00    -0.080 HD
ENDROOT
BRANCH   1   3
ATOM      3  C   UNL     1      -1.444  -1.398  -5.971  0.00  0.00    -0.003 C 
BRANCH   3  10
ATOM      4  C   UNL     1       1.224  -1.322  -0.990  0.00  0.00    -0.012 A 
ATOM      5  C   UNL     1       0.446  -1.286  -2.149  0.00  0.00    +0.076 A 
ATOM      6  C   UNL     1      -0.954  -0.837  -2.322  0.00  0.00    +0.260 A 
ATOM      7  O   UNL     1      -1.600  -0.425  -1.375  0.00  0.00    -0.267 OA
ATOM      8  N   UNL     1      -1.496  -0.897  -3.554  0.00  0.00    -0.312 N 
ATOM      9  H   UNL     1      -2.412  -0.607  -3.685  0.00  0.00    +0.170 HD
ATOM     10  C   UNL     1      -0.787  -1.354  -4.615  0.00  0.00    +0.094 A 
ATOM     11  N   UNL     1       0.450  -1.756  -4.498  0.00  0.00    -0.229 NA
ATOM     12  C   UNL     1       1.078  -1.740  -3.329  0.00  0.00    +0.116 A 
ATOM     13  S   UNL     1       2.704  -2.189  -2.775  0.00  0.00    -0.062 S 
ATOM     14  C   UNL     1       2.512  -1.771  -1.050  0.00  0.00    +0.102 A 
BRANCH   4  16
ATOM     15  C   UNL     1       0.907   0.638   0.496  0.00  0.00    +0.009 C 
ATOM     16  C   UNL     1       0.646  -0.860   0.323  0.00  0.00    +0.034 C 
ENDBRANCH   4  16
BRANCH  14  17
ATOM     17  C   UNL     1       3.492  -1.885   0.032  0.00  0.00    +0.346 C 
ATOM     18  O   UNL     1       3.190  -1.554   1.163  0.00  0.00    -0.244 OA
BRANCH  17  19
ATOM     19  O   UNL     1       4.729  -2.357  -0.225  0.00  0.00    -0.464 OA
ATOM     20  C   UNL     1       5.634  -2.442   0.878  0.00  0.00    +0.280 C 
ENDBRANCH  17  19
ENDBRANCH  14  17
ENDBRANCH   3  10
ENDBRANCH   1   3
BRANCH   1  21
ATOM     21  C   UNL     1      -0.174  -3.321  -6.637  0.00  0.00    -0.002 C 
BRANCH  21  22
ATOM     22  C   UNL     1       0.908  -3.815  -7.562  0.00  0.00    +0.089 A 
ATOM     23  C   UNL     1       2.231  -3.643  -7.390  0.00  0.00    +0.042 A 
ATOM     24  C   UNL     1       2.871  -4.262  -8.487  0.00  0.00    +0.041 A 
ATOM     25  C   UNL     1       1.902  -4.776  -9.265  0.00  0.00    +0.195 A 
ATOM     26  O   UNL     1       0.715  -4.507  -8.697  0.00  0.00    -0.470 OA
ENDBRANCH  21  22
ENDBRANCH   1  21
BRANCH   1  27
ATOM     27  C   UNL     1      -1.093  -1.856  -8.299  0.00  0.00    -0.043 C 
BRANCH  27  28
ATOM     28  C   UNL     1      -1.294  -0.391  -8.694  0.00  0.00    +0.135 C 
BRANCH  28  29
ATOM     29  O   UNL     1      -0.027   0.269  -8.738  0.00  0.00    -0.390 OA
ATOM     30  H   UNL     1       0.569  -0.070  -9.419  0.00  0.00    +0.210 HD
ENDBRANCH  28  29
BRANCH  28  31
ATOM     31  C   UNL     1      -1.954  -0.321 -10.072  0.00  0.00    +0.258 C 
BRANCH  31  32
ATOM     32  O   UNL     1      -2.248   1.041 -10.390  0.00  0.00    -0.489 OA
BRANCH  32  33
ATOM     33  C   UNL     1      -2.841   1.280 -11.590  0.00  0.00    +0.124 A 
ATOM     34  C   UNL     1      -3.139   0.225 -12.440  0.00  0.00    +0.046 A 
ATOM     35  C   UNL     1      -3.743   0.471 -13.658  0.00  0.00    +0.004 A 
ATOM     36  C   UNL     1      -4.049   1.767 -14.030  0.00  0.00    +0.000 A 
ATOM     37  C   UNL     1      -3.753   2.820 -13.185  0.00  0.00    +0.007 A 
ATOM     38  C   UNL     1      -3.155   2.579 -11.963  0.00  0.00    -0.009 A 
ATOM     39  C   UNL     1      -2.837   3.726 -11.039  0.00  0.00    +0.047 C 
ENDBRANCH  32  33
ENDBRANCH  31  32
ENDBRANCH  28  31
ENDBRANCH  27  28
ENDBRANCH   1  27
TORSDOF 13
