REMARK  Name = ZINC59462395
REMARK  8 active torsions:
REMARK  status: ('A' for Active; 'I' for Inactive)
REMARK    1  A    between atoms: C_1  and  C_2
REMARK    2  A    between atoms: N_5  and  C_8
REMARK    3  A    between atoms: C_11  and  N_25
REMARK    4  A    between atoms: C_12  and  N_14
REMARK    5  A    between atoms: N_14  and  C_15
REMARK    6  A    between atoms: C_15  and  C_16
REMARK    7  A    between atoms: C_16  and  O_17
REMARK    8  A    between atoms: O_17  and  C_18
REMARK                            x       y       z     vdW  Elec       q    Type
REMARK                         _______ _______ _______ _____ _____    ______ ____
ROOT
ATOM      1  C   UNL     1      -1.184  -3.509   1.915  0.00  0.00    +0.032 A 
ATOM      2  C   UNL     1      -2.506  -3.933   1.972  0.00  0.00    +0.025 A 
ATOM      3  C   UNL     1      -2.900  -4.845   2.932  0.00  0.00    +0.036 A 
ATOM      4  C   UNL     1      -1.981  -5.339   3.838  0.00  0.00    +0.147 A 
ATOM      5  C   UNL     1      -0.657  -4.920   3.786  0.00  0.00    +0.060 A 
ATOM      6  C   UNL     1      -0.257  -4.008   2.819  0.00  0.00    +0.048 A 
ENDROOT
BRANCH   1  11
ATOM      7  C   UNL     1      -0.423   1.474  -0.275  0.00  0.00    +0.007 C 
ATOM      8  C   UNL     1      -0.366  -0.055  -0.244  0.00  0.00    -0.011 C 
ATOM      9  C   UNL     1      -1.782  -0.616  -0.094  0.00  0.00    +0.022 C 
ATOM     10  C   UNL     1      -1.724  -2.146  -0.098  0.00  0.00    +0.105 C 
ATOM     11  N   UNL     1      -0.786  -2.587   0.944  0.00  0.00    -0.330 N 
ATOM     12  C   UNL     1       0.577  -2.038   0.946  0.00  0.00    +0.105 C 
ATOM     13  C   UNL     1       0.493  -0.509   0.939  0.00  0.00    +0.022 C 
ENDBRANCH   1  11
BRANCH   4  14
ATOM     14  N   UNL     1      -2.408  -6.316   4.865  0.00  0.00    +0.058 N 
ATOM     15  O   UNL     1      -3.223  -7.165   4.590  0.00  0.00    -0.126 OA
ATOM     16  O   UNL     1      -1.941  -6.264   5.979  0.00  0.00    -0.126 OA
ENDBRANCH   4  14
BRANCH   5  17
ATOM     17  N   UNL     1       0.270  -5.420   4.702  0.00  0.00    -0.339 N 
ATOM     18  H   UNL     1       0.012  -6.120   5.321  0.00  0.00    +0.146 HD
BRANCH  17  19
ATOM     19  C   UNL     1       1.634  -4.886   4.729  0.00  0.00    +0.142 C 
BRANCH  19  20
ATOM     20  C   UNL     1       2.440  -5.599   5.816  0.00  0.00    +0.247 C 
BRANCH  20  21
ATOM     21  O   UNL     1       2.581  -6.980   5.476  0.00  0.00    -0.490 OA
BRANCH  21  22
ATOM     22  C   UNL     1       3.277  -7.762   6.343  0.00  0.00    +0.121 A 
ATOM     23  C   UNL     1       3.807  -7.212   7.501  0.00  0.00    +0.047 A 
ATOM     24  C   UNL     1       4.514  -8.008   8.382  0.00  0.00    +0.023 A 
ATOM     25  C   UNL     1       4.693  -9.353   8.110  0.00  0.00    +0.041 A 
ATOM     26  C   UNL     1       4.165  -9.903   6.955  0.00  0.00    +0.023 A 
ATOM     27  C   UNL     1       3.452  -9.111   6.075  0.00  0.00    +0.047 A 
ATOM     28 CL   UNL     1       5.581 -10.351   9.218  0.00  0.00    -0.084 Cl
ENDBRANCH  21  22
ENDBRANCH  20  21
ENDBRANCH  19  20
ENDBRANCH  17  19
ENDBRANCH   5  17
TORSDOF 7
