REMARK  Name = ZINC12165313
REMARK  11 active torsions:
REMARK  status: ('A' for Active; 'I' for Inactive)
REMARK    1  A    between atoms: C_1  and  C_2
REMARK    2  A    between atoms: C_7  and  C_8
REMARK    3  A    between atoms: C_8  and  S_9
REMARK    4  A    between atoms: S_9  and  C_10
REMARK    5  A    between atoms: C_13  and  C_22
REMARK    6  A    between atoms: N_14  and  C_15
REMARK    7  A    between atoms: C_15  and  C_16
REMARK    8  A    between atoms: C_22  and  N_67
REMARK    9  A    between atoms: C_23  and  N_67
REMARK   10  A    between atoms: C_24  and  C_25
REMARK   11  A    between atoms: C_24  and  N_67
REMARK                            x       y       z     vdW  Elec       q    Type
REMARK                         _______ _______ _______ _____ _____    ______ ____
ROOT
ATOM      1  C   UNL     1       6.372   2.679  -4.665  0.00  0.00    +0.192 A 
ATOM      2  N   UNL     1       6.592   1.400  -4.860  0.00  0.00    -0.123 NA
ATOM      3  N   UNL     1       6.335   0.744  -3.785  0.00  0.00    -0.135 NA
ATOM      4  C   UNL     1       5.931   1.557  -2.851  0.00  0.00    +0.117 A 
ATOM      5  N   UNL     1       5.944   2.819  -3.376  0.00  0.00    -0.305 N 
ENDROOT
BRANCH   1   6
ATOM      6  S   UNL     1       6.589   3.971  -5.843  0.00  0.00    -0.081 S 
BRANCH   6   7
ATOM      7  C   UNL     1       7.162   3.008  -7.264  0.00  0.00    +0.112 C 
BRANCH   7  14
ATOM      8  C   UNL     1       9.775   4.185  -7.623  0.00  0.00    +0.044 C 
ATOM      9  C   UNL     1       8.669   4.495  -8.598  0.00  0.00    -0.046 A 
ATOM     10  C   UNL     1       8.905   5.343  -9.665  0.00  0.00    +0.003 A 
ATOM     11  C   UNL     1       7.891   5.626 -10.560  0.00  0.00    +0.000 A 
ATOM     12  C   UNL     1       6.640   5.063 -10.388  0.00  0.00    +0.000 A 
ATOM     13  C   UNL     1       6.406   4.212  -9.325  0.00  0.00    +0.005 A 
ATOM     14  C   UNL     1       7.419   3.932  -8.427  0.00  0.00    -0.034 A 
ENDBRANCH   7  14
ENDBRANCH   6   7
ENDBRANCH   1   6
BRANCH   5  15
ATOM     15  C   UNL     1       5.574   4.064  -2.697  0.00  0.00    +0.157 C 
BRANCH  15  16
ATOM     16  C   UNL     1       6.810   4.665  -2.025  0.00  0.00    +0.138 C 
ATOM     17  C   UNL     1       6.408   5.910  -1.207  0.00  0.00    +0.035 C 
ATOM     18  C   UNL     1       7.594   6.878  -1.478  0.00  0.00    +0.031 C 
ATOM     19  C   UNL     1       7.953   6.503  -2.938  0.00  0.00    +0.160 C 
ATOM     20  O   UNL     1       7.750   5.084  -3.022  0.00  0.00    -0.375 OA
ENDBRANCH  15  16
ENDBRANCH   5  15
BRANCH   4  21
ATOM     21  C   UNL     1       5.530   1.177  -1.449  0.00  0.00    -0.001 C 
BRANCH  21  23
ATOM     22  C   UNL     1       3.768  -0.303  -2.203  0.00  0.00    -0.095 C 
ATOM     23  N   UNL     1       4.076   0.915  -1.423  0.00  0.00    +0.386 N 
ATOM     24  H   UNL     1       3.585   1.713  -1.844  0.00  0.00    -0.081 HD
BRANCH  23  25
ATOM     25  C   UNL     1       3.616   0.751  -0.028  0.00  0.00    -0.024 C 
BRANCH  25  26
ATOM     26  C   UNL     1       2.110   0.706  -0.014  0.00  0.00    +0.009 A 
ATOM     27  C   UNL     1       1.352  -0.409  -0.013  0.00  0.00    +0.021 A 
ATOM     28  C   UNL     1       0.002  -0.004   0.002  0.00  0.00    +0.020 A 
ATOM     29  C   UNL     1      -0.016   1.344   0.009  0.00  0.00    +0.093 A 
ATOM     30  N   UNL     1       1.276   1.788  -0.001  0.00  0.00    -0.307 N 
ATOM     31  C   UNL     1       1.678   3.127   0.002  0.00  0.00    +0.138 A 
ATOM     32  C   UNL     1       0.720   4.133   0.011  0.00  0.00    +0.047 A 
ATOM     33  C   UNL     1       1.131   5.455   0.019  0.00  0.00    +0.005 A 
ATOM     34  C   UNL     1       2.493   5.724   0.007  0.00  0.00    +0.020 A 
ATOM     35  C   UNL     1       3.389   4.674  -0.007  0.00  0.00    +0.113 A 
ATOM     36  N   UNL     1       2.967   3.424  -0.009  0.00  0.00    -0.238 NA
ENDBRANCH  25  26
ENDBRANCH  23  25
ENDBRANCH  21  23
ENDBRANCH   4  21
TORSDOF 9
