REMARK  Name = ZINC12029678
REMARK  9 active torsions:
REMARK  status: ('A' for Active; 'I' for Inactive)
REMARK    1  A    between atoms: C_1  and  C_2
REMARK    2  A    between atoms: C_7  and  N_8
REMARK    3  A    between atoms: C_10  and  C_13
REMARK    4  A    between atoms: C_13  and  N_14
REMARK    5  A    between atoms: C_15  and  C_17
REMARK    6  A    between atoms: C_17  and  C_18
REMARK    7  A    between atoms: C_25  and  C_26
REMARK    8  A    between atoms: C_25  and  N_62
REMARK    9  A    between atoms: C_27  and  C_28
REMARK                            x       y       z     vdW  Elec       q    Type
REMARK                         _______ _______ _______ _____ _____    ______ ____
ROOT
ATOM      1  C   UNL     1      -2.122   3.431   0.354  0.00  0.00    +0.089 C 
ENDROOT
BRANCH   1   2
ATOM      2  C   UNL     1      -0.957   3.158  -0.601  0.00  0.00    +0.028 C 
ATOM      3  C   UNL     1       0.196   4.058  -0.256  0.00  0.00    +0.200 C 
ATOM      4  O   UNL     1       0.477   4.220   0.912  0.00  0.00    -0.278 OA
ATOM      5  N   UNL     1       0.921   4.691  -1.184  0.00  0.00    -0.318 N 
ATOM      6  C   UNL     1       0.645   4.588  -2.614  0.00  0.00    +0.085 C 
ATOM      7  C   UNL     1      -0.235   3.368  -2.892  0.00  0.00    -0.058 C 
ATOM      8  H   UNL     1       1.666   5.241  -0.894  0.00  0.00    +0.149 HD
ATOM      9  N   UNL     1      -1.397   3.425  -1.983  0.00  0.00    +0.391 N 
ATOM     10  H   UNL     1      -1.811   4.364  -2.027  0.00  0.00    -0.080 HD
BRANCH   9  11
ATOM     11  C   UNL     1      -2.413   2.430  -2.393  0.00  0.00    -0.050 C 
BRANCH  11  12
ATOM     12  C   UNL     1      -3.096   2.917  -3.645  0.00  0.00    -0.045 C 
ATOM     13  C   UNL     1      -3.139   2.144  -4.721  0.00  0.00    +0.002 C 
BRANCH  13  14
ATOM     14  C   UNL     1      -3.809   2.623  -5.949  0.00  0.00    -0.025 A 
ATOM     15  C   UNL     1      -4.403   3.885  -5.976  0.00  0.00    +0.008 A 
ATOM     16  C   UNL     1      -5.022   4.328  -7.127  0.00  0.00    +0.001 A 
ATOM     17  C   UNL     1      -5.064   3.518  -8.248  0.00  0.00    +0.000 A 
ATOM     18  C   UNL     1      -4.482   2.264  -8.226  0.00  0.00    +0.001 A 
ATOM     19  C   UNL     1      -3.855   1.811  -7.083  0.00  0.00    +0.008 A 
ENDBRANCH  13  14
ENDBRANCH  11  12
ENDBRANCH   9  11
ENDBRANCH   1   2
BRANCH   1  21
ATOM     20  N   UNL     1      -3.538   5.355   0.996  0.00  0.00    -0.311 N 
ATOM     21  C   UNL     1      -2.591   4.853   0.179  0.00  0.00    +0.212 C 
ATOM     22  O   UNL     1      -2.116   5.545  -0.696  0.00  0.00    -0.276 OA
ATOM     23  H   UNL     1      -3.918   4.801   1.696  0.00  0.00    +0.149 HD
BRANCH  20  24
ATOM     24  C   UNL     1      -3.994   6.737   0.827  0.00  0.00    +0.142 C 
BRANCH  24  27
ATOM     25  N   UNL     1      -6.978   7.270   2.857  0.00  0.00    -0.239 N 
ATOM     26  C   UNL     1      -6.382   6.876   1.709  0.00  0.00    +0.119 A 
ATOM     27  C   UNL     1      -5.048   7.048   1.857  0.00  0.00    +0.007 A 
ATOM     28  C   UNL     1      -4.821   7.571   3.135  0.00  0.00    +0.140 A 
ATOM     29  N   UNL     1      -5.976   7.704   3.735  0.00  0.00    -0.174 NA
BRANCH  25  36
ATOM     30  C   UNL     1      -7.859   6.193   5.340  0.00  0.00    +0.046 C 
ATOM     31  C   UNL     1      -8.827   6.735   4.320  0.00  0.00    -0.025 A 
ATOM     32  C   UNL     1     -10.184   6.718   4.577  0.00  0.00    +0.005 A 
ATOM     33  C   UNL     1     -11.072   7.216   3.641  0.00  0.00    +0.000 A 
ATOM     34  C   UNL     1     -10.605   7.731   2.446  0.00  0.00    +0.002 A 
ATOM     35  C   UNL     1      -9.249   7.755   2.185  0.00  0.00    +0.028 A 
ATOM     36  C   UNL     1      -8.355   7.251   3.121  0.00  0.00    +0.068 A 
ENDBRANCH  25  36
ENDBRANCH  24  27
ENDBRANCH  20  24
ENDBRANCH   1  21
TORSDOF 8
