REMARK  Name = ZINC12006258
REMARK  4 active torsions:
REMARK  status: ('A' for Active; 'I' for Inactive)
REMARK    1  A    between atoms: C_1  and  C_2
REMARK    2  A    between atoms: C_11  and  N_20
REMARK    3  A    between atoms: C_13  and  C_15
REMARK    4  A    between atoms: C_21  and  C_23
REMARK                            x       y       z     vdW  Elec       q    Type
REMARK                         _______ _______ _______ _____ _____    ______ ____
ROOT
ATOM      1  C   UNL     1       1.929   6.274  -0.003  0.00  0.00    +0.066 C 
ATOM      2  C   UNL     1       3.095   5.318  -0.018  0.00  0.00    +0.047 A 
ATOM      3  C   UNL     1       4.370   5.801  -0.033  0.00  0.00    +0.093 A 
ATOM      4  C   UNL     1       5.441   4.887  -0.046  0.00  0.00    +0.253 A 
ATOM      5  O   UNL     1       6.596   5.282  -0.060  0.00  0.00    -0.268 OA
ATOM      6  N   UNL     1       5.166   3.565  -0.040  0.00  0.00    -0.291 N 
ATOM      7  H   UNL     1       5.888   2.918  -0.045  0.00  0.00    +0.172 HD
ATOM      8  C   UNL     1       3.873   3.145  -0.030  0.00  0.00    +0.234 A 
ATOM      9  N   UNL     1       2.877   4.004  -0.017  0.00  0.00    -0.217 NA
ATOM     10  N   UNL     1       3.600   1.791  -0.028  0.00  0.00    -0.184 N 
ATOM     11  C   UNL     1       2.358   1.222  -0.014  0.00  0.00    +0.133 A 
ATOM     12  C   UNL     1       2.522  -0.125  -0.023  0.00  0.00    +0.077 A 
ATOM     13  C   UNL     1       3.908  -0.392  -0.038  0.00  0.00    +0.130 A 
ATOM     14  N   UNL     1       4.548   0.760  -0.038  0.00  0.00    -0.159 NA
ENDROOT
BRANCH  13  15
ATOM     15  C   UNL     1       4.533  -1.731  -0.052  0.00  0.00    +0.155 A 
ATOM     16  C   UNL     1       5.868  -1.988  -0.072  0.00  0.00    +0.051 A 
ATOM     17  C   UNL     1       6.011  -3.390  -0.076  0.00  0.00    +0.042 A 
ATOM     18  C   UNL     1       4.770  -3.913  -0.067  0.00  0.00    +0.196 A 
ATOM     19  O   UNL     1       3.879  -2.908  -0.052  0.00  0.00    -0.461 OA
ENDBRANCH  13  15
BRANCH  11  20
ATOM     20  N   UNL     1       1.143   1.901   0.001  0.00  0.00    -0.266 N 
ATOM     21  C   UNL     1      -0.014   1.212   0.009  0.00  0.00    +0.252 C 
ATOM     22  O   UNL     1       0.002  -0.004   0.002  0.00  0.00    -0.270 OA
ATOM     23  H   UNL     1       1.130   2.871   0.007  0.00  0.00    +0.157 HD
BRANCH  21  24
ATOM     24  C   UNL     1      -1.303   1.932   0.019  0.00  0.00    +0.072 A 
ATOM     25  C   UNL     1      -1.326   3.329   0.032  0.00  0.00    +0.016 A 
ATOM     26  C   UNL     1      -2.533   3.996   0.037  0.00  0.00    +0.001 A 
ATOM     27  C   UNL     1      -3.721   3.286   0.038  0.00  0.00    +0.003 A 
ATOM     28  C   UNL     1      -3.709   1.904   0.030  0.00  0.00    +0.039 A 
ATOM     29  C   UNL     1      -2.507   1.220   0.021  0.00  0.00    +0.135 A 
ATOM     30  F   UNL     1      -2.495  -0.131   0.014  0.00  0.00    -0.205 F 
ENDBRANCH  21  24
ENDBRANCH  11  20
TORSDOF 3
