REMARK  Name = ZINC09021882
REMARK  8 active torsions:
REMARK  status: ('A' for Active; 'I' for Inactive)
REMARK    1  A    between atoms: C_1  and  C_2
REMARK    2  A    between atoms: C_5  and  C_9
REMARK    3  A    between atoms: C_6  and  O_8
REMARK    4  A    between atoms: C_9  and  O_11
REMARK    5  A    between atoms: O_11  and  C_12
REMARK    6  A    between atoms: C_12  and  C_13
REMARK    7  A    between atoms: N_19  and  C_20
REMARK    8  A    between atoms: C_25  and  C_26
REMARK                            x       y       z     vdW  Elec       q    Type
REMARK                         _______ _______ _______ _____ _____    ______ ____
ROOT
ATOM      1  C   UNL     1       3.659  -2.405  -0.046  0.00  0.00    +0.173 A 
ATOM      2  N   UNL     1       3.587  -3.064   1.097  0.00  0.00    -0.196 NA
ATOM      3  C   UNL     1       3.413  -4.384   1.096  0.00  0.00    +0.217 A 
ATOM      4  N   UNL     1       3.324  -5.040  -0.057  0.00  0.00    -0.181 NA
ATOM      5  C   UNL     1       3.402  -4.374  -1.203  0.00  0.00    +0.224 A 
ATOM      6  N   UNL     1       3.571  -3.053  -1.194  0.00  0.00    -0.196 NA
ATOM      7  N   UNL     1       3.309  -5.051  -2.404  0.00  0.00    -0.283 N 
ATOM      8  N   UNL     1       3.332  -5.071   2.290  0.00  0.00    -0.327 N 
ATOM      9  H   UNL     1       3.281  -4.557  -3.238  0.00  0.00    +0.155 HD
ATOM     10  H   UNL     1       3.209  -6.033   2.288  0.00  0.00    +0.145 HD
ATOM     11  H   UNL     1       3.397  -4.592   3.130  0.00  0.00    +0.145 HD
ENDROOT
BRANCH   7  12
ATOM     12  C   UNL     1       3.256  -6.448  -2.417  0.00  0.00    +0.036 A 
ATOM     13  C   UNL     1       3.795  -7.174  -1.362  0.00  0.00    +0.023 A 
ATOM     14  C   UNL     1       3.735  -8.554  -1.375  0.00  0.00    +0.002 A 
ATOM     15  C   UNL     1       3.151  -9.213  -2.441  0.00  0.00    +0.000 A 
ATOM     16  C   UNL     1       2.619  -8.493  -3.495  0.00  0.00    +0.005 A 
ATOM     17  C   UNL     1       2.670  -7.112  -3.486  0.00  0.00    -0.029 A 
ATOM     18  C   UNL     1       2.091  -6.328  -4.635  0.00  0.00    +0.045 C 
ENDBRANCH   7  12
BRANCH   1  19
ATOM     19  C   UNL     1       3.850  -0.910  -0.040  0.00  0.00    +0.308 C 
BRANCH  19  20
ATOM     20  O   UNL     1       2.553  -0.257  -0.031  0.00  0.00    -0.453 OA
BRANCH  20  21
ATOM     21  C   UNL     1       2.547   1.091  -0.025  0.00  0.00    +0.343 C 
ATOM     22  O   UNL     1       3.596   1.703  -0.027  0.00  0.00    -0.245 OA
BRANCH  21  27
ATOM     23  C   UNL     1      -2.453   3.939   0.008  0.00  0.00    +0.044 C 
ATOM     24  C   UNL     1      -1.142   3.197   0.000  0.00  0.00    -0.047 A 
ATOM     25  C   UNL     1      -1.135   1.811  -0.011  0.00  0.00    +0.004 A 
ATOM     26  C   UNL     1       0.057   1.122  -0.013  0.00  0.00    +0.019 A 
ATOM     27  C   UNL     1       1.267   1.822  -0.016  0.00  0.00    +0.100 A 
ATOM     28  C   UNL     1       1.256   3.224  -0.010  0.00  0.00    +0.131 A 
ATOM     29  C   UNL     1       0.045   3.901  -0.002  0.00  0.00    +0.049 A 
BRANCH  28  30
ATOM     30  O   UNL     1       2.423   3.915  -0.012  0.00  0.00    -0.506 OA
ATOM     31  H   UNL     1       2.758   4.119  -0.896  0.00  0.00    +0.292 HD
ENDBRANCH  28  30
ENDBRANCH  21  27
ENDBRANCH  20  21
ENDBRANCH  19  20
ENDBRANCH   1  19
TORSDOF 6
