REMARK  Name = ZINC09042797
REMARK  9 active torsions:
REMARK  status: ('A' for Active; 'I' for Inactive)
REMARK    1  A    between atoms: C_1  and  C_2
REMARK    2  A    between atoms: C_2  and  C_3
REMARK    3  A    between atoms: C_2  and  N_4
REMARK    4  A    between atoms: N_12  and  N_13
REMARK    5  A    between atoms: C_14  and  C_16
REMARK    6  A    between atoms: C_16  and  N_17
REMARK    7  A    between atoms: C_18  and  C_20
REMARK    8  A    between atoms: C_20  and  C_21
REMARK    9  A    between atoms: C_20  and  C_27
REMARK                            x       y       z     vdW  Elec       q    Type
REMARK                         _______ _______ _______ _____ _____    ______ ____
ROOT
ATOM      1  N   UNL     1       4.517  -0.360   5.623  0.00  0.00    -0.205 N 
ATOM      2  C   UNL     1       5.858  -0.247   5.701  0.00  0.00    +0.249 C 
ATOM      3  O   UNL     1       6.454  -0.734   6.638  0.00  0.00    -0.272 OA
ATOM      4  H   UNL     1       4.040   0.030   4.874  0.00  0.00    +0.177 HD
ENDROOT
BRANCH   1  13
ATOM      5  N   UNL     1       0.359  -0.965   5.805  0.00  0.00    -0.263 N 
ATOM      6  C   UNL     1       0.307  -1.680   6.996  0.00  0.00    +0.046 A 
ATOM      7  C   UNL     1      -0.762  -2.226   7.700  0.00  0.00    +0.024 A 
ATOM      8  C   UNL     1      -0.540  -2.902   8.882  0.00  0.00    +0.002 A 
ATOM      9  C   UNL     1       0.744  -3.047   9.382  0.00  0.00    +0.001 A 
ATOM     10  C   UNL     1       1.817  -2.512   8.698  0.00  0.00    +0.012 A 
ATOM     11  C   UNL     1       1.603  -1.828   7.506  0.00  0.00    +0.028 A 
ATOM     12  C   UNL     1       2.509  -1.151   6.549  0.00  0.00    +0.153 C 
ATOM     13  N   UNL     1       3.812  -1.040   6.625  0.00  0.00    -0.174 NA
ATOM     14  C   UNL     1       1.622  -0.631   5.488  0.00  0.00    +0.272 C 
ATOM     15  O   UNL     1       1.972  -0.010   4.502  0.00  0.00    -0.268 OA
BRANCH   5  17
ATOM     16  C   UNL     1      -0.918   0.898   4.868  0.00  0.00    +0.028 C 
ATOM     17  C   UNL     1      -0.813  -0.623   4.995  0.00  0.00    +0.076 C 
ATOM     18  C   UNL     1      -0.670  -1.243   3.604  0.00  0.00    +0.028 C 
ENDBRANCH   5  17
ENDBRANCH   1  13
BRANCH   2  19
ATOM     19  C   UNL     1       6.616   0.485   4.624  0.00  0.00    +0.201 C 
BRANCH  19  20
ATOM     20  N   UNL     1       8.047   0.469   4.937  0.00  0.00    -0.306 N 
ATOM     21  C   UNL     1       8.925   1.068   4.108  0.00  0.00    +0.225 C 
ATOM     22  O   UNL     1       8.531   1.620   3.103  0.00  0.00    -0.275 OA
ATOM     23  H   UNL     1       8.363   0.028   5.741  0.00  0.00    +0.149 HD
BRANCH  21  24
ATOM     24  C   UNL     1      10.398   1.051   4.431  0.00  0.00    +0.135 C 
BRANCH  24  25
ATOM     25  C   UNL     1      10.880  -0.375   4.503  0.00  0.00    -0.031 A 
ATOM     26  C   UNL     1      10.608  -1.250   3.469  0.00  0.00    +0.005 A 
ATOM     27  C   UNL     1      11.050  -2.558   3.536  0.00  0.00    +0.000 A 
ATOM     28  C   UNL     1      11.764  -2.991   4.637  0.00  0.00    +0.000 A 
ATOM     29  C   UNL     1      12.037  -2.115   5.672  0.00  0.00    +0.000 A 
ATOM     30  C   UNL     1      11.598  -0.806   5.603  0.00  0.00    +0.005 A 
ENDBRANCH  24  25
BRANCH  24  31
ATOM     31  C   UNL     1      11.156   1.783   3.353  0.00  0.00    -0.031 A 
ATOM     32  C   UNL     1      10.981   1.435   2.027  0.00  0.00    +0.005 A 
ATOM     33  C   UNL     1      11.677   2.107   1.039  0.00  0.00    +0.000 A 
ATOM     34  C   UNL     1      12.546   3.126   1.377  0.00  0.00    +0.000 A 
ATOM     35  C   UNL     1      12.721   3.475   2.704  0.00  0.00    +0.000 A 
ATOM     36  C   UNL     1      12.022   2.806   3.691  0.00  0.00    +0.005 A 
ENDBRANCH  24  31
ENDBRANCH  21  24
ENDBRANCH  19  20
ENDBRANCH   2  19
TORSDOF 7
