REMARK  Name = ZINC16124820
REMARK  2 active torsions:
REMARK  status: ('A' for Active; 'I' for Inactive)
REMARK    1  A    between atoms: C_1  and  C_2
REMARK    2  A    between atoms: C_3  and  C_12
REMARK                            x       y       z     vdW  Elec       q    Type
REMARK                         _______ _______ _______ _____ _____    ______ ____
ROOT
ATOM      1  C   UNL     1      -0.013   1.086   0.008  0.00  0.00    +0.051 C 
ATOM      2  C   UNL     1      -0.718   1.572   1.248  0.00  0.00    +0.033 A 
ATOM      3  C   UNL     1      -0.858   2.895   1.482  0.00  0.00    +0.023 A 
ATOM      4  N   UNL     1      -1.504   3.318   2.610  0.00  0.00    -0.339 N 
ATOM      5  H   UNL     1      -1.628   4.395   2.802  0.00  0.00    +0.167 HD
ATOM      6  C   UNL     1      -1.994   2.430   3.494  0.00  0.00    +0.158 A 
ATOM      7  S   UNL     1      -2.792   2.992   4.901  0.00  0.00    -0.013 S 
ATOM      8  N   UNL     1      -1.865   1.106   3.288  0.00  0.00    -0.303 N 
ATOM      9  H   UNL     1      -2.272   0.394   4.021  0.00  0.00    +0.171 HD
ATOM     10  C   UNL     1      -1.238   0.648   2.186  0.00  0.00    +0.255 A 
ATOM     11  O   UNL     1      -1.121  -0.550   1.999  0.00  0.00    -0.267 OA
ATOM     12  C   UNL     1      -0.308   3.899   0.502  0.00  0.00    +0.064 C 
ENDROOT
TORSDOF 0
