REMARK  Name = ZINC14566547
REMARK  10 active torsions:
REMARK  status: ('A' for Active; 'I' for Inactive)
REMARK    1  A    between atoms: C_1  and  C_2
REMARK    2  A    between atoms: C_2  and  C_4
REMARK    3  A    between atoms: C_2  and  S_14
REMARK    4  A    between atoms: N_9  and  C_10
REMARK    5  A    between atoms: C_10  and  C_11
REMARK    6  A    between atoms: C_11  and  C_12
REMARK    7  A    between atoms: C_11  and  C_13
REMARK    8  A    between atoms: S_14  and  C_15
REMARK    9  A    between atoms: C_19  and  C_22
REMARK   10  A    between atoms: N_29  and  C_30
REMARK                            x       y       z     vdW  Elec       q    Type
REMARK                         _______ _______ _______ _____ _____    ______ ____
ROOT
ATOM      1  C   UNL     1      -0.136  -0.087   2.816  0.00  0.00    +0.173 A 
ATOM      2  N   UNL     1      -1.249   0.575   2.572  0.00  0.00    -0.216 NA
ATOM      3  C   UNL     1      -2.033   0.977   3.566  0.00  0.00    +0.117 A 
ATOM      4  C   UNL     1      -1.722   0.722   4.912  0.00  0.00    +0.080 A 
ATOM      5  C   UNL     1      -2.690   1.233   5.878  0.00  0.00    +0.010 A 
ATOM      6  C   UNL     1      -3.781   1.894   5.419  0.00  0.00    +0.057 A 
ATOM      7  S   UNL     1      -3.567   1.866   3.650  0.00  0.00    -0.076 S 
ATOM      8  C   UNL     1      -0.509   0.003   5.145  0.00  0.00    +0.263 A 
ATOM      9  O   UNL     1      -0.159  -0.264   6.282  0.00  0.00    -0.267 OA
ATOM     10  N   UNL     1       0.238  -0.381   4.095  0.00  0.00    -0.290 N 
ATOM     11  C   UNL     1       1.480  -1.123   4.328  0.00  0.00    +0.154 C 
ENDROOT
BRANCH   5  12
ATOM     12  C   UNL     1      -2.486   1.034   7.328  0.00  0.00    +0.021 A 
ATOM     13  C   UNL     1      -2.545   1.952   8.342  0.00  0.00    +0.016 A 
ATOM     14  C   UNL     1      -2.315   1.528   9.634  0.00  0.00    +0.008 A 
ATOM     15  C   UNL     1      -2.039   0.219   9.861  0.00  0.00    +0.046 A 
ATOM     16  S   UNL     1      -2.105  -0.468   8.214  0.00  0.00    -0.097 S 
ENDBRANCH   5  12
BRANCH   1  17
ATOM     17  S   UNL     1       0.879  -0.605   1.472  0.00  0.00    -0.075 S 
BRANCH  17  19
ATOM     18  C   UNL     1      -0.019   1.526   0.010  0.00  0.00    +0.029 C 
ATOM     19  C   UNL     1       0.002  -0.004   0.002  0.00  0.00    +0.137 C 
BRANCH  19  20
ATOM     20  C   UNL     1       0.707  -0.490  -1.238  0.00  0.00    +0.233 C 
ATOM     21  O   UNL     1       1.864  -0.849  -1.176  0.00  0.00    -0.274 OA
ATOM     22  N   UNL     1       0.053  -0.526  -2.415  0.00  0.00    -0.239 N 
ATOM     23  C   UNL     1       0.683  -0.961  -3.524  0.00  0.00    +0.306 C 
ATOM     24  O   UNL     1       1.843  -1.320  -3.462  0.00  0.00    -0.252 OA
ATOM     25  N   UNL     1       0.029  -0.997  -4.702  0.00  0.00    -0.299 N 
ATOM     26  H   UNL     1      -0.873  -0.239  -2.465  0.00  0.00    +0.159 HD
ATOM     27  H   UNL     1      -0.896  -0.710  -4.751  0.00  0.00    +0.150 HD
BRANCH  25  28
ATOM     28  C   UNL     1       0.715  -1.469  -5.907  0.00  0.00    +0.108 C 
BRANCH  28  29
ATOM     29  C   UNL     1      -0.246  -1.409  -7.097  0.00  0.00    -0.000 C 
ATOM     30  C   UNL     1       0.504  -1.784  -8.377  0.00  0.00    +0.009 C 
ATOM     31  C   UNL     1      -1.396  -2.393  -6.873  0.00  0.00    +0.009 C 
ENDBRANCH  28  29
ENDBRANCH  25  28
ENDBRANCH  19  20
ENDBRANCH  17  19
ENDBRANCH   1  17
TORSDOF 6
