REMARK  Name = ZINC12136526
REMARK  11 active torsions:
REMARK  status: ('A' for Active; 'I' for Inactive)
REMARK    1  A    between atoms: C_1  and  C_2
REMARK    2  A    between atoms: C_2  and  C_3
REMARK    3  A    between atoms: C_3  and  C_5
REMARK    4  A    between atoms: C_3  and  C_29
REMARK    5  A    between atoms: C_5  and  N_6
REMARK    6  A    between atoms: C_7  and  C_9
REMARK    7  A    between atoms: C_9  and  S_10
REMARK    8  A    between atoms: S_10  and  C_11
REMARK    9  A    between atoms: C_14  and  C_23
REMARK   10  A    between atoms: N_15  and  C_16
REMARK   11  A    between atoms: C_23  and  N_66
REMARK                            x       y       z     vdW  Elec       q    Type
REMARK                         _______ _______ _______ _____ _____    ______ ____
ROOT
ATOM      1  C   UNL     1       0.800   0.577  -2.806  0.00  0.00    +0.197 A 
ATOM      2  N   UNL     1       1.797  -0.233  -2.533  0.00  0.00    -0.122 NA
ATOM      3  N   UNL     1       2.324  -0.662  -3.623  0.00  0.00    -0.135 NA
ATOM      4  C   UNL     1       1.708  -0.150  -4.651  0.00  0.00    +0.122 A 
ATOM      5  N   UNL     1       0.713   0.658  -4.169  0.00  0.00    -0.276 N 
ENDROOT
BRANCH   5   6
ATOM      6  C   UNL     1      -0.203   1.413  -4.917  0.00  0.00    +0.050 A 
ATOM      7  C   UNL     1      -1.131   0.775  -5.728  0.00  0.00    +0.029 A 
ATOM      8  C   UNL     1      -2.036   1.519  -6.459  0.00  0.00    +0.040 A 
ATOM      9  C   UNL     1      -2.011   2.902  -6.391  0.00  0.00    +0.124 A 
ATOM     10  C   UNL     1      -1.082   3.541  -5.587  0.00  0.00    +0.040 A 
ATOM     11  C   UNL     1      -0.179   2.799  -4.850  0.00  0.00    +0.029 A 
ATOM     12  F   UNL     1      -2.893   3.629  -7.111  0.00  0.00    -0.205 F 
ENDBRANCH   5   6
BRANCH   1  13
ATOM     13  S   UNL     1      -0.227   1.406  -1.639  0.00  0.00    -0.076 S 
BRANCH  13  14
ATOM     14  C   UNL     1       0.499   0.801  -0.096  0.00  0.00    +0.173 C 
BRANCH  14  16
ATOM     15  N   UNL     1       0.127   1.085   2.333  0.00  0.00    -0.314 N 
ATOM     16  C   UNL     1      -0.241   1.396   1.075  0.00  0.00    +0.223 C 
ATOM     17  O   UNL     1      -1.168   2.154   0.884  0.00  0.00    -0.275 OA
ATOM     18  H   UNL     1       0.869   0.478   2.486  0.00  0.00    +0.149 HD
BRANCH  15  19
ATOM     19  C   UNL     1      -0.592   1.663   3.471  0.00  0.00    +0.112 C 
BRANCH  19  20
ATOM     20  C   UNL     1      -0.039   1.081   4.773  0.00  0.00    +0.036 C 
BRANCH  20  21
ATOM     21  C   UNL     1      -0.680   1.777   5.947  0.00  0.00    -0.043 A 
ATOM     22  C   UNL     1      -2.052   1.732   6.111  0.00  0.00    +0.004 A 
ATOM     23  C   UNL     1      -2.639   2.367   7.190  0.00  0.00    +0.000 A 
ATOM     24  C   UNL     1      -1.856   3.054   8.098  0.00  0.00    +0.000 A 
ATOM     25  C   UNL     1      -0.485   3.103   7.931  0.00  0.00    +0.000 A 
ATOM     26  C   UNL     1       0.103   2.465   6.855  0.00  0.00    +0.004 A 
ENDBRANCH  20  21
BRANCH  20  28
ATOM     27  C   UNL     1       0.315  -1.023   6.072  0.00  0.00    +0.004 C 
ATOM     28  C   UNL     1      -0.350  -0.415   4.836  0.00  0.00    +0.006 C 
ENDBRANCH  20  28
ENDBRANCH  19  20
ENDBRANCH  15  19
ENDBRANCH  14  16
ENDBRANCH  13  14
ENDBRANCH   1  13
BRANCH   4  29
ATOM     29  C   UNL     1       2.030  -0.402  -6.102  0.00  0.00    -0.001 C 
BRANCH  29  35
ATOM     30  C   UNL     1       2.437   1.941  -6.557  0.00  0.00    -0.078 C 
ATOM     31  C   UNL     1       3.525   2.961  -6.903  0.00  0.00    -0.019 C 
ATOM     32  C   UNL     1       4.100   2.637  -8.285  0.00  0.00    -0.004 C 
ATOM     33  C   UNL     1       4.648   1.207  -8.279  0.00  0.00    -0.019 C 
ATOM     34  C   UNL     1       3.528   0.239  -7.893  0.00  0.00    -0.078 C 
ATOM     35  N   UNL     1       3.034   0.589  -6.544  0.00  0.00    +0.384 N 
ATOM     36  H   UNL     1       3.824   0.579  -5.888  0.00  0.00    -0.081 HD
ENDBRANCH  29  35
ENDBRANCH   4  29
TORSDOF 10
