REMARK  Name = ZINC39684549
REMARK  11 active torsions:
REMARK  status: ('A' for Active; 'I' for Inactive)
REMARK    1  A    between atoms: C_1  and  C_2
REMARK    2  A    between atoms: C_2  and  C_3
REMARK    3  A    between atoms: C_3  and  C_5
REMARK    4  A    between atoms: C_3  and  C_11
REMARK    5  A    between atoms: C_15  and  C_24
REMARK    6  A    between atoms: N_26  and  C_27
REMARK    7  A    between atoms: C_27  and  C_29
REMARK    8  A    between atoms: C_27  and  C_30
REMARK    9  A    between atoms: C_30  and  C_31
REMARK   10  A    between atoms: C_30  and  C_32
REMARK   11  A    between atoms: C_30  and  C_33
REMARK                            x       y       z     vdW  Elec       q    Type
REMARK                         _______ _______ _______ _____ _____    ______ ____
ROOT
ATOM      1  C   UNL     1       0.815  -1.724   1.004  0.00  0.00    +0.223 C 
ATOM      2  O   UNL     1       0.263  -2.328   1.899  0.00  0.00    -0.275 OA
ATOM      3  N   UNL     1       1.483  -2.399   0.047  0.00  0.00    -0.300 N 
ATOM      4  C   UNL     1       2.220  -1.842  -1.112  0.00  0.00    +0.121 C 
ATOM      5  C   UNL     1       3.483  -2.723  -1.232  0.00  0.00    +0.100 C 
ATOM      6  C   UNL     1       3.101  -4.051  -0.557  0.00  0.00    -0.004 C 
ATOM      7  C   UNL     1       1.653  -3.866  -0.079  0.00  0.00    +0.115 C 
ATOM      8  C   UNL     1       4.013  -4.319   0.636  0.00  0.00    -0.010 C 
ATOM      9  C   UNL     1       3.651  -5.671   1.256  0.00  0.00    -0.082 C 
ATOM     10  N   UNL     1       3.804  -6.729   0.251  0.00  0.00    +0.379 N 
ATOM     11  C   UNL     1       2.856  -6.515  -0.850  0.00  0.00    -0.082 C 
ATOM     12  C   UNL     1       3.185  -5.198  -1.559  0.00  0.00    -0.010 C 
ATOM     13  H   UNL     1       4.746  -6.715  -0.111  0.00  0.00    -0.086 HD
ATOM     14  H   UNL     1       3.624  -7.626   0.677  0.00  0.00    -0.086 HD
ENDROOT
BRANCH   5  15
ATOM     15  C   UNL     1       4.641  -2.081  -0.514  0.00  0.00    +0.218 C 
ATOM     16  O   UNL     1       4.441  -1.383   0.457  0.00  0.00    -0.275 OA
ATOM     17  N   UNL     1       5.900  -2.283  -0.951  0.00  0.00    -0.312 N 
ATOM     18  H   UNL     1       6.061  -2.841  -1.728  0.00  0.00    +0.149 HD
BRANCH  17  19
ATOM     19  C   UNL     1       7.027  -1.658  -0.253  0.00  0.00    +0.075 C 
ATOM     20  C   UNL     1       7.450  -2.540   0.924  0.00  0.00    +0.028 C 
BRANCH  19  21
ATOM     21  C   UNL     1       8.202  -1.499  -1.220  0.00  0.00    -0.020 C 
ATOM     22  C   UNL     1       7.778  -0.617  -2.396  0.00  0.00    +0.012 C 
ATOM     23  C   UNL     1       9.378  -0.847  -0.491  0.00  0.00    +0.012 C 
ATOM     24  C   UNL     1       8.623  -2.875  -1.740  0.00  0.00    +0.012 C 
ENDBRANCH  19  21
ENDBRANCH  17  19
ENDBRANCH   5  15
BRANCH   1  25
ATOM     25  C   UNL     1       0.754  -0.219   0.961  0.00  0.00    +0.105 C 
BRANCH  25  26
ATOM     26  C   UNL     1      -0.046   0.285   2.134  0.00  0.00    -0.036 A 
ATOM     27  C   UNL     1      -1.364  -0.102   2.289  0.00  0.00    +0.004 A 
ATOM     28  C   UNL     1      -2.098   0.360   3.365  0.00  0.00    +0.000 A 
ATOM     29  C   UNL     1      -1.514   1.210   4.286  0.00  0.00    +0.000 A 
ATOM     30  C   UNL     1      -0.197   1.597   4.131  0.00  0.00    +0.000 A 
ATOM     31  C   UNL     1       0.539   1.131   3.057  0.00  0.00    +0.004 A 
ENDBRANCH  25  26
BRANCH  25  33
ATOM     32  C   UNL     1       0.137   1.753  -0.444  0.00  0.00    +0.005 C 
ATOM     33  C   UNL     1       0.087   0.228  -0.342  0.00  0.00    +0.014 C 
ENDBRANCH  25  33
ENDBRANCH   1  25
TORSDOF 6
