REMARK  Name = ZINC12654432
REMARK  11 active torsions:
REMARK  status: ('A' for Active; 'I' for Inactive)
REMARK    1  A    between atoms: C_1  and  C_2
REMARK    2  A    between atoms: C_2  and  O_3
REMARK    3  A    between atoms: O_3  and  C_4
REMARK    4  A    between atoms: C_4  and  C_6
REMARK    5  A    between atoms: C_6  and  C_7
REMARK    6  A    between atoms: C_7  and  C_8
REMARK    7  A    between atoms: C_8  and  C_10
REMARK    8  A    between atoms: C_8  and  C_11
REMARK    9  A    between atoms: C_17  and  C_35
REMARK   10  A    between atoms: C_28  and  O_34
REMARK   11  A    between atoms: C_32  and  C_33
REMARK                            x       y       z     vdW  Elec       q    Type
REMARK                         _______ _______ _______ _____ _____    ______ ____
ROOT
ATOM      1  C   UNL     1       9.258   4.108   1.608  0.00  0.00    -0.002 C 
ATOM      2  C   UNL     1       9.973   3.264   2.696  0.00  0.00    +0.004 C 
ATOM      3  C   UNL     1       8.855   2.596   3.537  0.00  0.00    +0.004 C 
ATOM      4  C   UNL     1       7.564   2.880   2.749  0.00  0.00    -0.001 C 
ATOM      5  C   UNL     1       7.840   4.285   2.171  0.00  0.00    -0.026 C 
ATOM      6  C   UNL     1       6.768   4.679   1.186  0.00  0.00    +0.007 C 
ATOM      7  C   UNL     1       5.534   3.777   1.403  0.00  0.00    +0.005 C 
ATOM      8  C   UNL     1       5.248   3.695   2.897  0.00  0.00    +0.002 C 
ATOM      9  C   UNL     1       6.306   2.884   3.614  0.00  0.00    -0.003 C 
ATOM     10  C   UNL     1       5.923   1.436   3.885  0.00  0.00    +0.008 C 
ATOM     11  C   UNL     1       4.546   1.312   4.524  0.00  0.00    +0.031 C 
ATOM     12  C   UNL     1       3.552   1.990   3.598  0.00  0.00    -0.065 C 
ATOM     13  C   UNL     1       2.529   1.307   3.174  0.00  0.00    +0.004 C 
ATOM     14  C   UNL     1       1.467   1.885   2.282  0.00  0.00    +0.137 C 
ATOM     15  C   UNL     1       1.430   3.406   2.456  0.00  0.00    +0.036 C 
ATOM     16  C   UNL     1       2.837   3.953   2.209  0.00  0.00    +0.014 C 
ATOM     17  C   UNL     1       3.812   3.419   3.244  0.00  0.00    -0.008 C 
ATOM     18  C   UNL     1       3.539   4.227   4.524  0.00  0.00    +0.016 C 
ATOM     19  C   UNL     1       7.918   5.328   3.296  0.00  0.00    +0.012 C 
ENDROOT
BRANCH   1  20
ATOM     20  C   UNL     1       9.259   3.346   0.286  0.00  0.00    -0.010 C 
ATOM     21  C   UNL     1      10.675   3.330  -0.292  0.00  0.00    +0.008 C 
BRANCH  20  22
ATOM     22  C   UNL     1       8.790   1.909   0.526  0.00  0.00    +0.014 C 
BRANCH  22  23
ATOM     23  C   UNL     1       9.228   1.027  -0.644  0.00  0.00    +0.121 C 
BRANCH  23  24
ATOM     24  C   UNL     1       8.767  -0.388  -0.408  0.00  0.00    +0.307 C 
ATOM     25  O   UNL     1       8.150  -0.662   0.594  0.00  0.00    -0.251 OA
BRANCH  24  26
ATOM     26  O   UNL     1       9.040  -1.343  -1.310  0.00  0.00    -0.465 OA
BRANCH  26  28
ATOM     27  C   UNL     1       8.969  -3.627  -2.151  0.00  0.00    +0.048 C 
ATOM     28  C   UNL     1       8.565  -2.683  -1.017  0.00  0.00    +0.229 C 
ENDBRANCH  26  28
ENDBRANCH  24  26
ENDBRANCH  23  24
ENDBRANCH  22  23
ENDBRANCH  20  22
ENDBRANCH   1  20
BRANCH  14  29
ATOM     29  O   UNL     1       0.197   1.334   2.635  0.00  0.00    -0.388 OA
ATOM     30  H   UNL     1       0.147   0.372   2.549  0.00  0.00    +0.210 HD
ENDBRANCH  14  29
TORSDOF 7
