REMARK  Name = ZINC12534261
REMARK  7 active torsions:
REMARK  status: ('A' for Active; 'I' for Inactive)
REMARK    1  A    between atoms: C_4  and  N_7
REMARK    2  A    between atoms: C_8  and  C_29
REMARK    3  A    between atoms: C_11  and  S_12
REMARK    4  A    between atoms: S_12  and  C_13
REMARK    5  A    between atoms: C_13  and  C_14
REMARK    6  A    between atoms: N_16  and  C_17
REMARK    7  A    between atoms: C_20  and  N_23
REMARK                            x       y       z     vdW  Elec       q    Type
REMARK                         _______ _______ _______ _____ _____    ______ ____
ROOT
ATOM      1  N   UNL     1       3.635  -0.642  -0.046  0.00  0.00    -0.270 N 
ATOM      2  C   UNL     1       4.122  -1.460  -1.042  0.00  0.00    +0.171 A 
ATOM      3  N   UNL     1       5.285  -1.912  -0.634  0.00  0.00    -0.128 NA
ATOM      4  N   UNL     1       5.557  -1.442   0.530  0.00  0.00    -0.122 NA
ATOM      5  C   UNL     1       4.589  -0.655   0.938  0.00  0.00    +0.197 A 
ENDROOT
BRANCH   2   6
ATOM      6  C   UNL     1       3.460  -1.770  -2.325  0.00  0.00    +0.045 A 
ATOM      7  C   UNL     1       2.260  -1.300  -2.753  0.00  0.00    +0.095 A 
ATOM      8  N   UNL     1       1.980  -1.808  -3.989  0.00  0.00    -0.360 N 
ATOM      9  H   UNL     1       1.179  -1.616  -4.500  0.00  0.00    +0.165 HD
ATOM     10  C   UNL     1       3.003  -2.633  -4.407  0.00  0.00    +0.047 A 
ATOM     11  C   UNL     1       3.976  -2.643  -3.393  0.00  0.00    +0.010 A 
ATOM     12  C   UNL     1       5.138  -3.397  -3.549  0.00  0.00    +0.011 A 
ATOM     13  C   UNL     1       5.327  -4.128  -4.701  0.00  0.00    +0.001 A 
ATOM     14  C   UNL     1       4.369  -4.115  -5.704  0.00  0.00    +0.002 A 
ATOM     15  C   UNL     1       3.211  -3.381  -5.561  0.00  0.00    +0.026 A 
ENDBRANCH   2   6
BRANCH   1  19
ATOM     16  C   UNL     1       0.028   1.447  -0.035  0.00  0.00    +0.000 A 
ATOM     17  C   UNL     1       1.226   2.138  -0.043  0.00  0.00    +0.002 A 
ATOM     18  C   UNL     1       2.422   1.449  -0.047  0.00  0.00    +0.026 A 
ATOM     19  C   UNL     1       2.422   0.061  -0.042  0.00  0.00    +0.051 A 
ATOM     20  C   UNL     1       1.218  -0.630  -0.034  0.00  0.00    +0.026 A 
ATOM     21  C   UNL     1       0.025   0.065  -0.031  0.00  0.00    +0.002 A 
ENDBRANCH   1  19
BRANCH   5  22
ATOM     22  S   UNL     1       4.525   0.218   2.467  0.00  0.00    -0.076 S 
BRANCH  22  23
ATOM     23  C   UNL     1       6.078  -0.228   3.292  0.00  0.00    +0.173 C 
BRANCH  23  24
ATOM     24  C   UNL     1       6.152   0.461   4.630  0.00  0.00    +0.227 C 
ATOM     25  O   UNL     1       5.246   1.182   4.992  0.00  0.00    -0.275 OA
ATOM     26  N   UNL     1       7.225   0.276   5.425  0.00  0.00    -0.285 N 
ATOM     27  H   UNL     1       7.919  -0.350   5.165  0.00  0.00    +0.155 HD
BRANCH  26  28
ATOM     28  C   UNL     1       7.337   0.988   6.626  0.00  0.00    +0.034 A 
ATOM     29  C   UNL     1       8.584   1.409   7.070  0.00  0.00    +0.025 A 
ATOM     30  C   UNL     1       8.695   2.110   8.254  0.00  0.00    +0.025 A 
ATOM     31  C   UNL     1       7.560   2.395   9.001  0.00  0.00    +0.036 A 
ATOM     32  C   UNL     1       6.313   1.974   8.558  0.00  0.00    +0.025 A 
ATOM     33  C   UNL     1       6.201   1.277   7.371  0.00  0.00    +0.025 A 
BRANCH  31  34
ATOM     34  N   UNL     1       7.673   3.106  10.203  0.00  0.00    -0.271 N 
ATOM     35  C   UNL     1       6.559   3.352  11.127  0.00  0.00    +0.114 C 
ATOM     36  C   UNL     1       7.216   3.764  12.463  0.00  0.00    +0.029 C 
ATOM     37  C   UNL     1       8.572   4.333  11.985  0.00  0.00    +0.098 C 
ATOM     38  C   UNL     1       8.815   3.646  10.660  0.00  0.00    +0.220 C 
ATOM     39  O   UNL     1       9.886   3.592  10.091  0.00  0.00    -0.275 OA
ENDBRANCH  31  34
ENDBRANCH  26  28
ENDBRANCH  23  24
ENDBRANCH  22  23
ENDBRANCH   5  22
TORSDOF 7
