REMARK  Name = ZINC38491514
REMARK  10 active torsions:
REMARK  status: ('A' for Active; 'I' for Inactive)
REMARK    1  A    between atoms: C_1  and  C_2
REMARK    2  A    between atoms: C_4  and  C_33
REMARK    3  A    between atoms: C_6  and  N_8
REMARK    4  A    between atoms: C_9  and  C_11
REMARK    5  A    between atoms: C_12  and  C_23
REMARK    6  A    between atoms: N_13  and  C_16
REMARK    7  A    between atoms: C_23  and  S_24
REMARK    8  A    between atoms: S_24  and  C_25
REMARK    9  A    between atoms: C_27  and  C_32
REMARK   10  A    between atoms: C_29  and  C_31
REMARK                            x       y       z     vdW  Elec       q    Type
REMARK                         _______ _______ _______ _____ _____    ______ ____
ROOT
ATOM      1  C   UNL     1       0.276  -2.884   4.825  0.00  0.00    +0.172 A 
ATOM      2  C   UNL     1       0.378  -2.335   6.073  0.00  0.00    +0.087 A 
ATOM      3  N   UNL     1       0.474  -3.362   6.944  0.00  0.00    -0.215 N 
ATOM      4  N   UNL     1       0.428  -4.541   6.187  0.00  0.00    -0.060 NA
ATOM      5  N   UNL     1       0.305  -4.222   4.946  0.00  0.00    -0.124 NA
ENDROOT
BRANCH   3   6
ATOM      6  C   UNL     1       0.598  -3.268   8.338  0.00  0.00    +0.068 A 
ATOM      7  C   UNL     1       1.317  -2.223   8.903  0.00  0.00    +0.030 A 
ATOM      8  C   UNL     1       1.437  -2.131  10.276  0.00  0.00    +0.040 A 
ATOM      9  C   UNL     1       0.840  -3.080  11.089  0.00  0.00    +0.124 A 
ATOM     10  C   UNL     1       0.122  -4.123  10.527  0.00  0.00    +0.040 A 
ATOM     11  C   UNL     1      -0.004  -4.215   9.155  0.00  0.00    +0.030 A 
ATOM     12  F   UNL     1       0.958  -2.989  12.432  0.00  0.00    -0.205 F 
ENDBRANCH   3   6
BRANCH   1  14
ATOM     13  N   UNL     1       0.050  -2.797   2.392  0.00  0.00    -0.280 N 
ATOM     14  C   UNL     1       0.149  -2.134   3.562  0.00  0.00    +0.270 C 
ATOM     15  O   UNL     1       0.134  -0.918   3.575  0.00  0.00    -0.268 OA
ATOM     16  H   UNL     1      -0.014  -3.765   2.387  0.00  0.00    +0.155 HD
BRANCH  13  22
ATOM     17  C   UNL     1      -1.514  -2.364  -2.248  0.00  0.00    +0.044 C 
ATOM     18  C   UNL     1      -0.708  -1.856  -1.080  0.00  0.00    -0.048 A 
ATOM     19  C   UNL     1       0.024  -0.690  -1.201  0.00  0.00    +0.006 A 
ATOM     20  C   UNL     1       0.765  -0.221  -0.132  0.00  0.00    -0.048 A 
ATOM     21  C   UNL     1       0.776  -0.917   1.061  0.00  0.00    +0.026 A 
ATOM     22  C   UNL     1       0.041  -2.089   1.186  0.00  0.00    +0.034 A 
ATOM     23  C   UNL     1      -0.707  -2.554   0.112  0.00  0.00    +0.026 A 
ATOM     24  C   UNL     1       1.562   1.051  -0.268  0.00  0.00    +0.044 C 
ENDBRANCH  13  22
ENDBRANCH   1  14
BRANCH   2  25
ATOM     25  C   UNL     1       0.382  -0.866   6.410  0.00  0.00    +0.135 C 
BRANCH  25  26
ATOM     26  S   UNL     1       2.087  -0.247   6.393  0.00  0.00    -0.080 S 
BRANCH  26  27
ATOM     27  C   UNL     1       1.925   1.459   6.801  0.00  0.00    +0.189 A 
ATOM     28  N   UNL     1       0.719   1.957   7.035  0.00  0.00    -0.227 NA
ATOM     29  C   UNL     1       0.563   3.233   7.344  0.00  0.00    +0.043 A 
ATOM     30  C   UNL     1       1.679   4.052   7.423  0.00  0.00    +0.046 A 
ATOM     31  C   UNL     1       2.926   3.499   7.172  0.00  0.00    +0.043 A 
ATOM     32  N   UNL     1       3.013   2.213   6.873  0.00  0.00    -0.227 NA
ATOM     33  C   UNL     1       4.167   4.351   7.246  0.00  0.00    +0.066 C 
ATOM     34  C   UNL     1      -0.811   3.792   7.608  0.00  0.00    +0.066 C 
ENDBRANCH  26  27
ENDBRANCH  25  26
ENDBRANCH   2  25
TORSDOF 6
