REMARK  Name = ZINC27233184
REMARK  10 active torsions:
REMARK  status: ('A' for Active; 'I' for Inactive)
REMARK    1  A    between atoms: C_1  and  C_2
REMARK    2  A    between atoms: C_2  and  C_3
REMARK    3  A    between atoms: C_8  and  N_9
REMARK    4  A    between atoms: C_10  and  C_12
REMARK    5  A    between atoms: C_12  and  S_13
REMARK    6  A    between atoms: S_13  and  C_14
REMARK    7  A    between atoms: C_14  and  C_15
REMARK    8  A    between atoms: C_22  and  N_35
REMARK    9  A    between atoms: C_23  and  C_33
REMARK   10  A    between atoms: C_24  and  C_26
REMARK                            x       y       z     vdW  Elec       q    Type
REMARK                         _______ _______ _______ _____ _____    ______ ____
ROOT
ATOM      1  C   UNL     1      -2.012   4.549   0.665  0.00  0.00    +0.080 A 
ATOM      2  C   UNL     1      -1.103   3.554   0.333  0.00  0.00    +0.050 A 
ATOM      3  C   UNL     1       0.145   4.112   0.305  0.00  0.00    +0.223 A 
ATOM      4  N   UNL     1       0.014   5.413   0.609  0.00  0.00    -0.246 N 
ATOM      5  H   UNL     1       0.902   6.061   0.644  0.00  0.00    +0.192 HD
ATOM      6  N   UNL     1      -1.348   5.668   0.832  0.00  0.00    -0.175 NA
ATOM      7  O   UNL     1       1.260   3.397   0.013  0.00  0.00    -0.423 OA
ATOM      8  C   UNL     1       1.158   2.053   0.014  0.00  0.00    +0.200 C 
ATOM      9  C   UNL     1      -0.018   1.387   0.027  0.00  0.00    +0.098 C 
ATOM     10  C   UNL     1      -1.349   2.097   0.031  0.00  0.00    +0.101 C 
ENDROOT
BRANCH  10  11
ATOM     11  C   UNL     1      -2.005   1.956  -1.319  0.00  0.00    -0.034 A 
ATOM     12  C   UNL     1      -1.376   2.449  -2.447  0.00  0.00    +0.006 A 
ATOM     13  C   UNL     1      -1.974   2.315  -3.686  0.00  0.00    +0.020 A 
ATOM     14  C   UNL     1      -3.207   1.698  -3.795  0.00  0.00    +0.041 A 
ATOM     15  C   UNL     1      -3.838   1.209  -2.665  0.00  0.00    +0.020 A 
ATOM     16  C   UNL     1      -3.237   1.339  -1.427  0.00  0.00    +0.006 A 
ATOM     17 CL   UNL     1      -3.963   1.536  -5.350  0.00  0.00    -0.084 Cl
ENDBRANCH  10  11
BRANCH   8  18
ATOM     18  N   UNL     1       2.317   1.317   0.001  0.00  0.00    -0.328 N 
ATOM     19  H   UNL     1       2.271   0.218   0.001  0.00  0.00    +0.145 HD
ATOM     20  H   UNL     1       3.292   1.826  -0.010  0.00  0.00    +0.145 HD
ENDBRANCH   8  18
BRANCH   9  21
ATOM     21  C   UNL     1       0.000  -0.045   0.030  0.00  0.00    +0.101 C 
ATOM     22  N   UNL     1       0.014  -1.181   0.033  0.00  0.00    -0.191 NA
ENDBRANCH   9  21
BRANCH   1  23
ATOM     23  C   UNL     1      -3.502   4.375   0.808  0.00  0.00    +0.127 C 
BRANCH  23  24
ATOM     24  S   UNL     1      -3.897   3.937   2.524  0.00  0.00    -0.145 S 
BRANCH  24  25
ATOM     25  C   UNL     1      -5.703   3.765   2.528  0.00  0.00    +0.165 C 
BRANCH  25  27
ATOM     26  N   UNL     1      -7.482   3.217   4.156  0.00  0.00    -0.285 N 
ATOM     27  C   UNL     1      -6.169   3.398   3.913  0.00  0.00    +0.227 C 
ATOM     28  O   UNL     1      -5.363   3.266   4.809  0.00  0.00    -0.275 OA
ATOM     29  H   UNL     1      -8.221   3.425   3.369  0.00  0.00    +0.155 HD
BRANCH  26  35
ATOM     30  C   UNL     1      -9.191   3.046   5.855  0.00  0.00    -0.026 A 
ATOM     31  C   UNL     1      -9.606   2.598   7.094  0.00  0.00    +0.005 A 
ATOM     32  C   UNL     1      -8.743   1.869   7.891  0.00  0.00    +0.000 A 
ATOM     33  C   UNL     1      -7.463   1.586   7.452  0.00  0.00    +0.002 A 
ATOM     34  C   UNL     1      -7.043   2.027   6.212  0.00  0.00    +0.023 A 
ATOM     35  C   UNL     1      -7.906   2.764   5.411  0.00  0.00    +0.037 A 
BRANCH  30  37
ATOM     36  C   UNL     1     -10.835   2.900   4.005  0.00  0.00    +0.009 C 
ATOM     37  C   UNL     1     -10.132   3.840   4.986  0.00  0.00    +0.033 C 
ENDBRANCH  30  37
ENDBRANCH  26  35
ENDBRANCH  25  27
ENDBRANCH  24  25
ENDBRANCH  23  24
ENDBRANCH   1  23
TORSDOF 9
