REMARK  Name = ZINC17026325
REMARK  11 active torsions:
REMARK  status: ('A' for Active; 'I' for Inactive)
REMARK    1  A    between atoms: C_1  and  C_2
REMARK    2  A    between atoms: C_5  and  C_37
REMARK    3  A    between atoms: C_6  and  N_8
REMARK    4  A    between atoms: C_9  and  C_11
REMARK    5  A    between atoms: C_11  and  S_12
REMARK    6  A    between atoms: S_12  and  C_13
REMARK    7  A    between atoms: C_16  and  C_26
REMARK    8  A    between atoms: N_17  and  C_18
REMARK    9  A    between atoms: C_21  and  O_24
REMARK   10  A    between atoms: O_24  and  C_25
REMARK   11  A    between atoms: C_26  and  C_27
REMARK                            x       y       z     vdW  Elec       q    Type
REMARK                         _______ _______ _______ _____ _____    ______ ____
ROOT
ATOM      1  C   UNL     1       0.158   0.934   2.735  0.00  0.00    +0.197 A 
ATOM      2  N   UNL     1       1.220   0.190   2.533  0.00  0.00    -0.122 NA
ATOM      3  N   UNL     1       1.728  -0.163   3.659  0.00  0.00    -0.133 NA
ATOM      4  C   UNL     1       1.023   0.322   4.641  0.00  0.00    +0.144 A 
ATOM      5  N   UNL     1      -0.005   1.040   4.089  0.00  0.00    -0.274 N 
ENDROOT
BRANCH   5   6
ATOM      6  C   UNL     1      -1.014   1.739   4.771  0.00  0.00    +0.050 A 
ATOM      7  C   UNL     1      -0.688   2.833   5.561  0.00  0.00    +0.030 A 
ATOM      8  C   UNL     1      -1.681   3.523   6.227  0.00  0.00    +0.047 A 
ATOM      9  C   UNL     1      -3.003   3.117   6.115  0.00  0.00    +0.120 A 
ATOM     10  C   UNL     1      -3.328   2.020   5.330  0.00  0.00    +0.047 A 
ATOM     11  C   UNL     1      -2.336   1.333   4.659  0.00  0.00    +0.030 A 
BRANCH   9  12
ATOM     12  O   UNL     1      -3.980   3.794   6.775  0.00  0.00    -0.495 OA
ATOM     13  C   UNL     1      -3.574   4.913   7.565  0.00  0.00    +0.277 C 
ENDBRANCH   9  12
ENDBRANCH   5   6
BRANCH   1  14
ATOM     14  S   UNL     1      -0.869   1.655   1.497  0.00  0.00    -0.076 S 
BRANCH  14  15
ATOM     15  C   UNL     1      -0.021   1.073   0.008  0.00  0.00    +0.173 C 
BRANCH  15  17
ATOM     16  N   UNL     1      -0.288   1.272  -2.443  0.00  0.00    -0.285 N 
ATOM     17  C   UNL     1      -0.743   1.582  -1.213  0.00  0.00    +0.227 C 
ATOM     18  O   UNL     1      -1.734   2.271  -1.088  0.00  0.00    -0.275 OA
ATOM     19  H   UNL     1       0.547   0.790  -2.544  0.00  0.00    +0.155 HD
BRANCH  16  25
ATOM     20  C   UNL     1      -4.597   2.456  -4.493  0.00  0.00    +0.044 C 
ATOM     21  C   UNL     1      -3.111   2.227  -4.597  0.00  0.00    -0.049 A 
ATOM     22  C   UNL     1      -2.471   2.386  -5.812  0.00  0.00    +0.004 A 
ATOM     23  C   UNL     1      -1.108   2.176  -5.912  0.00  0.00    +0.005 A 
ATOM     24  C   UNL     1      -0.382   1.807  -4.796  0.00  0.00    -0.029 A 
ATOM     25  C   UNL     1      -1.022   1.646  -3.575  0.00  0.00    +0.037 A 
ATOM     26  C   UNL     1      -2.392   1.853  -3.479  0.00  0.00    +0.027 A 
ATOM     27  C   UNL     1       1.104   1.579  -4.906  0.00  0.00    +0.045 C 
ENDBRANCH  16  25
ENDBRANCH  15  17
ENDBRANCH  14  15
ENDBRANCH   1  14
BRANCH   4  28
ATOM     28  C   UNL     1       1.288   0.130   6.112  0.00  0.00    +0.130 C 
BRANCH  28  29
ATOM     29  C   UNL     1       0.565  -1.100   6.597  0.00  0.00    +0.033 A 
ATOM     30  C   UNL     1       1.208  -2.286   6.655  0.00  0.00    +0.091 A 
ATOM     31  C   UNL     1       0.508  -3.427   7.114  0.00  0.00    +0.254 A 
ATOM     32  O   UNL     1       1.067  -4.508   7.176  0.00  0.00    -0.268 OA
ATOM     33  N   UNL     1      -0.784  -3.308   7.482  0.00  0.00    -0.275 N 
ATOM     34  H   UNL     1      -1.286  -4.109   7.807  0.00  0.00    +0.173 HD
ATOM     35  C   UNL     1      -1.401  -2.113   7.413  0.00  0.00    +0.327 A 
ATOM     36  O   UNL     1      -2.566  -2.020   7.748  0.00  0.00    -0.247 OA
ATOM     37  N   UNL     1      -0.744  -1.020   6.984  0.00  0.00    -0.311 N 
ATOM     38  H   UNL     1      -1.218  -0.140   6.949  0.00  0.00    +0.170 HD
ENDBRANCH  28  29
ENDBRANCH   4  28
TORSDOF 8
