REMARK  Name = ZINC40156418
REMARK  6 active torsions:
REMARK  status: ('A' for Active; 'I' for Inactive)
REMARK    1  A    between atoms: C_1  and  C_2
REMARK    2  A    between atoms: C_2  and  C_3
REMARK    3  A    between atoms: C_2  and  C_4
REMARK    4  A    between atoms: C_2  and  C_5
REMARK    5  A    between atoms: C_6  and  C_11
REMARK    6  A    between atoms: N_22  and  C_23
REMARK                            x       y       z     vdW  Elec       q    Type
REMARK                         _______ _______ _______ _____ _____    ______ ____
ROOT
ATOM      1  C   UNL     1       0.850  -3.029  -1.450  0.00  0.00    +0.196 C 
ATOM      2  N   UNL     1       1.034  -3.156   0.000  0.00  0.00    -0.321 N 
ATOM      3  C   UNL     1       2.325  -3.257   0.505  0.00  0.00    +0.041 A 
ATOM      4  C   UNL     1       2.648  -2.806   1.774  0.00  0.00    +0.024 A 
ATOM      5  C   UNL     1       3.944  -2.937   2.237  0.00  0.00    +0.002 A 
ATOM      6  C   UNL     1       4.920  -3.517   1.442  0.00  0.00    +0.001 A 
ATOM      7  C   UNL     1       4.616  -3.967   0.174  0.00  0.00    +0.015 A 
ATOM      8  C   UNL     1       3.315  -3.836  -0.307  0.00  0.00    +0.058 A 
ATOM      9  C   UNL     1       2.945  -4.279  -1.663  0.00  0.00    +0.250 C 
ATOM     10  O   UNL     1       3.727  -4.929  -2.330  0.00  0.00    -0.270 OA
ATOM     11  N   UNL     1       1.736  -3.956  -2.154  0.00  0.00    -0.272 N 
ATOM     12  H   UNL     1       0.268  -3.170   0.596  0.00  0.00    +0.148 HD
ENDROOT
BRANCH   1  14
ATOM     13  C   UNL     1       0.280  -0.537  -1.866  0.00  0.00    +0.075 A 
ATOM     14  C   UNL     1       1.168  -1.617  -1.871  0.00  0.00    +0.032 A 
ATOM     15  C   UNL     1       2.364  -1.171  -2.320  0.00  0.00    +0.112 A 
ATOM     16  N   UNL     1       2.237   0.145  -2.590  0.00  0.00    -0.284 N 
ATOM     17  H   UNL     1       2.935   0.728  -2.927  0.00  0.00    +0.188 HD
ATOM     18  N   UNL     1       0.918   0.519  -2.302  0.00  0.00    -0.178 NA
BRANCH  13  20
ATOM     19  C   UNL     1      -1.751   0.830  -1.472  0.00  0.00    +0.017 C 
ATOM     20  C   UNL     1      -1.164  -0.583  -1.439  0.00  0.00    +0.007 C 
ATOM     21  C   UNL     1      -1.259  -1.141  -0.018  0.00  0.00    +0.017 C 
ATOM     22  C   UNL     1      -1.950  -1.483  -2.394  0.00  0.00    +0.017 C 
ENDBRANCH  13  20
ENDBRANCH   1  14
BRANCH  11  23
ATOM     23  C   UNL     1       1.300  -4.545  -3.422  0.00  0.00    +0.079 C 
ATOM     24  C   UNL     1       0.085  -3.921  -4.111  0.00  0.00    +0.024 C 
ATOM     25  C   UNL     1      -0.038  -5.287  -3.434  0.00  0.00    +0.024 C 
ENDBRANCH  11  23
TORSDOF 3
