REMARK  Name = ZINC00523455
REMARK  4 active torsions:
REMARK  status: ('A' for Active; 'I' for Inactive)
REMARK    1  A    between atoms: C_6  and  C_7
REMARK    2  A    between atoms: C_10  and  C_16
REMARK    3  A    between atoms: C_11  and  N_15
REMARK    4  A    between atoms: C_12  and  C_13
REMARK                            x       y       z     vdW  Elec       q    Type
REMARK                         _______ _______ _______ _____ _____    ______ ____
ROOT
ATOM      1  C   UNL     1      -4.207   0.658  -0.009  0.00  0.00    +0.005 A 
ATOM      2  C   UNL     1      -2.834   0.936   0.002  0.00  0.00    -0.034 A 
ATOM      3  C   UNL     1      -2.209   1.258   1.180  0.00  0.00    -0.024 A 
ATOM      4  C   UNL     1      -2.944   1.300   2.377  0.00  0.00    +0.077 A 
ATOM      5  C   UNL     1      -4.316   1.023   2.383  0.00  0.00    +0.061 A 
ATOM      6  C   UNL     1      -4.956   0.699   1.178  0.00  0.00    +0.082 A 
ATOM      7  C   UNL     1      -0.739   1.584   1.256  0.00  0.00    +0.037 C 
ATOM      8  C   UNL     1      -0.013   1.086   0.008  0.00  0.00    +0.005 C 
ATOM      9  C   UNL     1      -0.765   1.599  -1.225  0.00  0.00    +0.005 C 
ATOM     10  C   UNL     1      -2.101   0.865  -1.313  0.00  0.00    +0.036 C 
ENDROOT
BRANCH   1  16
ATOM     11  C   UNL     1      -4.966   1.265  -2.304  0.00  0.00    +0.011 A 
ATOM     12  C   UNL     1      -5.585   0.940  -3.493  0.00  0.00    +0.039 A 
ATOM     13  C   UNL     1      -6.126  -0.323  -3.672  0.00  0.00    +0.123 A 
ATOM     14  C   UNL     1      -6.043  -1.268  -2.662  0.00  0.00    +0.039 A 
ATOM     15  C   UNL     1      -5.422  -0.955  -1.471  0.00  0.00    +0.011 A 
ATOM     16  C   UNL     1      -4.876   0.316  -1.285  0.00  0.00    -0.016 A 
ATOM     17  F   UNL     1      -6.736  -0.635  -4.837  0.00  0.00    -0.205 F 
ENDBRANCH   1  16
BRANCH   5  18
ATOM     18  N   UNL     1      -5.034   1.067   3.566  0.00  0.00    -0.356 N 
ATOM     19  H   UNL     1      -4.586   1.290   4.397  0.00  0.00    +0.142 HD
ATOM     20  H   UNL     1      -5.984   0.874   3.564  0.00  0.00    +0.142 HD
ENDBRANCH   5  18
BRANCH   6  21
ATOM     21  C   UNL     1      -6.360   0.415   1.159  0.00  0.00    +0.102 C 
ATOM     22  N   UNL     1      -7.473   0.189   1.143  0.00  0.00    -0.191 NA
ENDBRANCH   6  21
BRANCH   4  23
ATOM     23  C   UNL     1      -2.282   1.631   3.604  0.00  0.00    +0.101 C 
ATOM     24  N   UNL     1      -1.757   1.893   4.577  0.00  0.00    -0.191 NA
ENDBRANCH   4  23
TORSDOF 4
