REMARK  Name = ZINC15787944
REMARK  6 active torsions:
REMARK  status: ('A' for Active; 'I' for Inactive)
REMARK    1  A    between atoms: C_5  and  N_7
REMARK    2  A    between atoms: N_7  and  S_8
REMARK    3  A    between atoms: S_8  and  C_11
REMARK    4  A    between atoms: C_14  and  C_17
REMARK    5  A    between atoms: C_18  and  C_19
REMARK    6  A    between atoms: C_27  and  C_29
REMARK                            x       y       z     vdW  Elec       q    Type
REMARK                         _______ _______ _______ _____ _____    ______ ____
ROOT
ATOM      1  C   UNL     1      -6.190   3.543   0.399  0.00  0.00    +0.109 A 
ATOM      2  C   UNL     1      -6.005   2.186   0.599  0.00  0.00    +0.029 A 
ATOM      3  C   UNL     1      -4.732   1.667   0.700  0.00  0.00    +0.010 A 
ATOM      4  C   UNL     1      -3.625   2.516   0.602  0.00  0.00    -0.025 A 
ATOM      5  C   UNL     1      -3.820   3.887   0.406  0.00  0.00    +0.010 A 
ATOM      6  C   UNL     1      -5.099   4.390   0.300  0.00  0.00    +0.029 A 
ENDROOT
BRANCH   1   7
ATOM      7  S   UNL     1      -7.821   4.197   0.270  0.00  0.00    +0.072 S 
ATOM      8  O   UNL     1      -7.715   5.411  -0.459  0.00  0.00    -0.150 OA
ATOM      9  O   UNL     1      -8.655   3.126  -0.149  0.00  0.00    -0.150 OA
BRANCH   7  10
ATOM     10  N   UNL     1      -8.307   4.604   1.800  0.00  0.00    -0.215 N 
ATOM     11  H   UNL     1      -9.092   4.185   2.187  0.00  0.00    +0.174 HD
BRANCH  10  16
ATOM     12  C   UNL     1      -6.300   7.573   2.617  0.00  0.00    +0.002 A 
ATOM     13  C   UNL     1      -6.160   7.426   3.985  0.00  0.00    +0.002 A 
ATOM     14  C   UNL     1      -6.732   6.344   4.630  0.00  0.00    +0.022 A 
ATOM     15  C   UNL     1      -7.445   5.406   3.908  0.00  0.00    +0.063 A 
ATOM     16  C   UNL     1      -7.587   5.551   2.533  0.00  0.00    +0.066 A 
ATOM     17  C   UNL     1      -7.007   6.636   1.889  0.00  0.00    +0.026 A 
ATOM     18 CL   UNL     1      -8.161   4.048   4.718  0.00  0.00    -0.082 Cl
ENDBRANCH  10  16
ENDBRANCH   7  10
ENDBRANCH   1   7
BRANCH   4  19
ATOM     19  C   UNL     1      -2.262   1.970   0.709  0.00  0.00    +0.013 C 
ATOM     20  C   UNL     1      -1.198   2.792   0.613  0.00  0.00    +0.068 C 
BRANCH  20  21
ATOM     21  C   UNL     1       0.158   2.248   0.720  0.00  0.00    +0.240 C 
ATOM     22  O   UNL     1       0.327   1.046   0.800  0.00  0.00    -0.271 OA
ATOM     23  N   UNL     1       1.219   3.080   0.724  0.00  0.00    -0.295 N 
ATOM     24  C   UNL     1       1.039   4.523   0.513  0.00  0.00    +0.127 C 
ATOM     25  C   UNL     1       1.672   5.271   1.698  0.00  0.00    +0.127 C 
ATOM     26  N   UNL     1       3.030   4.750   1.909  0.00  0.00    -0.298 N 
ATOM     27  C   UNL     1       3.211   3.306   2.115  0.00  0.00    +0.127 C 
ATOM     28  C   UNL     1       2.577   2.559   0.935  0.00  0.00    +0.127 C 
ATOM     29  C   UNL     1       4.090   5.581   1.913  0.00  0.00    +0.219 C 
ATOM     30  O   UNL     1       5.207   5.140   2.088  0.00  0.00    -0.275 OA
BRANCH  29  31
ATOM     31  C   UNL     1       3.890   7.060   1.700  0.00  0.00    +0.075 C 
ATOM     32  C   UNL     1       4.412   7.663   0.395  0.00  0.00    +0.013 C 
ATOM     33  C   UNL     1       5.133   7.951   1.714  0.00  0.00    +0.013 C 
ENDBRANCH  29  31
ENDBRANCH  20  21
ENDBRANCH   4  19
TORSDOF 6
