REMARK  Name = ZINC12922254
REMARK  8 active torsions:
REMARK  status: ('A' for Active; 'I' for Inactive)
REMARK    1  A    between atoms: C_1  and  C_2
REMARK    2  A    between atoms: C_6  and  N_9
REMARK    3  A    between atoms: C_7  and  C_8
REMARK    4  A    between atoms: C_10  and  C_12
REMARK    5  A    between atoms: C_12  and  N_13
REMARK    6  A    between atoms: C_14  and  C_16
REMARK    7  A    between atoms: C_16  and  N_17
REMARK    8  A    between atoms: C_18  and  C_23
REMARK                            x       y       z     vdW  Elec       q    Type
REMARK                         _______ _______ _______ _____ _____    ______ ____
ROOT
ATOM      1  N   UNL     1      -0.216  -6.701   3.010  0.00  0.00    -0.305 N 
ATOM      2  C   UNL     1      -0.314  -7.456   4.123  0.00  0.00    +0.233 C 
ATOM      3  O   UNL     1      -0.364  -6.926   5.213  0.00  0.00    -0.274 OA
ATOM      4  H   UNL     1      -0.176  -7.125   2.139  0.00  0.00    +0.149 HD
ENDROOT
BRANCH   1   5
ATOM      5  C   UNL     1      -0.170  -5.240   3.118  0.00  0.00    +0.200 C 
BRANCH   5   7
ATOM      6  N   UNL     1      -0.002  -3.300   1.593  0.00  0.00    -0.284 N 
ATOM      7  C   UNL     1      -0.060  -4.639   1.741  0.00  0.00    +0.234 C 
ATOM      8  O   UNL     1      -0.024  -5.359   0.765  0.00  0.00    -0.274 OA
ATOM      9  H   UNL     1       0.046  -2.728   2.374  0.00  0.00    +0.155 HD
BRANCH   6  15
ATOM     10  C   UNL     1       1.129   0.437  -1.394  0.00  0.00    +0.044 C 
ATOM     11  C   UNL     1       0.530  -0.926  -1.164  0.00  0.00    -0.046 A 
ATOM     12  C   UNL     1      -0.029  -1.623  -2.220  0.00  0.00    +0.004 A 
ATOM     13  C   UNL     1      -0.579  -2.874  -2.014  0.00  0.00    +0.002 A 
ATOM     14  C   UNL     1      -0.572  -3.433  -0.750  0.00  0.00    +0.023 A 
ATOM     15  C   UNL     1      -0.011  -2.737   0.312  0.00  0.00    +0.037 A 
ATOM     16  C   UNL     1       0.546  -1.482   0.100  0.00  0.00    -0.026 A 
ATOM     17  C   UNL     1       1.160  -0.725   1.249  0.00  0.00    +0.046 C 
ENDBRANCH   6  15
ENDBRANCH   5   7
ENDBRANCH   1   5
BRANCH   2  18
ATOM     18  C   UNL     1      -0.361  -8.958   4.012  0.00  0.00    +0.221 C 
BRANCH  18  19
ATOM     19  N   UNL     1      -0.468  -9.543   5.351  0.00  0.00    -0.293 N 
ATOM     20  C   UNL     1       0.561  -9.823   6.220  0.00  0.00    +0.165 A 
ATOM     21  N   UNL     1       0.024 -10.336   7.302  0.00  0.00    -0.128 NA
ATOM     22  N   UNL     1      -1.254 -10.396   7.171  0.00  0.00    -0.121 NA
ATOM     23  C   UNL     1      -1.610  -9.919   5.999  0.00  0.00    +0.203 A 
ATOM     24  S   UNL     1      -3.254  -9.792   5.378  0.00  0.00    -0.009 SA
BRANCH  20  25
ATOM     25  C   UNL     1       2.002  -9.589   5.981  0.00  0.00    +0.019 A 
ATOM     26  C   UNL     1       2.412  -8.726   4.963  0.00  0.00    +0.013 A 
ATOM     27  C   UNL     1       3.757  -8.512   4.745  0.00  0.00    +0.021 A 
ATOM     28  C   UNL     1       4.699  -9.151   5.533  0.00  0.00    +0.041 A 
ATOM     29  C   UNL     1       4.298 -10.008   6.544  0.00  0.00    +0.021 A 
ATOM     30  C   UNL     1       2.956 -10.226   6.776  0.00  0.00    +0.013 A 
ATOM     31 CL   UNL     1       6.390  -8.877   5.252  0.00  0.00    -0.084 Cl
ENDBRANCH  20  25
ENDBRANCH  18  19
ENDBRANCH   2  18
TORSDOF 6
