REMARK  Name = ZINC36497293
REMARK  17 active torsions:
REMARK  status: ('A' for Active; 'I' for Inactive)
REMARK    1  A    between atoms: C_1  and  C_2
REMARK    2  A    between atoms: C_2  and  C_3
REMARK    3  A    between atoms: C_3  and  C_5
REMARK    4  A    between atoms: C_3  and  C_11
REMARK    5  A    between atoms: N_13  and  C_14
REMARK    6  A    between atoms: N_13  and  C_20
REMARK    7  A    between atoms: C_14  and  C_15
REMARK    8  A    between atoms: C_20  and  C_22
REMARK    9  A    between atoms: C_20  and  C_31
REMARK   10  A    between atoms: N_33  and  C_34
REMARK   11  A    between atoms: C_34  and  C_35
REMARK   12  A    between atoms: C_34  and  C_36
REMARK   13  A    between atoms: C_34  and  C_37
REMARK   14  A    between atoms: C_37  and  C_38
REMARK   15  A    between atoms: C_38  and  C_39
REMARK   16  A    between atoms: C_38  and  C_40
REMARK   17  A    between atoms: C_38  and  C_41
REMARK                            x       y       z     vdW  Elec       q    Type
REMARK                         _______ _______ _______ _____ _____    ______ ____
ROOT
ATOM      1  C   UNL     1      -0.511  -5.468  -0.723  0.00  0.00    +0.193 C 
ENDROOT
BRANCH   1   2
ATOM      2  C   UNL     1      -1.632  -5.747   0.244  0.00  0.00    -0.015 A 
ATOM      3  C   UNL     1      -2.260  -4.700   0.893  0.00  0.00    +0.010 A 
ATOM      4  C   UNL     1      -3.289  -4.952   1.780  0.00  0.00    +0.050 A 
ATOM      5  C   UNL     1      -3.695  -6.254   2.022  0.00  0.00    +0.166 A 
ATOM      6  C   UNL     1      -3.062  -7.309   1.368  0.00  0.00    +0.167 A 
ATOM      7  C   UNL     1      -2.035  -7.049   0.476  0.00  0.00    +0.055 A 
ATOM      8  O   UNL     1      -3.636  -8.479   1.772  0.00  0.00    -0.453 OA
ATOM      9  C   UNL     1      -4.349  -8.161   2.982  0.00  0.00    +0.466 C 
ATOM     10  O   UNL     1      -4.665  -6.764   2.835  0.00  0.00    -0.453 OA
ENDBRANCH   1   2
BRANCH   1  11
ATOM     11  C   UNL     1       0.484  -4.534  -0.083  0.00  0.00    +0.239 C 
ATOM     12  O   UNL     1       0.716  -3.456  -0.590  0.00  0.00    -0.273 OA
ATOM     13  N   UNL     1       1.115  -4.895   1.051  0.00  0.00    -0.308 N 
ATOM     14  H   UNL     1       0.929  -5.757   1.456  0.00  0.00    +0.149 HD
BRANCH  13  15
ATOM     15  C   UNL     1       2.081  -3.987   1.673  0.00  0.00    +0.030 C 
ATOM     16  C   UNL     1       3.306  -3.847   0.767  0.00  0.00    +0.031 C 
ATOM     17  C   UNL     1       1.435  -2.614   1.873  0.00  0.00    +0.031 C 
BRANCH  15  18
ATOM     18  C   UNL     1       2.511  -4.551   3.029  0.00  0.00    +0.031 C 
BRANCH  18  19
ATOM     19  C   UNL     1       1.327  -4.510   3.997  0.00  0.00    -0.036 C 
ATOM     20  C   UNL     1       0.043  -4.873   3.248  0.00  0.00    +0.010 C 
ATOM     21  C   UNL     1       1.559  -5.514   5.128  0.00  0.00    +0.010 C 
ATOM     22  C   UNL     1       1.196  -3.103   4.583  0.00  0.00    +0.010 C 
ENDBRANCH  18  19
ENDBRANCH  15  18
ENDBRANCH  13  15
ENDBRANCH   1  11
BRANCH   1  25
ATOM     23  C   UNL     1      -1.123  -5.556  -3.080  0.00  0.00    +0.224 C 
ATOM     24  O   UNL     1      -0.787  -6.721  -3.095  0.00  0.00    -0.275 OA
ATOM     25  N   UNL     1      -1.053  -4.849  -1.935  0.00  0.00    -0.278 N 
BRANCH  23  26
ATOM     26  C   UNL     1      -1.618  -4.899  -4.343  0.00  0.00    +0.105 C 
BRANCH  26  27
ATOM     27  C   UNL     1      -1.916  -5.955  -5.375  0.00  0.00    -0.036 A 
ATOM     28  C   UNL     1      -0.913  -6.803  -5.806  0.00  0.00    +0.004 A 
ATOM     29  C   UNL     1      -1.186  -7.772  -6.753  0.00  0.00    +0.000 A 
ATOM     30  C   UNL     1      -2.463  -7.893  -7.269  0.00  0.00    +0.000 A 
ATOM     31  C   UNL     1      -3.466  -7.046  -6.838  0.00  0.00    +0.000 A 
ATOM     32  C   UNL     1      -3.194  -6.080  -5.888  0.00  0.00    +0.004 A 
ENDBRANCH  26  27
BRANCH  26  34
ATOM     33  C   UNL     1      -1.101  -3.172  -6.073  0.00  0.00    +0.005 C 
ATOM     34  C   UNL     1      -0.544  -3.950  -4.879  0.00  0.00    +0.014 C 
ENDBRANCH  26  34
ENDBRANCH  23  26
BRANCH  25  35
ATOM     35  C   UNL     1      -1.520  -3.461  -1.902  0.00  0.00    +0.183 C 
BRANCH  35  36
ATOM     36  C   UNL     1      -3.005  -3.424  -2.156  0.00  0.00    +0.122 A 
ATOM     37  C   UNL     1      -3.966  -3.639  -1.240  0.00  0.00    +0.046 A 
ATOM     38  C   UNL     1      -5.205  -3.508  -1.908  0.00  0.00    +0.041 A 
ATOM     39  C   UNL     1      -4.928  -3.220  -3.192  0.00  0.00    +0.195 A 
ATOM     40  O   UNL     1      -3.593  -3.165  -3.336  0.00  0.00    -0.466 OA
ENDBRANCH  35  36
ENDBRANCH  25  35
ENDBRANCH   1  25
TORSDOF 11
