REMARK  Name = ZINC39916336
REMARK  7 active torsions:
REMARK  status: ('A' for Active; 'I' for Inactive)
REMARK    1  A    between atoms: C_1  and  C_2
REMARK    2  A    between atoms: C_2  and  C_3
REMARK    3  A    between atoms: C_23  and  N_27
REMARK    4  A    between atoms: C_24  and  C_25
REMARK    5  A    between atoms: C_31  and  C_36
REMARK    6  A    between atoms: C_31  and  C_37
REMARK    7  A    between atoms: C_33  and  C_35
REMARK                            x       y       z     vdW  Elec       q    Type
REMARK                         _______ _______ _______ _____ _____    ______ ____
ROOT
ATOM      1  C   UNL     1      -1.412  -0.526   0.013  0.00  0.00    -0.047 A 
ATOM      2  C   UNL     1      -2.028  -0.758   1.234  0.00  0.00    +0.009 A 
ATOM      3  C   UNL     1      -3.317  -1.232   1.289  0.00  0.00    -0.022 A 
ATOM      4  C   UNL     1      -3.957  -1.460   0.071  0.00  0.00    +0.045 A 
ATOM      5  C   UNL     1      -3.343  -1.232  -1.153  0.00  0.00    -0.004 A 
ATOM      6  C   UNL     1      -2.052  -0.751  -1.204  0.00  0.00    +0.010 A 
ATOM      7  C   UNL     1      -4.363  -1.607  -2.178  0.00  0.00    +0.131 C 
ATOM      8  C   UNL     1      -3.873  -2.772  -3.039  0.00  0.00    +0.166 C 
ATOM      9  C   UNL     1      -2.984  -2.202  -4.118  0.00  0.00    +0.130 C 
ATOM     10  C   UNL     1      -1.682  -2.644  -4.279  0.00  0.00    +0.035 A 
ATOM     11  C   UNL     1      -0.849  -2.134  -5.297  0.00  0.00    +0.013 A 
ATOM     12  C   UNL     1       0.421  -2.607  -5.424  0.00  0.00    +0.001 A 
ATOM     13  C   UNL     1       0.923  -3.583  -4.569  0.00  0.00    +0.002 A 
ATOM     14  C   UNL     1       0.169  -4.111  -3.562  0.00  0.00    +0.024 A 
ATOM     15  C   UNL     1      -1.146  -3.668  -3.374  0.00  0.00    +0.044 A 
ATOM     16  N   UNL     1      -1.912  -4.156  -2.390  0.00  0.00    -0.284 N 
ATOM     17  C   UNL     1      -3.133  -3.765  -2.203  0.00  0.00    +0.229 C 
ATOM     18  O   UNL     1      -3.725  -4.265  -1.264  0.00  0.00    -0.275 OA
ATOM     19  O   UNL     1      -3.498  -1.245  -4.908  0.00  0.00    -0.444 OA
ATOM     20  C   UNL     1      -4.279  -0.314  -4.318  0.00  0.00    +0.199 C 
ATOM     21  C   UNL     1      -4.722  -0.437  -3.047  0.00  0.00    +0.107 C 
ATOM     22  C   UNL     1      -5.576  -2.045  -1.373  0.00  0.00    +0.237 C 
ATOM     23  O   UNL     1      -6.635  -2.428  -1.823  0.00  0.00    -0.274 OA
ATOM     24  N   UNL     1      -5.259  -1.931  -0.074  0.00  0.00    -0.264 N 
ATOM     25  C   UNL     1      -6.078  -2.225   1.115  0.00  0.00    +0.037 C 
ATOM     26  C   UNL     1      -5.591  -1.342   2.270  0.00  0.00    +0.033 C 
ATOM     27  C   UNL     1      -4.094  -1.529   2.538  0.00  0.00    +0.020 C 
ATOM     28  C   UNL     1      -3.654  -0.576   3.650  0.00  0.00    +0.012 C 
ATOM     29  C   UNL     1      -7.548  -1.920   0.817  0.00  0.00    +0.032 C 
ATOM     30  C   UNL     1      -5.924  -3.700   1.494  0.00  0.00    +0.032 C 
ATOM     31  H   UNL     1      -1.534  -4.820  -1.793  0.00  0.00    +0.155 HD
ENDROOT
BRANCH  20  32
ATOM     32  N   UNL     1      -4.637   0.800  -5.037  0.00  0.00    -0.328 N 
ATOM     33  H   UNL     1      -4.329   0.907  -5.951  0.00  0.00    +0.145 HD
ATOM     34  H   UNL     1      -5.197   1.480  -4.631  0.00  0.00    +0.145 HD
ENDBRANCH  20  32
BRANCH   1  36
ATOM     35  C   UNL     1      -0.019   1.526   0.010  0.00  0.00    +0.009 C 
ATOM     36  C   UNL     1       0.002  -0.004   0.002  0.00  0.00    +0.032 C 
ENDBRANCH   1  36
BRANCH  21  37
ATOM     37  C   UNL     1      -5.567   0.587  -2.510  0.00  0.00    +0.101 C 
ATOM     38  N   UNL     1      -6.237   1.400  -2.083  0.00  0.00    -0.191 NA
ENDBRANCH  21  37
TORSDOF 3
