REMARK  Name = ZINC15652632
REMARK  9 active torsions:
REMARK  status: ('A' for Active; 'I' for Inactive)
REMARK    1  A    between atoms: C_1  and  C_2
REMARK    2  A    between atoms: C_2  and  C_3
REMARK    3  A    between atoms: C_3  and  C_4
REMARK    4  A    between atoms: C_4  and  C_6
REMARK    5  A    between atoms: C_4  and  N_7
REMARK    6  A    between atoms: C_8  and  C_10
REMARK    7  A    between atoms: C_12  and  S_22
REMARK    8  A    between atoms: C_15  and  N_16
REMARK    9  A    between atoms: S_22  and  N_25
REMARK                            x       y       z     vdW  Elec       q    Type
REMARK                         _______ _______ _______ _____ _____    ______ ____
ROOT
ATOM      1  C   UNL     1      -3.412  -1.165   1.191  0.00  0.00    +0.060 A 
ATOM      2  C   UNL     1      -4.046  -1.501  -0.008  0.00  0.00    +0.043 A 
ATOM      3  C   UNL     1      -5.339  -1.978   0.009  0.00  0.00    +0.106 A 
ATOM      4  C   UNL     1      -6.015  -2.127   1.210  0.00  0.00    +0.030 A 
ATOM      5  C   UNL     1      -5.402  -1.800   2.402  0.00  0.00    +0.026 A 
ATOM      6  C   UNL     1      -4.097  -1.323   2.406  0.00  0.00    +0.042 A 
ENDROOT
BRANCH   6   7
ATOM      7  N   UNL     1      -3.476  -0.998   3.605  0.00  0.00    -0.329 N 
ATOM      8  C   UNL     1      -3.306  -2.188   4.448  0.00  0.00    +0.105 C 
ATOM      9  C   UNL     1      -2.493  -1.822   5.691  0.00  0.00    +0.019 C 
ATOM     10  C   UNL     1      -3.223  -0.723   6.468  0.00  0.00    +0.003 C 
ATOM     11  C   UNL     1      -3.430   0.486   5.553  0.00  0.00    +0.019 C 
ATOM     12  C   UNL     1      -4.217   0.053   4.313  0.00  0.00    +0.105 C 
ENDBRANCH   6   7
BRANCH   1  14
ATOM     13  N   UNL     1      -1.372  -0.511   0.012  0.00  0.00    -0.309 N 
ATOM     14  C   UNL     1      -2.029  -0.655   1.181  0.00  0.00    +0.246 C 
ATOM     15  O   UNL     1      -1.480  -0.364   2.226  0.00  0.00    -0.270 OA
ATOM     16  H   UNL     1      -1.810  -0.743  -0.822  0.00  0.00    +0.149 HD
BRANCH  13  17
ATOM     17  C   UNL     1       0.002  -0.004   0.002  0.00  0.00    +0.070 C 
ATOM     18  C   UNL     1      -0.019   1.526   0.010  0.00  0.00    +0.028 C 
BRANCH  17  19
ATOM     19  C   UNL     1       0.718  -0.497  -1.257  0.00  0.00    +0.022 C 
BRANCH  19  21
ATOM     20  C   UNL     1       1.565  -2.514  -2.464  0.00  0.00    +0.004 C 
ATOM     21  C   UNL     1       0.849  -2.021  -1.205  0.00  0.00    -0.002 C 
ENDBRANCH  19  21
ENDBRANCH  17  19
ENDBRANCH  13  17
ENDBRANCH   1  14
BRANCH   3  22
ATOM     22  S   UNL     1      -6.136  -2.400  -1.504  0.00  0.00    +0.061 S 
ATOM     23  O   UNL     1      -7.534  -2.308  -1.266  0.00  0.00    -0.153 OA
ATOM     24  O   UNL     1      -5.488  -1.656  -2.527  0.00  0.00    -0.153 OA
BRANCH  22  25
ATOM     25  N   UNL     1      -5.811  -3.996  -1.801  0.00  0.00    -0.172 NA
ATOM     26  C   UNL     1      -4.629  -4.396  -2.581  0.00  0.00    +0.137 C 
ATOM     27  C   UNL     1      -3.871  -5.470  -1.784  0.00  0.00    +0.177 C 
ATOM     28  O   UNL     1      -4.778  -6.516  -1.426  0.00  0.00    -0.377 OA
ATOM     29  C   UNL     1      -5.843  -6.098  -0.569  0.00  0.00    +0.177 C 
ATOM     30  C   UNL     1      -6.699  -5.056  -1.298  0.00  0.00    +0.137 C 
ENDBRANCH  22  25
ENDBRANCH   3  22
TORSDOF 7
