REMARK  Name = ZINC35000585
REMARK  12 active torsions:
REMARK  status: ('A' for Active; 'I' for Inactive)
REMARK    1  A    between atoms: C_1  and  O_2
REMARK    2  A    between atoms: O_2  and  C_3
REMARK    3  A    between atoms: C_8  and  C_9
REMARK    4  A    between atoms: C_9  and  N_10
REMARK    5  A    between atoms: N_10  and  C_11
REMARK    6  A    between atoms: C_11  and  C_12
REMARK    7  A    between atoms: C_12  and  C_13
REMARK    8  A    between atoms: C_13  and  C_14
REMARK    9  A    between atoms: C_14  and  C_15
REMARK   10  A    between atoms: C_15  and  C_16
REMARK   11  A    between atoms: C_16  and  N_17
REMARK   12  A    between atoms: N_26  and  C_27
REMARK                            x       y       z     vdW  Elec       q    Type
REMARK                         _______ _______ _______ _____ _____    ______ ____
ROOT
ATOM      1  N   UNL     1       0.679  -2.973   1.450  0.00  0.00    -0.281 N 
ATOM      2  C   UNL     1       1.665  -2.148   1.855  0.00  0.00    +0.303 C 
ATOM      3  O   UNL     1       2.205  -2.328   2.929  0.00  0.00    -0.253 OA
ATOM      4  N   UNL     1       2.053  -1.125   1.069  0.00  0.00    -0.296 N 
ATOM      5  H   UNL     1       1.575  -0.937   0.246  0.00  0.00    +0.151 HD
ENDROOT
BRANCH   4   6
ATOM      6  C   UNL     1       3.197  -0.296   1.457  0.00  0.00    +0.074 C 
ATOM      7  C   UNL     1       2.749   0.740   2.489  0.00  0.00    +0.022 C 
ATOM      8  C   UNL     1       3.944   1.606   2.894  0.00  0.00    +0.002 C 
ATOM      9  C   UNL     1       4.497   2.322   1.661  0.00  0.00    +0.000 C 
ATOM     10  C   UNL     1       4.945   1.286   0.628  0.00  0.00    +0.002 C 
ATOM     11  C   UNL     1       3.750   0.420   0.223  0.00  0.00    +0.022 C 
ENDBRANCH   4   6
BRANCH   1  12
ATOM     12  C   UNL     1       0.104  -2.825   0.111  0.00  0.00    +0.148 C 
BRANCH  12  18
ATOM     13  C   UNL     1       0.727  -4.954  -1.058  0.00  0.00    +0.125 A 
ATOM     14  C   UNL     1       1.492  -5.659  -1.976  0.00  0.00    +0.046 A 
ATOM     15  C   UNL     1       2.466  -5.007  -2.707  0.00  0.00    +0.004 A 
ATOM     16  C   UNL     1       2.678  -3.653  -2.525  0.00  0.00    +0.001 A 
ATOM     17  C   UNL     1       1.917  -2.948  -1.611  0.00  0.00    +0.009 A 
ATOM     18  C   UNL     1       0.938  -3.595  -0.881  0.00  0.00    +0.012 A 
BRANCH  13  20
ATOM     19  C   UNL     1      -0.324  -7.011  -0.494  0.00  0.00    +0.277 C 
ATOM     20  O   UNL     1      -0.232  -5.594  -0.338  0.00  0.00    -0.495 OA
ENDBRANCH  13  20
ENDBRANCH  12  18
ENDBRANCH   1  12
BRANCH   1  21
ATOM     21  C   UNL     1       0.181  -4.016   2.350  0.00  0.00    +0.109 C 
BRANCH  21  22
ATOM     22  C   UNL     1       1.093  -5.242   2.264  0.00  0.00    +0.019 C 
BRANCH  22  23
ATOM     23  C   UNL     1       0.502  -6.378   3.100  0.00  0.00    +0.002 C 
BRANCH  23  24
ATOM     24  C   UNL     1       1.414  -7.603   3.014  0.00  0.00    +0.002 C 
BRANCH  24  25
ATOM     25  C   UNL     1       0.823  -8.739   3.850  0.00  0.00    +0.019 C 
BRANCH  25  26
ATOM     26  C   UNL     1       1.735  -9.965   3.764  0.00  0.00    +0.103 C 
BRANCH  26  27
ATOM     27  N   UNL     1       1.169 -11.053   4.565  0.00  0.00    -0.331 N 
ATOM     28  C   UNL     1       1.826 -12.275   4.641  0.00  0.00    +0.096 A 
ATOM     29  C   UNL     1       3.024 -12.457   3.957  0.00  0.00    +0.041 A 
ATOM     30  C   UNL     1       3.668 -13.678   4.041  0.00  0.00    +0.005 A 
ATOM     31  C   UNL     1       3.089 -14.681   4.808  0.00  0.00    +0.018 A 
ATOM     32  C   UNL     1       1.898 -14.432   5.460  0.00  0.00    +0.084 A 
ATOM     33  N   UNL     1       1.309 -13.254   5.366  0.00  0.00    -0.350 N 
ATOM     34  H   UNL     1       0.335 -10.920   5.043  0.00  0.00    +0.147 HD
ATOM     35  H   UNL     1       0.474 -13.104   5.838  0.00  0.00    +0.166 HD
ENDBRANCH  26  27
ENDBRANCH  25  26
ENDBRANCH  24  25
ENDBRANCH  23  24
ENDBRANCH  22  23
ENDBRANCH  21  22
ENDBRANCH   1  21
TORSDOF 11
