REMARK  Name = ZINC02082123
REMARK  13 active torsions:
REMARK  status: ('A' for Active; 'I' for Inactive)
REMARK    1  A    between atoms: C_1  and  C_2
REMARK    2  A    between atoms: C_2  and  O_3
REMARK    3  A    between atoms: O_3  and  C_4
REMARK    4  A    between atoms: C_4  and  C_5
REMARK    5  A    between atoms: C_5  and  O_6
REMARK    6  A    between atoms: O_6  and  C_7
REMARK    7  A    between atoms: C_7  and  C_9
REMARK    8  A    between atoms: C_10  and  C_32
REMARK    9  A    between atoms: C_14  and  C_16
REMARK   10  A    between atoms: C_18  and  O_24
REMARK   11  A    between atoms: C_19  and  O_23
REMARK   12  A    between atoms: O_24  and  C_25
REMARK   13  A    between atoms: C_25  and  C_26
REMARK                            x       y       z     vdW  Elec       q    Type
REMARK                         _______ _______ _______ _____ _____    ______ ____
ROOT
ATOM      1  C   UNL     1       5.115  -1.736  -3.330  0.00  0.00    +0.065 C 
ATOM      2  C   UNL     1       5.885  -1.804  -4.430  0.00  0.00    +0.016 C 
ATOM      3  N   UNL     1       7.186  -1.386  -4.391  0.00  0.00    -0.321 N 
ATOM      4  C   UNL     1       7.846  -1.268  -3.198  0.00  0.00    +0.015 C 
ATOM      5  C   UNL     1       7.158  -1.180  -2.040  0.00  0.00    +0.024 C 
ATOM      6  C   UNL     1       5.648  -1.189  -2.039  0.00  0.00    +0.092 C 
ATOM      7  C   UNL     1       7.824  -1.075  -0.806  0.00  0.00    +0.162 C 
ATOM      8  O   UNL     1       7.174  -0.990   0.217  0.00  0.00    -0.292 OA
ATOM      9  C   UNL     1       9.326  -1.066  -0.730  0.00  0.00    +0.080 C 
ATOM     10  C   UNL     1       9.892  -1.853  -1.916  0.00  0.00    +0.014 C 
ATOM     11  C   UNL     1       9.355  -1.235  -3.209  0.00  0.00    +0.051 C 
ATOM     12  C   UNL     1       5.311  -2.347  -5.713  0.00  0.00    +0.061 C 
ATOM     13  H   UNL     1       7.646  -1.171  -5.218  0.00  0.00    +0.152 HD
ENDROOT
BRANCH   6  14
ATOM     14  C   UNL     1       5.140   0.216  -1.849  0.00  0.00    -0.030 A 
ATOM     15  C   UNL     1       4.381   0.531  -0.736  0.00  0.00    +0.054 A 
ATOM     16  C   UNL     1       3.912   1.823  -0.560  0.00  0.00    +0.163 A 
ATOM     17  C   UNL     1       4.208   2.802  -1.503  0.00  0.00    +0.173 A 
ATOM     18  C   UNL     1       4.970   2.481  -2.615  0.00  0.00    +0.063 A 
ATOM     19  C   UNL     1       5.438   1.190  -2.783  0.00  0.00    +0.023 A 
ATOM     20 BR   UNL     1       5.374   3.808  -3.900  0.00  0.00    -0.046 Br
BRANCH  17  21
ATOM     21  O   UNL     1       3.750   4.072  -1.334  0.00  0.00    -0.503 OA
ATOM     22  H   UNL     1       4.353   4.645  -0.841  0.00  0.00    +0.292 HD
ENDBRANCH  17  21
BRANCH  16  23
ATOM     23  O   UNL     1       3.165   2.133   0.533  0.00  0.00    -0.489 OA
BRANCH  23  24
ATOM     24  C   UNL     1       3.001   1.111   1.518  0.00  0.00    +0.226 C 
ATOM     25  C   UNL     1       2.131   1.639   2.661  0.00  0.00    +0.048 C 
ENDBRANCH  23  24
ENDBRANCH  16  23
ENDBRANCH   6  14
BRANCH   1  26
ATOM     26  C   UNL     1       3.774  -2.181  -3.394  0.00  0.00    +0.338 C 
ATOM     27  O   UNL     1       3.484  -3.297  -3.003  0.00  0.00    -0.245 OA
BRANCH  26  28
ATOM     28  O   UNL     1       2.816  -1.370  -3.889  0.00  0.00    -0.459 OA
BRANCH  28  29
ATOM     29  C   UNL     1       1.488  -1.895  -3.948  0.00  0.00    +0.260 C 
BRANCH  29  30
ATOM     30  C   UNL     1       0.566  -0.876  -4.621  0.00  0.00    +0.201 C 
BRANCH  30  31
ATOM     31  O   UNL     1       0.955  -0.711  -5.986  0.00  0.00    -0.377 OA
BRANCH  31  33
ATOM     32  C   UNL     1       0.636   0.310  -8.153  0.00  0.00    +0.034 C 
ATOM     33  C   UNL     1       0.223   0.301  -6.680  0.00  0.00    +0.156 C 
ENDBRANCH  31  33
ENDBRANCH  30  31
ENDBRANCH  29  30
ENDBRANCH  28  29
ENDBRANCH  26  28
ENDBRANCH   1  26
TORSDOF 10
