REMARK  Name = ZINC12878305
REMARK  4 active torsions:
REMARK  status: ('A' for Active; 'I' for Inactive)
REMARK    1  A    between atoms: C_4  and  C_7
REMARK    2  A    between atoms: C_7  and  C_8
REMARK    3  A    between atoms: C_20  and  C_32
REMARK    4  A    between atoms: C_32  and  C_34
REMARK                            x       y       z     vdW  Elec       q    Type
REMARK                         _______ _______ _______ _____ _____    ______ ____
ROOT
ATOM      1  C   UNL     1      -0.410   1.230  -1.061  0.00  0.00    -0.045 C 
ATOM      2  C   UNL     1      -0.009   2.671  -1.403  0.00  0.00    +0.071 C 
ATOM      3  C   UNL     1       0.272   2.827  -2.871  0.00  0.00    -0.012 A 
ATOM      4  C   UNL     1       1.168   2.233  -3.732  0.00  0.00    +0.006 A 
ATOM      5  C   UNL     1       1.187   2.595  -5.068  0.00  0.00    +0.000 A 
ATOM      6  C   UNL     1       0.305   3.552  -5.534  0.00  0.00    +0.002 A 
ATOM      7  C   UNL     1      -0.594   4.149  -4.675  0.00  0.00    +0.023 A 
ATOM      8  C   UNL     1      -0.620   3.792  -3.329  0.00  0.00    +0.038 A 
ATOM      9  N   UNL     1      -1.422   4.245  -2.279  0.00  0.00    -0.285 N 
ATOM     10  C   UNL     1      -1.125   3.637  -1.114  0.00  0.00    +0.227 C 
ATOM     11  O   UNL     1      -1.655   3.830  -0.040  0.00  0.00    -0.275 OA
ATOM     12  C   UNL     1       1.235   2.979  -0.559  0.00  0.00    +0.080 C 
ATOM     13  C   UNL     1       1.494   1.683   0.224  0.00  0.00    +0.049 C 
ATOM     14  C   UNL     1       2.029   1.962   1.598  0.00  0.00    -0.028 A 
ATOM     15  C   UNL     1       1.545   2.661   2.682  0.00  0.00    +0.004 A 
ATOM     16  C   UNL     1       2.291   2.741   3.844  0.00  0.00    +0.000 A 
ATOM     17  C   UNL     1       3.524   2.118   3.916  0.00  0.00    +0.002 A 
ATOM     18  C   UNL     1       4.012   1.416   2.834  0.00  0.00    +0.023 A 
ATOM     19  C   UNL     1       3.268   1.330   1.660  0.00  0.00    +0.036 A 
ATOM     20  N   UNL     1       3.543   0.688   0.450  0.00  0.00    -0.286 N 
ATOM     21  C   UNL     1       2.549   0.845  -0.445  0.00  0.00    +0.211 C 
ATOM     22  O   UNL     1       2.512   0.397  -1.572  0.00  0.00    -0.277 OA
ATOM     23  H   UNL     1      -2.112   4.920  -2.377  0.00  0.00    +0.155 HD
ATOM     24  H   UNL     1       4.355   0.187   0.276  0.00  0.00    +0.155 HD
ATOM     25  N   UNL     1       0.212   0.997   0.248  0.00  0.00    +0.395 N 
ATOM     26  H   UNL     1       0.351  -0.009   0.402  0.00  0.00    -0.083 HD
ATOM     27  H   UNL     1      -0.380   1.379   0.995  0.00  0.00    -0.083 HD
ENDROOT
BRANCH  12  28
ATOM     28  C   UNL     1       2.409   3.301  -1.448  0.00  0.00    +0.167 C 
ATOM     29  O   UNL     1       3.016   2.407  -1.998  0.00  0.00    -0.292 OA
BRANCH  28  30
ATOM     30  C   UNL     1       2.818   4.700  -1.649  0.00  0.00    +0.018 A 
ATOM     31  C   UNL     1       2.117   5.734  -1.021  0.00  0.00    +0.011 A 
ATOM     32  C   UNL     1       2.510   7.043  -1.210  0.00  0.00    +0.001 A 
ATOM     33  C   UNL     1       3.587   7.334  -2.028  0.00  0.00    +0.000 A 
ATOM     34  C   UNL     1       4.283   6.316  -2.657  0.00  0.00    +0.001 A 
ATOM     35  C   UNL     1       3.906   5.003  -2.473  0.00  0.00    +0.011 A 
ENDBRANCH  28  30
ENDBRANCH  12  28
BRANCH   1  36
ATOM     36  C   UNL     1      -1.933   1.102  -0.986  0.00  0.00    +0.021 C 
BRANCH  36  40
ATOM     37  C   UNL     1      -2.983  -2.951  -0.142  0.00  0.00    +0.000 A 
ATOM     38  C   UNL     1      -2.775  -2.061   0.894  0.00  0.00    +0.000 A 
ATOM     39  C   UNL     1      -2.435  -0.750   0.622  0.00  0.00    +0.003 A 
ATOM     40  C   UNL     1      -2.303  -0.328  -0.688  0.00  0.00    -0.049 A 
ATOM     41  C   UNL     1      -2.516  -1.217  -1.725  0.00  0.00    +0.003 A 
ATOM     42  C   UNL     1      -2.851  -2.530  -1.452  0.00  0.00    +0.000 A 
ENDBRANCH  36  40
ENDBRANCH   1  36
TORSDOF 4
