REMARK  Name = ZINC01895735
REMARK  9 active torsions:
REMARK  status: ('A' for Active; 'I' for Inactive)
REMARK    1  A    between atoms: C_1  and  C_2
REMARK    2  A    between atoms: C_2  and  O_3
REMARK    3  A    between atoms: O_3  and  C_4
REMARK    4  A    between atoms: C_4  and  C_6
REMARK    5  A    between atoms: C_10  and  N_11
REMARK    6  A    between atoms: N_11  and  C_12
REMARK    7  A    between atoms: C_12  and  N_14
REMARK    8  A    between atoms: C_15  and  C_17
REMARK    9  A    between atoms: C_17  and  N_18
REMARK                            x       y       z     vdW  Elec       q    Type
REMARK                         _______ _______ _______ _____ _____    ______ ____
ROOT
ATOM      1  C   UNL     1      -3.809  -2.867   3.545  0.00  0.00    +0.141 C 
ATOM      2  S   UNL     1      -5.364  -3.532   3.278  0.00  0.00    -0.018 S 
ENDROOT
BRANCH   1   3
ATOM      3  N   UNL     1      -3.361  -2.686   4.803  0.00  0.00    -0.266 N 
ATOM      4  C   UNL     1      -4.136  -3.030   5.851  0.00  0.00    +0.236 C 
ATOM      5  O   UNL     1      -5.237  -3.501   5.662  0.00  0.00    -0.274 OA
ATOM      6  H   UNL     1      -2.480  -2.309   4.955  0.00  0.00    +0.157 HD
BRANCH   4   7
ATOM      7  C   UNL     1      -3.634  -2.828   7.258  0.00  0.00    +0.212 C 
BRANCH   7   8
ATOM      8  N   UNL     1      -4.655  -3.276   8.209  0.00  0.00    -0.233 N 
ATOM      9  C   UNL     1      -5.606  -2.465   8.684  0.00  0.00    +0.227 C 
ATOM     10  O   UNL     1      -5.736  -1.294   8.396  0.00  0.00    -0.275 OA
ATOM     11  C   UNL     1      -6.494  -3.233   9.637  0.00  0.00    +0.095 C 
ATOM     12  C   UNL     1      -6.231  -2.707  11.083  0.00  0.00    +0.025 C 
ATOM     13  C   UNL     1      -4.812  -3.324  11.358  0.00  0.00    +0.016 C 
ATOM     14  C   UNL     1      -5.300  -4.795  11.097  0.00  0.00    +0.025 C 
ATOM     15  C   UNL     1      -5.874  -4.661   9.629  0.00  0.00    +0.095 C 
ATOM     16  C   UNL     1      -4.714  -4.531   8.668  0.00  0.00    +0.227 C 
ATOM     17  O   UNL     1      -3.954  -5.425   8.363  0.00  0.00    -0.275 OA
ATOM     18  C   UNL     1      -6.552  -4.818  11.982  0.00  0.00    -0.027 C 
ATOM     19  C   UNL     1      -7.106  -3.600  11.971  0.00  0.00    -0.027 C 
ENDBRANCH   7   8
ENDBRANCH   4   7
ENDBRANCH   1   3
BRANCH   1  20
ATOM     20  N   UNL     1      -3.034  -2.523   2.498  0.00  0.00    -0.290 N 
ATOM     21  H   UNL     1      -2.153  -2.146   2.649  0.00  0.00    +0.154 HD
BRANCH  20  26
ATOM     22  C   UNL     1      -2.842  -2.416   0.016  0.00  0.00    +0.091 A 
ATOM     23  C   UNL     1      -3.548  -2.714  -1.219  0.00  0.00    -0.021 A 
ATOM     24  C   UNL     1      -4.777  -3.242  -1.039  0.00  0.00    -0.004 A 
ATOM     25  S   UNL     1      -4.974  -3.335   0.716  0.00  0.00    -0.077 S 
ATOM     26  C   UNL     1      -3.495  -2.708   1.205  0.00  0.00    +0.086 A 
ATOM     27  C   UNL     1      -5.745  -3.651  -2.106  0.00  0.00    +0.043 C 
ATOM     28  C   UNL     1      -5.287  -3.033  -3.436  0.00  0.00    +0.005 C 
ATOM     29  C   UNL     1      -3.790  -3.300  -3.616  0.00  0.00    +0.005 C 
ATOM     30  C   UNL     1      -2.988  -2.468  -2.612  0.00  0.00    +0.037 C 
BRANCH  22  31
ATOM     31  C   UNL     1      -1.497  -1.838   0.006  0.00  0.00    +0.342 C 
ATOM     32  O   UNL     1      -0.522  -2.566  -0.007  0.00  0.00    -0.245 OA
BRANCH  31  33
ATOM     33  O   UNL     1      -1.339  -0.499   0.012  0.00  0.00    -0.461 OA
BRANCH  33  35
ATOM     34  C   UNL     1      -0.019   1.526   0.010  0.00  0.00    +0.048 C 
ATOM     35  C   UNL     1       0.002  -0.004   0.002  0.00  0.00    +0.229 C 
ENDBRANCH  33  35
ENDBRANCH  31  33
ENDBRANCH  22  31
ENDBRANCH  20  26
ENDBRANCH   1  20
TORSDOF 8
