REMARK  Name = ZINC58271987
REMARK  8 active torsions:
REMARK  status: ('A' for Active; 'I' for Inactive)
REMARK    1  A    between atoms: C_1  and  C_2
REMARK    2  A    between atoms: C_2  and  C_4
REMARK    3  A    between atoms: C_2  and  N_18
REMARK    4  A    between atoms: N_6  and  C_7
REMARK    5  A    between atoms: C_8  and  C_15
REMARK    6  A    between atoms: N_18  and  C_19
REMARK    7  A    between atoms: C_19  and  C_20
REMARK    8  A    between atoms: C_19  and  C_26
REMARK                            x       y       z     vdW  Elec       q    Type
REMARK                         _______ _______ _______ _____ _____    ______ ____
ROOT
ATOM      1  C   UNL     1      -0.019   1.526   0.010  0.00  0.00    +0.034 C 
ATOM      2  C   UNL     1       0.002  -0.004   0.002  0.00  0.00    +0.138 C 
ENDROOT
BRANCH   2   3
ATOM      3  C   UNL     1      -1.412  -0.526   0.013  0.00  0.00    +0.234 C 
ATOM      4  O   UNL     1      -1.790  -1.233   0.922  0.00  0.00    -0.274 OA
ATOM      5  N   UNL     1      -2.256  -0.206  -0.988  0.00  0.00    -0.278 N 
ATOM      6  H   UNL     1      -1.953   0.360  -1.716  0.00  0.00    +0.155 HD
BRANCH   5   7
ATOM      7  C   UNL     1      -3.556  -0.686  -0.979  0.00  0.00    +0.084 A 
ATOM      8  C   UNL     1      -4.550  -0.468  -1.915  0.00  0.00    +0.068 A 
ATOM      9  C   UNL     1      -5.849  -1.093  -1.671  0.00  0.00    -0.023 A 
ATOM     10  C   UNL     1      -5.906  -1.815  -0.537  0.00  0.00    -0.004 A 
ATOM     11  S   UNL     1      -4.284  -1.670   0.168  0.00  0.00    -0.077 S 
ATOM     12  C   UNL     1      -7.263  -2.432  -0.333  0.00  0.00    +0.043 C 
ATOM     13  C   UNL     1      -8.195  -1.648  -1.284  0.00  0.00    +0.010 C 
ATOM     14  C   UNL     1      -7.208  -1.164  -2.365  0.00  0.00    +0.037 C 
BRANCH   8  15
ATOM     15  C   UNL     1      -4.311   0.356  -3.104  0.00  0.00    +0.244 C 
ATOM     16  O   UNL     1      -3.900  -0.158  -4.128  0.00  0.00    -0.270 OA
ATOM     17  N   UNL     1      -4.547   1.682  -3.062  0.00  0.00    -0.325 N 
ATOM     18  H   UNL     1      -4.875   2.092  -2.246  0.00  0.00    +0.145 HD
ATOM     19  H   UNL     1      -4.389   2.228  -3.849  0.00  0.00    +0.145 HD
ENDBRANCH   8  15
ENDBRANCH   5   7
ENDBRANCH   2   3
BRANCH   2  20
ATOM     20  N   UNL     1       0.713  -0.491   1.192  0.00  0.00    -0.295 NA
ATOM     21  H   UNL     1       0.492   0.072   2.000  0.00  0.00    +0.124 HD
BRANCH  20  22
ATOM     22  C   UNL     1       2.162  -0.532   0.959  0.00  0.00    +0.115 C 
BRANCH  22  23
ATOM     23  C   UNL     1       2.756   0.824   1.240  0.00  0.00    -0.026 A 
ATOM     24  C   UNL     1       2.311   1.563   2.320  0.00  0.00    +0.005 A 
ATOM     25  C   UNL     1       2.855   2.808   2.577  0.00  0.00    +0.000 A 
ATOM     26  C   UNL     1       3.844   3.313   1.754  0.00  0.00    +0.000 A 
ATOM     27  C   UNL     1       4.289   2.574   0.674  0.00  0.00    +0.000 A 
ATOM     28  C   UNL     1       3.748   1.327   0.419  0.00  0.00    +0.005 A 
ENDBRANCH  22  23
BRANCH  22  29
ATOM     29  C   UNL     1       2.789  -1.553   1.874  0.00  0.00    -0.026 A 
ATOM     30  C   UNL     1       2.349  -1.674   3.179  0.00  0.00    +0.005 A 
ATOM     31  C   UNL     1       2.923  -2.611   4.018  0.00  0.00    +0.000 A 
ATOM     32  C   UNL     1       3.938  -3.426   3.552  0.00  0.00    +0.000 A 
ATOM     33  C   UNL     1       4.377  -3.306   2.247  0.00  0.00    +0.000 A 
ATOM     34  C   UNL     1       3.800  -2.372   1.407  0.00  0.00    +0.005 A 
ENDBRANCH  22  29
ENDBRANCH  20  22
ENDBRANCH   2  20
TORSDOF 7
