REMARK  Name = ZINC09335007
REMARK  13 active torsions:
REMARK  status: ('A' for Active; 'I' for Inactive)
REMARK    1  A    between atoms: C_1  and  C_2
REMARK    2  A    between atoms: C_2  and  C_3
REMARK    3  A    between atoms: C_3  and  C_4
REMARK    4  A    between atoms: C_11  and  C_13
REMARK    5  A    between atoms: C_15  and  S_22
REMARK    6  A    between atoms: C_18  and  O_19
REMARK    7  A    between atoms: O_19  and  C_20
REMARK    8  A    between atoms: C_20  and  C_21
REMARK    9  A    between atoms: S_22  and  N_25
REMARK   10  A    between atoms: C_27  and  C_36
REMARK   11  A    between atoms: C_32  and  C_34
REMARK   12  A    between atoms: C_32  and  C_35
REMARK   13  A    between atoms: N_37  and  C_39
REMARK                            x       y       z     vdW  Elec       q    Type
REMARK                         _______ _______ _______ _____ _____    ______ ____
ROOT
ATOM      1  C   UNL     1      -0.774   9.012  -1.583  0.00  0.00    +0.061 A 
ATOM      2  C   UNL     1      -0.103   7.831  -1.259  0.00  0.00    +0.043 A 
ATOM      3  C   UNL     1      -0.236   6.721  -2.066  0.00  0.00    +0.106 A 
ATOM      4  C   UNL     1      -1.029   6.774  -3.201  0.00  0.00    +0.032 A 
ATOM      5  C   UNL     1      -1.702   7.934  -3.530  0.00  0.00    +0.048 A 
ATOM      6  C   UNL     1      -1.579   9.059  -2.729  0.00  0.00    +0.131 A 
ENDROOT
BRANCH   1  14
ATOM      7  C   UNL     1      -1.735  13.705  -0.392  0.00  0.00    +0.089 A 
ATOM      8  C   UNL     1      -1.180  12.414  -0.295  0.00  0.00    +0.119 A 
ATOM      9  C   UNL     1      -0.382  12.398   0.856  0.00  0.00    +0.151 A 
ATOM     10  C   UNL     1       0.302  11.208   1.194  0.00  0.00    +0.278 A 
ATOM     11  O   UNL     1       1.006  11.153   2.188  0.00  0.00    -0.265 OA
ATOM     12  N   UNL     1       0.152  10.130   0.392  0.00  0.00    -0.305 N 
ATOM     13  H   UNL     1       0.609   9.302   0.607  0.00  0.00    +0.170 HD
ATOM     14  C   UNL     1      -0.636  10.205  -0.724  0.00  0.00    +0.145 A 
ATOM     15  N   UNL     1      -1.276  11.301  -1.050  0.00  0.00    -0.225 NA
ATOM     16  N   UNL     1      -0.467  13.642   1.418  0.00  0.00    -0.260 N 
ATOM     17  N   UNL     1      -1.313  14.419   0.616  0.00  0.00    -0.174 NA
ATOM     18  C   UNL     1       0.206  14.083   2.642  0.00  0.00    +0.173 C 
BRANCH   7  19
ATOM     19  C   UNL     1      -2.663  14.183  -1.479  0.00  0.00    +0.059 C 
BRANCH  19  21
ATOM     20  C   UNL     1      -5.053  14.399  -2.172  0.00  0.00    +0.004 C 
ATOM     21  C   UNL     1      -4.112  13.914  -1.068  0.00  0.00    +0.003 C 
ENDBRANCH  19  21
ENDBRANCH   7  19
ENDBRANCH   1  14
BRANCH   3  22
ATOM     22  S   UNL     1       0.611   5.232  -1.656  0.00  0.00    +0.061 S 
ATOM     23  O   UNL     1       1.722   5.606  -0.853  0.00  0.00    -0.153 OA
ATOM     24  O   UNL     1       0.758   4.502  -2.866  0.00  0.00    -0.153 OA
BRANCH  22  25
ATOM     25  N   UNL     1      -0.397   4.346  -0.687  0.00  0.00    -0.173 NA
ATOM     26  C   UNL     1      -0.461   4.417   0.781  0.00  0.00    +0.116 C 
ATOM     27  C   UNL     1      -1.440   3.305   1.225  0.00  0.00    -0.016 C 
ATOM     28  C   UNL     1      -2.410   3.229   0.014  0.00  0.00    +0.028 C 
ATOM     29  C   UNL     1      -1.388   3.353  -1.145  0.00  0.00    +0.081 C 
ATOM     30  C   UNL     1      -0.703   1.990  -1.270  0.00  0.00    +0.027 C 
ATOM     31  C   UNL     1      -0.019   1.545   0.011  0.00  0.00    -0.033 C 
ATOM     32  C   UNL     1      -0.689   1.978   1.300  0.00  0.00    +0.014 C 
ATOM     33  C   UNL     1       0.002  -0.004   0.002  0.00  0.00    +0.011 C 
ATOM     34  C   UNL     1       1.448   2.000  -0.001  0.00  0.00    +0.011 C 
ATOM     35  C   UNL     1      -2.164   3.654   2.534  0.00  0.00    +0.012 C 
ENDBRANCH  22  25
ENDBRANCH   3  22
BRANCH   6  36
ATOM     36  O   UNL     1      -2.236  10.202  -3.054  0.00  0.00    -0.492 OA
BRANCH  36  37
ATOM     37  C   UNL     1      -3.038  10.175  -4.237  0.00  0.00    +0.226 C 
ATOM     38  C   UNL     1      -3.695  11.543  -4.438  0.00  0.00    +0.048 C 
ENDBRANCH  36  37
ENDBRANCH   6  36
TORSDOF 7
