REMARK  Name = ZINC10002060
REMARK  14 active torsions:
REMARK  status: ('A' for Active; 'I' for Inactive)
REMARK    1  A    between atoms: C_1  and  C_2
REMARK    2  A    between atoms: C_2  and  N_3
REMARK    3  A    between atoms: C_4  and  C_21
REMARK    4  A    between atoms: C_7  and  S_8
REMARK    5  A    between atoms: S_8  and  C_9
REMARK    6  A    between atoms: C_9  and  C_10
REMARK    7  A    between atoms: N_12  and  C_13
REMARK    8  A    between atoms: C_16  and  C_20
REMARK    9  A    between atoms: C_17  and  C_19
REMARK   10  A    between atoms: C_21  and  C_23
REMARK   11  A    between atoms: C_21  and  N_26
REMARK   12  A    between atoms: C_23  and  C_24
REMARK   13  A    between atoms: C_23  and  C_25
REMARK   14  A    between atoms: C_27  and  C_29
REMARK                            x       y       z     vdW  Elec       q    Type
REMARK                         _______ _______ _______ _____ _____    ______ ____
ROOT
ATOM      1  N   UNL     1      -1.929  -1.201   0.341  0.00  0.00    -0.305 N 
ATOM      2  C   UNL     1      -1.810  -0.308   1.370  0.00  0.00    +0.155 A 
ATOM      3  N   UNL     1      -1.952  -0.974   2.481  0.00  0.00    -0.132 NA
ATOM      4  N   UNL     1      -2.146  -2.219   2.227  0.00  0.00    -0.122 NA
ATOM      5  C   UNL     1      -2.138  -2.416   0.929  0.00  0.00    +0.192 A 
ENDROOT
BRANCH   1   7
ATOM      6  C   UNL     1      -0.420  -1.176  -1.584  0.00  0.00    +0.027 C 
ATOM      7  C   UNL     1      -1.846  -0.915  -1.093  0.00  0.00    +0.122 C 
ENDBRANCH   1   7
BRANCH   5   8
ATOM      8  S   UNL     1      -2.362  -3.955   0.101  0.00  0.00    -0.077 S 
BRANCH   8   9
ATOM      9  C   UNL     1      -2.582  -5.049   1.526  0.00  0.00    +0.173 C 
BRANCH   9  10
ATOM     10  C   UNL     1      -2.796  -6.462   1.047  0.00  0.00    +0.227 C 
ATOM     11  O   UNL     1      -2.800  -6.705  -0.142  0.00  0.00    -0.275 OA
ATOM     12  N   UNL     1      -2.983  -7.455   1.938  0.00  0.00    -0.285 N 
ATOM     13  H   UNL     1      -2.907  -7.275   2.888  0.00  0.00    +0.155 HD
BRANCH  12  14
ATOM     14  C   UNL     1      -3.288  -8.746   1.493  0.00  0.00    +0.034 A 
ATOM     15  C   UNL     1      -4.061  -8.925   0.354  0.00  0.00    +0.023 A 
ATOM     16  C   UNL     1      -4.355 -10.201  -0.086  0.00  0.00    +0.005 A 
ATOM     17  C   UNL     1      -3.890 -11.299   0.614  0.00  0.00    -0.047 A 
ATOM     18  C   UNL     1      -3.125 -11.124   1.752  0.00  0.00    -0.046 A 
ATOM     19  C   UNL     1      -2.823  -9.851   2.194  0.00  0.00    +0.027 A 
ATOM     20  C   UNL     1      -2.621 -12.324   2.511  0.00  0.00    +0.044 C 
ATOM     21  C   UNL     1      -4.218 -12.690   0.134  0.00  0.00    +0.044 C 
ENDBRANCH  12  14
ENDBRANCH   9  10
ENDBRANCH   8   9
ENDBRANCH   5   8
BRANCH   2  22
ATOM     22  C   UNL     1      -1.567   1.174   1.242  0.00  0.00    +0.144 C 
BRANCH  22  23
ATOM     23  N   UNL     1      -2.523   1.900   2.082  0.00  0.00    -0.301 N 
ATOM     24  C   UNL     1      -2.855   3.171   1.781  0.00  0.00    +0.245 C 
ATOM     25  O   UNL     1      -2.360   3.715   0.813  0.00  0.00    -0.270 OA
ATOM     26  H   UNL     1      -2.918   1.465   2.854  0.00  0.00    +0.150 HD
BRANCH  24  27
ATOM     27  C   UNL     1      -3.818   3.902   2.628  0.00  0.00    +0.040 A 
ATOM     28  C   UNL     1      -4.392   3.276   3.737  0.00  0.00    +0.017 A 
ATOM     29  C   UNL     1      -5.287   3.962   4.529  0.00  0.00    +0.050 A 
ATOM     30  C   UNL     1      -5.631   5.272   4.221  0.00  0.00    +0.166 A 
ATOM     31  C   UNL     1      -5.065   5.901   3.111  0.00  0.00    +0.167 A 
ATOM     32  C   UNL     1      -4.163   5.220   2.317  0.00  0.00    +0.062 A 
ATOM     33  O   UNL     1      -5.563   7.170   3.030  0.00  0.00    -0.453 OA
ATOM     34  C   UNL     1      -6.742   7.174   3.857  0.00  0.00    +0.466 C 
ATOM     35  O   UNL     1      -6.479   6.147   4.832  0.00  0.00    -0.453 OA
ENDBRANCH  24  27
ENDBRANCH  22  23
BRANCH  22  36
ATOM     36  C   UNL     1      -0.142   1.498   1.695  0.00  0.00    +0.011 C 
ATOM     37  C   UNL     1       0.858   0.856   0.731  0.00  0.00    +0.009 C 
ATOM     38  C   UNL     1       0.083   0.947   3.105  0.00  0.00    +0.009 C 
ENDBRANCH  22  36
ENDBRANCH   2  22
TORSDOF 9
