REMARK  Name = ZINC42952994
REMARK  8 active torsions:
REMARK  status: ('A' for Active; 'I' for Inactive)
REMARK    1  A    between atoms: C_1  and  C_2
REMARK    2  A    between atoms: C_2  and  C_3
REMARK    3  A    between atoms: C_3  and  C_5
REMARK    4  A    between atoms: C_3  and  N_22
REMARK    5  A    between atoms: C_5  and  C_7
REMARK    6  A    between atoms: C_5  and  N_14
REMARK    7  A    between atoms: N_14  and  C_15
REMARK    8  A    between atoms: N_14  and  C_16
REMARK                            x       y       z     vdW  Elec       q    Type
REMARK                         _______ _______ _______ _____ _____    ______ ____
ROOT
ATOM      1  C   UNL     1      -1.521  -2.037   0.192  0.00  0.00    -0.053 C 
ENDROOT
BRANCH   1   2
ATOM      2  C   UNL     1      -0.876  -2.225  -1.157  0.00  0.00    -0.062 A 
ATOM      3  C   UNL     1       0.436  -1.837  -1.356  0.00  0.00    +0.003 A 
ATOM      4  C   UNL     1       1.028  -2.010  -2.593  0.00  0.00    +0.015 A 
ATOM      5  C   UNL     1       0.308  -2.572  -3.632  0.00  0.00    +0.018 A 
ATOM      6  C   UNL     1      -1.005  -2.961  -3.432  0.00  0.00    +0.015 A 
ATOM      7  C   UNL     1      -1.594  -2.792  -2.194  0.00  0.00    +0.003 A 
ATOM      8 BR   UNL     1       1.117  -2.808  -5.325  0.00  0.00    -0.050 Br
ENDBRANCH   1   2
BRANCH   1   9
ATOM      9  N   UNL     1      -0.679  -2.651   1.227  0.00  0.00    +0.384 N 
ATOM     10  C   UNL     1      -1.171  -2.260   2.554  0.00  0.00    -0.095 C 
ATOM     11  H   UNL     1       0.274  -2.338   1.116  0.00  0.00    -0.081 HD
BRANCH   9  12
ATOM     12  C   UNL     1      -0.732  -4.114   1.097  0.00  0.00    -0.057 C 
ATOM     13  C   UNL     1      -0.120  -4.739   2.349  0.00  0.00    -0.004 C 
ATOM     14  C   UNL     1       0.492  -6.128   2.014  0.00  0.00    +0.067 C 
ATOM     15  S   UNL     1       1.231  -5.750   0.365  0.00  0.00    -0.162 S 
ATOM     16  C   UNL     1      -0.012  -4.520  -0.204  0.00  0.00    +0.054 C 
ENDBRANCH   9  12
ENDBRANCH   1   9
BRANCH   1  17
ATOM     17  C   UNL     1      -1.673  -0.542   0.479  0.00  0.00    -0.085 C 
BRANCH  17  18
ATOM     18  N   UNL     1      -2.414   0.095  -0.618  0.00  0.00    +0.379 N 
ATOM     19  H   UNL     1      -1.909  -0.032  -1.482  0.00  0.00    -0.090 HD
ATOM     20  H   UNL     1      -3.327  -0.328  -0.697  0.00  0.00    -0.090 HD
ATOM     21  H   UNL     1      -2.515   1.081  -0.428  0.00  0.00    -0.090 HD
ENDBRANCH  17  18
BRANCH  17  23
ATOM     22  C   UNL     1      -0.439   1.565   1.010  0.00  0.00    +0.002 C 
ATOM     23  C   UNL     1      -0.289   0.098   0.600  0.00  0.00    -0.021 C 
ENDBRANCH  17  23
ENDBRANCH   1  17
TORSDOF 6
