REMARK  Name = ZINC09586116
REMARK  6 active torsions:
REMARK  status: ('A' for Active; 'I' for Inactive)
REMARK    1  A    between atoms: C_1  and  N_2
REMARK    2  A    between atoms: N_2  and  C_3
REMARK    3  A    between atoms: C_3  and  C_4
REMARK    4  A    between atoms: N_18  and  C_19
REMARK    5  A    between atoms: C_19  and  C_20
REMARK    6  A    between atoms: C_20  and  N_63
REMARK                            x       y       z     vdW  Elec       q    Type
REMARK                         _______ _______ _______ _____ _____    ______ ____
ROOT
ATOM      1  C   UNL     1      -1.724   7.066   4.935  0.00  0.00    +0.134 C 
ATOM      2  N   UNL     1      -0.543   6.207   4.819  0.00  0.00    -0.281 N 
ATOM      3  C   UNL     1       0.503   6.598   4.066  0.00  0.00    +0.302 C 
ATOM      4  O   UNL     1       1.484   5.886   3.970  0.00  0.00    -0.253 OA
ATOM      5  N   UNL     1       0.464   7.780   3.419  0.00  0.00    -0.301 N 
ATOM      6  H   UNL     1      -0.319   8.349   3.495  0.00  0.00    +0.150 HD
ENDROOT
BRANCH   2   7
ATOM      7  C   UNL     1      -0.500   4.923   5.523  0.00  0.00    +0.183 C 
BRANCH   7   8
ATOM      8  C   UNL     1       0.090   5.121   6.895  0.00  0.00    +0.128 A 
ATOM      9  N   UNL     1       0.215   4.038   7.706  0.00  0.00    -0.309 N 
ATOM     10  H   UNL     1      -0.074   3.167   7.392  0.00  0.00    +0.170 HD
ATOM     11  C   UNL     1       0.738   4.164   8.948  0.00  0.00    +0.259 A 
ATOM     12  O   UNL     1       0.855   3.202   9.685  0.00  0.00    -0.267 OA
ATOM     13  C   UNL     1       1.154   5.508   9.375  0.00  0.00    +0.065 A 
ATOM     14  C   UNL     1       1.710   5.744  10.630  0.00  0.00    +0.015 A 
ATOM     15  C   UNL     1       2.087   7.023  10.976  0.00  0.00    +0.001 A 
ATOM     16  C   UNL     1       1.924   8.074  10.082  0.00  0.00    +0.002 A 
ATOM     17  C   UNL     1       1.382   7.861   8.835  0.00  0.00    +0.028 A 
ATOM     18  C   UNL     1       0.992   6.573   8.461  0.00  0.00    +0.078 A 
ATOM     19  N   UNL     1       0.454   6.319   7.242  0.00  0.00    -0.232 NA
ENDBRANCH   7   8
ENDBRANCH   2   7
BRANCH   5  20
ATOM     20  C   UNL     1       1.601   8.205   2.600  0.00  0.00    +0.094 C 
BRANCH  20  21
ATOM     21  C   UNL     1       1.355   9.624   2.083  0.00  0.00    -0.050 C 
ATOM     22  C   UNL     1       2.477  10.018   1.120  0.00  0.00    -0.010 C 
ATOM     23  C   UNL     1       3.819   9.968   1.853  0.00  0.00    -0.001 C 
ATOM     24  C   UNL     1       3.793  10.943   3.032  0.00  0.00    -0.000 C 
ATOM     25  C   UNL     1       2.671  10.549   3.995  0.00  0.00    -0.001 C 
ATOM     26  C   UNL     1       1.329  10.599   3.262  0.00  0.00    -0.010 C 
BRANCH  21  32
ATOM     27  C   UNL     1       0.029   8.697   0.282  0.00  0.00    -0.078 C 
ATOM     28  C   UNL     1      -1.372   8.672  -0.333  0.00  0.00    -0.019 C 
ATOM     29  C   UNL     1      -1.719  10.069  -0.855  0.00  0.00    -0.004 C 
ATOM     30  C   UNL     1      -1.626  11.074   0.297  0.00  0.00    -0.019 C 
ATOM     31  C   UNL     1      -0.217  11.029   0.893  0.00  0.00    -0.078 C 
ATOM     32  N   UNL     1       0.046   9.665   1.399  0.00  0.00    +0.384 N 
ATOM     33  H   UNL     1      -0.689   9.411   2.071  0.00  0.00    -0.081 HD
ENDBRANCH  21  32
ENDBRANCH  20  21
ENDBRANCH   5  20
TORSDOF 5
