REMARK  Name = ZINC64386205
REMARK  1 active torsions:
REMARK  status: ('A' for Active; 'I' for Inactive)
REMARK    1  A    between atoms: C_6  and  C_7
REMARK                            x       y       z     vdW  Elec       q    Type
REMARK                         _______ _______ _______ _____ _____    ______ ____
ROOT
ATOM      1  C   UNL     1      -1.266  -0.763   0.010  0.00  0.00    +0.250 C 
ATOM      2  O   UNL     1      -1.246  -1.978   0.004  0.00  0.00    -0.270 OA
ATOM      3  N   UNL     1      -2.443  -0.108   0.026  0.00  0.00    -0.261 N 
ATOM      4  C   UNL     1      -3.626  -0.816   0.033  0.00  0.00    +0.161 C 
ATOM      5  N   UNL     1      -3.629  -2.118   0.032  0.00  0.00    -0.230 NA
ATOM      6  C   UNL     1      -4.712  -2.941   0.054  0.00  0.00    +0.044 C 
ATOM      7  C   UNL     1      -5.934  -2.574  -0.288  0.00  0.00    -0.032 C 
ATOM      8  C   UNL     1      -7.131  -3.493  -0.196  0.00  0.00    +0.034 C 
ATOM      9  C   UNL     1      -6.707  -4.957  -0.162  0.00  0.00    +0.005 C 
ATOM     10  C   UNL     1      -5.635  -5.107   0.926  0.00  0.00    +0.006 C 
ATOM     11  C   UNL     1      -4.389  -4.366   0.459  0.00  0.00    +0.055 C 
ATOM     12  C   UNL     1      -6.231  -1.186  -0.830  0.00  0.00    +0.047 C 
ATOM     13  S   UNL     1      -5.189   0.016   0.053  0.00  0.00    -0.079 S 
ATOM     14  C   UNL     1      -5.918  -1.148  -2.324  0.00  0.00    +0.022 C 
ATOM     15  C   UNL     1      -6.228   0.246  -2.876  0.00  0.00    +0.002 C 
ATOM     16  C   UNL     1      -7.706   0.567  -2.648  0.00  0.00    +0.000 C 
ATOM     17  C   UNL     1      -8.011   0.536  -1.149  0.00  0.00    +0.002 C 
ATOM     18  C   UNL     1      -7.704  -0.858  -0.596  0.00  0.00    +0.022 C 
ATOM     19  H   UNL     1      -2.459   0.862   0.031  0.00  0.00    +0.157 HD
ENDROOT
BRANCH   1  25
ATOM     20  C   UNL     1      -0.017   1.392   0.010  0.00  0.00    +0.013 A 
ATOM     21  C   UNL     1       1.170   2.096   0.002  0.00  0.00    +0.007 A 
ATOM     22  C   UNL     1       2.376   1.422  -0.013  0.00  0.00    -0.017 A 
ATOM     23  C   UNL     1       2.401   0.034  -0.021  0.00  0.00    -0.016 A 
ATOM     24  C   UNL     1       1.224  -0.680  -0.014  0.00  0.00    +0.019 A 
ATOM     25  C   UNL     1       0.002  -0.004   0.002  0.00  0.00    +0.037 A 
ATOM     26  C   UNL     1       3.852  -0.387  -0.038  0.00  0.00    +0.195 C 
ATOM     27  O   UNL     1       4.596   0.771  -0.461  0.00  0.00    -0.371 OA
ATOM     28  C   UNL     1       3.811   1.896  -0.025  0.00  0.00    +0.195 C 
ENDBRANCH   1  25
TORSDOF 1
