REMARK  Name = ZINC03464793
REMARK  5 active torsions:
REMARK  status: ('A' for Active; 'I' for Inactive)
REMARK    1  A    between atoms: C_1  and  C_2
REMARK    2  A    between atoms: C_7  and  N_8
REMARK    3  A    between atoms: C_9  and  C_11
REMARK    4  A    between atoms: C_11  and  N_12
REMARK    5  A    between atoms: C_20  and  C_22
REMARK                            x       y       z     vdW  Elec       q    Type
REMARK                         _______ _______ _______ _____ _____    ______ ____
ROOT
ATOM      1  N   UNL     1      -3.429  -2.497  -0.306  0.00  0.00    -0.215 N 
ATOM      2  C   UNL     1      -3.247  -3.150  -1.472  0.00  0.00    +0.247 C 
ATOM      3  O   UNL     1      -3.282  -2.680  -2.589  0.00  0.00    -0.273 OA
ATOM      4  C   UNL     1      -2.985  -4.589  -1.093  0.00  0.00    +0.115 C 
ATOM      5  C   UNL     1      -1.598  -5.022  -1.554  0.00  0.00    +0.035 C 
ATOM      6  C   UNL     1      -1.529  -4.981  -3.082  0.00  0.00    +0.003 C 
ATOM      7  C   UNL     1      -2.593  -5.914  -3.665  0.00  0.00    +0.000 C 
ATOM      8  C   UNL     1      -3.980  -5.452  -3.214  0.00  0.00    +0.006 C 
ATOM      9  C   UNL     1      -4.059  -5.495  -1.686  0.00  0.00    +0.018 C 
ATOM     10  C   UNL     1      -5.439  -5.013  -1.233  0.00  0.00    +0.010 C 
ATOM     11  N   UNL     1      -3.064  -4.591   0.374  0.00  0.00    -0.285 N 
ATOM     12  C   UNL     1      -3.327  -3.323   0.743  0.00  0.00    +0.310 C 
ATOM     13  O   UNL     1      -3.457  -2.968   1.898  0.00  0.00    -0.252 OA
ATOM     14  H   UNL     1      -2.949  -5.355   0.961  0.00  0.00    +0.151 HD
ENDROOT
BRANCH   1  15
ATOM     15  C   UNL     1      -3.711  -1.063  -0.200  0.00  0.00    +0.214 C 
BRANCH  15  17
ATOM     16  N   UNL     1      -2.428   1.040   0.020  0.00  0.00    -0.284 N 
ATOM     17  C   UNL     1      -2.414  -0.303  -0.089  0.00  0.00    +0.235 C 
ATOM     18  O   UNL     1      -1.359  -0.900  -0.097  0.00  0.00    -0.274 OA
ATOM     19  H   UNL     1      -3.271   1.511   0.107  0.00  0.00    +0.155 HD
BRANCH  16  26
ATOM     20  C   UNL     1      -2.364   3.586   1.289  0.00  0.00    +0.046 C 
ATOM     21  C   UNL     1      -1.150   3.002   0.614  0.00  0.00    -0.028 A 
ATOM     22  C   UNL     1       0.037   3.707   0.595  0.00  0.00    +0.020 A 
ATOM     23  C   UNL     1       1.152   3.172  -0.024  0.00  0.00    +0.018 A 
ATOM     24  C   UNL     1       1.082   1.928  -0.626  0.00  0.00    +0.017 A 
ATOM     25  C   UNL     1      -0.103   1.218  -0.610  0.00  0.00    +0.024 A 
ATOM     26  C   UNL     1      -1.225   1.755   0.006  0.00  0.00    +0.036 A 
ATOM     27 BR   UNL     1       2.776   4.141  -0.048  0.00  0.00    -0.050 Br
ENDBRANCH  16  26
ENDBRANCH  15  17
ENDBRANCH   1  15
TORSDOF 3
