REMARK  Name = ZINC19393731
REMARK  8 active torsions:
REMARK  status: ('A' for Active; 'I' for Inactive)
REMARK    1  A    between atoms: C_1  and  C_2
REMARK    2  A    between atoms: C_3  and  N_23
REMARK    3  A    between atoms: C_7  and  N_8
REMARK    4  A    between atoms: C_9  and  C_11
REMARK    5  A    between atoms: C_11  and  C_13
REMARK    6  A    between atoms: C_11  and  O_14
REMARK    7  A    between atoms: O_14  and  C_15
REMARK    8  A    between atoms: C_15  and  C_16
REMARK                            x       y       z     vdW  Elec       q    Type
REMARK                         _______ _______ _______ _____ _____    ______ ____
ROOT
ATOM      1  N   UNL     1      -0.011   0.966   0.007  0.00  0.00    -0.283 N 
ATOM      2  C   UNL     1      -1.126   1.723   0.016  0.00  0.00    +0.246 C 
ATOM      3  O   UNL     1      -1.040   2.929  -0.076  0.00  0.00    -0.273 OA
ATOM      4  H   UNL     1      -0.091  -0.131   0.021  0.00  0.00    +0.155 HD
ENDROOT
BRANCH   1  11
ATOM      5  C   UNL     1       2.114  -0.282   1.426  0.00  0.00    +0.047 C 
ATOM      6  C   UNL     1       2.312   0.999   0.659  0.00  0.00    -0.009 A 
ATOM      7  C   UNL     1       3.562   1.604   0.626  0.00  0.00    +0.029 A 
ATOM      8  C   UNL     1       3.739   2.789  -0.077  0.00  0.00    +0.023 A 
ATOM      9  C   UNL     1       2.676   3.363  -0.747  0.00  0.00    +0.004 A 
ATOM     10  C   UNL     1       1.433   2.760  -0.721  0.00  0.00    +0.024 A 
ATOM     11  C   UNL     1       1.248   1.575  -0.019  0.00  0.00    +0.038 A 
BRANCH   7  12
ATOM     12  N   UNL     1       4.637   1.024   1.303  0.00  0.00    -0.358 N 
ATOM     13  H   UNL     1       5.627   1.504   1.276  0.00  0.00    +0.142 HD
ATOM     14  H   UNL     1       4.495   0.088   1.863  0.00  0.00    +0.142 HD
ENDBRANCH   7  12
ENDBRANCH   1  11
BRANCH   2  15
ATOM     15  C   UNL     1      -2.479   1.071   0.141  0.00  0.00    +0.201 C 
ATOM     16  C   UNL     1      -2.745   0.208  -1.095  0.00  0.00    +0.048 C 
BRANCH  15  17
ATOM     17  O   UNL     1      -3.486   2.079   0.243  0.00  0.00    -0.365 OA
BRANCH  17  18
ATOM     18  C   UNL     1      -4.629   1.684   1.005  0.00  0.00    +0.192 C 
BRANCH  18  19
ATOM     19  C   UNL     1      -5.636   2.835   1.048  0.00  0.00    +0.144 C 
ATOM     20  C   UNL     1      -6.802   2.459   1.966  0.00  0.00    +0.034 C 
ATOM     21  C   UNL     1      -7.835   3.590   1.956  0.00  0.00    +0.005 C 
ATOM     22  C   UNL     1      -8.287   3.842   0.515  0.00  0.00    +0.028 C 
ATOM     23  C   UNL     1      -7.063   4.165  -0.347  0.00  0.00    +0.160 C 
ATOM     24  O   UNL     1      -6.130   3.086  -0.269  0.00  0.00    -0.374 OA
ENDBRANCH  18  19
ENDBRANCH  17  18
ENDBRANCH  15  17
ENDBRANCH   2  15
TORSDOF 6
