REMARK  Name = ZINC37294638
REMARK  6 active torsions:
REMARK  status: ('A' for Active; 'I' for Inactive)
REMARK    1  A    between atoms: C_1  and  C_2
REMARK    2  A    between atoms: C_2  and  C_3
REMARK    3  A    between atoms: C_9  and  N_11
REMARK    4  A    between atoms: N_11  and  C_12
REMARK    5  A    between atoms: C_12  and  C_14
REMARK    6  A    between atoms: C_12  and  C_15
REMARK                            x       y       z     vdW  Elec       q    Type
REMARK                         _______ _______ _______ _____ _____    ______ ____
ROOT
ATOM      1  N   UNL     1      -0.488  -2.625  -1.133  0.00  0.00    +0.385 N 
ATOM      2  H   UNL     1      -0.991  -2.238  -0.349  0.00  0.00    -0.085 HD
ATOM      3  H   UNL     1      -0.991  -2.430  -1.986  0.00  0.00    -0.085 HD
ENDROOT
BRANCH   1   9
ATOM      4  C   UNL     1       0.718  -0.497  -1.257  0.00  0.00    -0.025 C 
ATOM      5  C   UNL     1      -0.089  -0.097  -2.493  0.00  0.00    +0.002 C 
ATOM      6  C   UNL     1       0.627  -0.590  -3.752  0.00  0.00    +0.000 C 
ATOM      7  C   UNL     1       0.758  -2.114  -3.700  0.00  0.00    -0.002 C 
ATOM      8  C   UNL     1       1.565  -2.514  -2.464  0.00  0.00    -0.015 C 
ATOM      9  C   UNL     1       0.849  -2.021  -1.205  0.00  0.00    -0.068 C 
BRANCH   4  11
ATOM     10  C   UNL     1      -0.019   1.526   0.010  0.00  0.00    +0.004 C 
ATOM     11  C   UNL     1       0.002  -0.004   0.002  0.00  0.00    -0.002 C 
ENDBRANCH   4  11
ENDBRANCH   1   9
BRANCH   1  12
ATOM     12  C   UNL     1      -0.360  -4.079  -0.963  0.00  0.00    -0.042 C 
ATOM     13  C   UNL     1       0.293  -4.378   0.388  0.00  0.00    -0.009 C 
BRANCH  12  14
ATOM     14  C   UNL     1      -1.726  -4.713  -1.013  0.00  0.00    -0.042 A 
ATOM     15  C   UNL     1      -2.853  -3.944  -0.787  0.00  0.00    +0.005 A 
ATOM     16  C   UNL     1      -4.107  -4.524  -0.833  0.00  0.00    +0.022 A 
ATOM     17  C   UNL     1      -4.235  -5.875  -1.104  0.00  0.00    +0.061 A 
ATOM     18  C   UNL     1      -3.107  -6.645  -1.330  0.00  0.00    +0.078 A 
ATOM     19  C   UNL     1      -1.852  -6.062  -1.290  0.00  0.00    +0.062 A 
ATOM     20 CL   UNL     1      -0.438  -7.025  -1.581  0.00  0.00    -0.082 Cl
ATOM     21 CL   UNL     1      -3.267  -8.340  -1.670  0.00  0.00    -0.081 Cl
ATOM     22 CL   UNL     1      -5.810  -6.603  -1.159  0.00  0.00    -0.082 Cl
ENDBRANCH  12  14
ENDBRANCH   1  12
TORSDOF 4
