REMARK  Name = ZINC34954263
REMARK  8 active torsions:
REMARK  status: ('A' for Active; 'I' for Inactive)
REMARK    1  A    between atoms: C_1  and  C_2
REMARK    2  A    between atoms: C_2  and  C_3
REMARK    3  A    between atoms: C_2  and  C_4
REMARK    4  A    between atoms: N_9  and  C_23
REMARK    5  A    between atoms: C_13  and  C_21
REMARK    6  A    between atoms: C_14  and  N_20
REMARK    7  A    between atoms: C_15  and  C_16
REMARK    8  A    between atoms: C_15  and  C_18
REMARK                            x       y       z     vdW  Elec       q    Type
REMARK                         _______ _______ _______ _____ _____    ______ ____
ROOT
ATOM      1  C   UNL     1      -1.457  -0.462  -0.039  0.00  0.00    +0.040 C 
ATOM      2  C   UNL     1      -2.109   0.019  -1.337  0.00  0.00    +0.040 C 
ATOM      3  C   UNL     1      -2.267   1.523  -1.364  0.00  0.00    +0.093 C 
ATOM      4  N   UNL     1      -1.205   2.172  -2.138  0.00  0.00    -0.301 NA
ATOM      5  C   UNL     1      -1.224   1.691  -3.530  0.00  0.00    +0.111 C 
ATOM      6  C   UNL     1      -0.925   0.213  -3.510  0.00  0.00    -0.007 C 
ATOM      7  C   UNL     1      -1.304  -0.511  -2.488  0.00  0.00    -0.027 C 
ATOM      8  C   UNL     1      -0.893  -1.936  -2.428  0.00  0.00    +0.074 C 
ATOM      9  C   UNL     1      -0.989  -2.605  -1.251  0.00  0.00    +0.054 C 
ATOM     10  C   UNL     1      -1.516  -1.989   0.012  0.00  0.00    +0.184 C 
ATOM     11  C   UNL     1      -1.333   3.634  -2.083  0.00  0.00    +0.105 C 
ENDROOT
BRANCH   1  13
ATOM     12  C   UNL     1       0.687  -0.363  -1.318  0.00  0.00    +0.007 C 
ATOM     13  C   UNL     1       0.002  -0.004   0.002  0.00  0.00    -0.011 C 
ATOM     14  C   UNL     1       0.056   1.511   0.208  0.00  0.00    +0.007 C 
ENDBRANCH   1  13
BRANCH   9  15
ATOM     15  N   UNL     1      -0.583  -3.910  -1.213  0.00  0.00    -0.358 N 
ATOM     16  H   UNL     1      -0.237  -4.334  -2.014  0.00  0.00    +0.142 HD
ATOM     17  H   UNL     1      -0.640  -4.412  -0.385  0.00  0.00    +0.142 HD
ENDBRANCH   9  15
BRANCH  10  18
ATOM     18  C   UNL     1      -0.714  -2.462   1.152  0.00  0.00    +0.091 C 
ATOM     19  N   UNL     1      -0.095  -2.827   2.032  0.00  0.00    -0.195 NA
ENDBRANCH  10  18
BRANCH  10  20
ATOM     20  C   UNL     1      -2.914  -2.409   0.204  0.00  0.00    +0.091 C 
ATOM     21  N   UNL     1      -3.992  -2.733   0.352  0.00  0.00    -0.195 NA
ENDBRANCH  10  20
BRANCH   8  22
ATOM     22  C   UNL     1      -0.401  -2.598  -3.599  0.00  0.00    +0.101 C 
ATOM     23  N   UNL     1      -0.011  -3.123  -4.528  0.00  0.00    -0.191 NA
ENDBRANCH   8  22
TORSDOF 5
