REMARK  Name = ZINC13069676
REMARK  7 active torsions:
REMARK  status: ('A' for Active; 'I' for Inactive)
REMARK    1  A    between atoms: C_1  and  C_2
REMARK    2  A    between atoms: C_4  and  C_16
REMARK    3  A    between atoms: C_5  and  C_15
REMARK    4  A    between atoms: N_6  and  C_7
REMARK    5  A    between atoms: C_16  and  C_18
REMARK    6  A    between atoms: C_18  and  N_19
REMARK    7  A    between atoms: C_27  and  C_29
REMARK                            x       y       z     vdW  Elec       q    Type
REMARK                         _______ _______ _______ _____ _____    ______ ____
ROOT
ATOM      1  C   UNL     1      -0.018   1.460   0.010  0.00  0.00    +0.183 C 
ATOM      2  O   UNL     1      -1.077   2.052   0.018  0.00  0.00    -0.290 OA
ENDROOT
BRANCH   1   6
ATOM      3  C   UNL     1       1.589  -3.375  -0.031  0.00  0.00    +0.064 C 
ATOM      4  C   UNL     1       0.731  -2.137  -0.016  0.00  0.00    +0.022 A 
ATOM      5  C   UNL     1       1.187  -0.873  -0.020  0.00  0.00    +0.034 A 
ATOM      6  C   UNL     1       0.002  -0.004   0.002  0.00  0.00    +0.040 A 
ATOM      7  C   UNL     1      -1.090  -0.852   0.008  0.00  0.00    +0.031 A 
ATOM      8  N   UNL     1      -0.636  -2.120  -0.003  0.00  0.00    -0.317 N 
ATOM      9  C   UNL     1      -2.537  -0.430   0.025  0.00  0.00    +0.064 C 
BRANCH   8  10
ATOM     10  C   UNL     1      -1.451  -3.261  -0.002  0.00  0.00    +0.048 A 
ATOM     11  C   UNL     1      -1.451  -4.116  -1.096  0.00  0.00    +0.027 A 
ATOM     12  C   UNL     1      -2.253  -5.240  -1.093  0.00  0.00    +0.023 A 
ATOM     13  C   UNL     1      -3.057  -5.515  -0.001  0.00  0.00    +0.059 A 
ATOM     14  C   UNL     1      -3.059  -4.665   1.092  0.00  0.00    +0.061 A 
ATOM     15  C   UNL     1      -2.253  -3.541   1.095  0.00  0.00    +0.047 A 
ATOM     16 CL   UNL     1      -4.068  -5.013   2.461  0.00  0.00    -0.082 Cl
ATOM     17 CL   UNL     1      -4.065  -6.929  -0.000  0.00  0.00    -0.082 Cl
ENDBRANCH   8  10
ENDBRANCH   1   6
BRANCH   1  18
ATOM     18  C   UNL     1       1.277   2.231   0.002  0.00  0.00    +0.197 C 
BRANCH  18  19
ATOM     19  N   UNL     1       0.990   3.668   0.012  0.00  0.00    -0.217 N 
ATOM     20  C   UNL     1       0.836   4.418  -1.098  0.00  0.00    +0.247 C 
ATOM     21  O   UNL     1       0.905   4.047  -2.250  0.00  0.00    -0.273 OA
ATOM     22  C   UNL     1       0.555   5.819  -0.603  0.00  0.00    +0.115 C 
ATOM     23  C   UNL     1       1.640   6.776  -1.085  0.00  0.00    +0.035 C 
ATOM     24  C   UNL     1       1.359   8.180  -0.544  0.00  0.00    +0.003 C 
ATOM     25  C   UNL     1      -0.013   8.649  -1.031  0.00  0.00    +0.000 C 
ATOM     26  C   UNL     1      -1.092   7.691  -0.522  0.00  0.00    +0.006 C 
ATOM     27  C   UNL     1      -0.821   6.285  -1.064  0.00  0.00    +0.018 C 
ATOM     28  C   UNL     1      -1.888   5.322  -0.540  0.00  0.00    +0.010 C 
ATOM     29  N   UNL     1       0.593   5.694   0.860  0.00  0.00    -0.285 N 
ATOM     30  C   UNL     1       0.853   4.400   1.125  0.00  0.00    +0.310 C 
ATOM     31  O   UNL     1       0.953   3.947   2.248  0.00  0.00    -0.252 OA
ATOM     32  H   UNL     1       0.457   6.404   1.507  0.00  0.00    +0.151 HD
ENDBRANCH  18  19
ENDBRANCH   1  18
TORSDOF 4
