REMARK  Name = ZINC39756129
REMARK  13 active torsions:
REMARK  status: ('A' for Active; 'I' for Inactive)
REMARK    1  A    between atoms: C_1  and  C_2
REMARK    2  A    between atoms: C_2  and  C_4
REMARK    3  A    between atoms: C_2  and  N_25
REMARK    4  A    between atoms: C_7  and  S_13
REMARK    5  A    between atoms: N_8  and  C_9
REMARK    6  A    between atoms: C_9  and  C_10
REMARK    7  A    between atoms: C_10  and  C_11
REMARK    8  A    between atoms: C_10  and  C_12
REMARK    9  A    between atoms: S_13  and  C_14
REMARK   10  A    between atoms: C_14  and  C_16
REMARK   11  A    between atoms: C_14  and  C_17
REMARK   12  A    between atoms: C_17  and  N_19
REMARK   13  A    between atoms: C_26  and  C_28
REMARK                            x       y       z     vdW  Elec       q    Type
REMARK                         _______ _______ _______ _____ _____    ______ ____
ROOT
ATOM      1  C   UNL     1       0.731  -0.503   1.223  0.00  0.00    +0.154 A 
ATOM      2  N   UNL     1       2.019  -0.483   1.415  0.00  0.00    -0.132 NA
ATOM      3  N   UNL     1       2.302  -0.986   2.564  0.00  0.00    -0.122 NA
ATOM      4  C   UNL     1       1.200  -1.357   3.171  0.00  0.00    +0.192 A 
ATOM      5  N   UNL     1       0.162  -1.056   2.337  0.00  0.00    -0.304 N 
ENDROOT
BRANCH   1   7
ATOM      6  C   UNL     1      -0.019   1.526   0.010  0.00  0.00    +0.036 C 
ATOM      7  C   UNL     1       0.002  -0.004   0.002  0.00  0.00    +0.138 C 
BRANCH   7   8
ATOM      8  N   UNL     1       0.688  -0.476  -1.203  0.00  0.00    -0.302 N 
ATOM      9  C   UNL     1       0.006  -0.608  -2.358  0.00  0.00    +0.245 C 
ATOM     10  O   UNL     1      -1.177  -0.335  -2.400  0.00  0.00    -0.270 OA
ATOM     11  H   UNL     1       1.632  -0.695  -1.170  0.00  0.00    +0.150 HD
BRANCH   9  12
ATOM     12  C   UNL     1       0.698  -1.085  -3.574  0.00  0.00    +0.037 A 
ATOM     13  C   UNL     1       2.056  -1.405  -3.528  0.00  0.00    +0.014 A 
ATOM     14  C   UNL     1       2.696  -1.850  -4.666  0.00  0.00    +0.021 A 
ATOM     15  C   UNL     1       1.994  -1.978  -5.853  0.00  0.00    +0.041 A 
ATOM     16  C   UNL     1       0.647  -1.662  -5.905  0.00  0.00    +0.021 A 
ATOM     17  C   UNL     1      -0.005  -1.222  -4.773  0.00  0.00    +0.014 A 
ATOM     18 CL   UNL     1       2.807  -2.538  -7.281  0.00  0.00    -0.084 Cl
ENDBRANCH   9  12
ENDBRANCH   7   8
ENDBRANCH   1   7
BRANCH   5  19
ATOM     19  C   UNL     1      -1.265  -1.282   2.582  0.00  0.00    +0.128 C 
BRANCH  19  20
ATOM     20  C   UNL     1      -1.657  -2.669   2.071  0.00  0.00    +0.003 C 
ATOM     21  C   UNL     1      -3.115  -2.954   2.438  0.00  0.00    +0.009 C 
ATOM     22  C   UNL     1      -1.496  -2.717   0.550  0.00  0.00    +0.009 C 
ENDBRANCH  19  20
ENDBRANCH   5  19
BRANCH   4  23
ATOM     23  S   UNL     1       1.081  -2.098   4.766  0.00  0.00    -0.073 S 
BRANCH  23  24
ATOM     24  C   UNL     1       2.802  -2.210   5.327  0.00  0.00    +0.139 C 
ATOM     25  C   UNL     1       3.373  -0.801   5.507  0.00  0.00    +0.029 C 
BRANCH  24  26
ATOM     26  C   UNL     1       2.855  -2.945   6.642  0.00  0.00    +0.251 C 
ATOM     27  O   UNL     1       1.856  -3.035   7.328  0.00  0.00    -0.272 OA
BRANCH  26  28
ATOM     28  N   UNL     1       3.996  -3.494   7.051  0.00  0.00    -0.158 NA
ATOM     29  C   UNL     1       4.043  -4.142   8.210  0.00  0.00    +0.146 C 
ATOM     30  N   UNL     1       5.131  -4.740   8.745  0.00  0.00    -0.325 N 
ATOM     31  C   UNL     1       5.032  -5.413  10.024  0.00  0.00    +0.114 C 
ATOM     32  C   UNL     1       3.600  -5.322  10.592  0.00  0.00    +0.095 C 
ATOM     33  S   UNL     1       2.765  -4.358   9.273  0.00  0.00    -0.092 S 
ATOM     34  H   UNL     1       5.978  -4.718   8.273  0.00  0.00    +0.148 HD
ENDBRANCH  26  28
ENDBRANCH  24  26
ENDBRANCH  23  24
ENDBRANCH   4  23
TORSDOF 9
