REMARK  Name = ZINC24940115
REMARK  11 active torsions:
REMARK  status: ('A' for Active; 'I' for Inactive)
REMARK    1  A    between atoms: C_1  and  C_2
REMARK    2  A    between atoms: C_2  and  C_3
REMARK    3  A    between atoms: C_6  and  C_9
REMARK    4  A    between atoms: C_9  and  C_11
REMARK    5  A    between atoms: C_9  and  N_29
REMARK    6  A    between atoms: C_11  and  N_12
REMARK    7  A    between atoms: C_18  and  C_25
REMARK    8  A    between atoms: C_25  and  O_27
REMARK    9  A    between atoms: O_27  and  C_28
REMARK   10  A    between atoms: N_29  and  C_30
REMARK   11  A    between atoms: N_29  and  C_31
REMARK                            x       y       z     vdW  Elec       q    Type
REMARK                         _______ _______ _______ _____ _____    ______ ____
ROOT
ATOM      1  N   UNL     1       6.103   2.597  -0.113  0.00  0.00    -0.262 N 
ATOM      2  C   UNL     1       5.901   3.864   0.309  0.00  0.00    +0.264 A 
ATOM      3  O   UNL     1       4.936   4.147   0.991  0.00  0.00    -0.267 OA
ATOM      4  C   UNL     1       6.882   4.896  -0.081  0.00  0.00    +0.063 A 
ATOM      5  C   UNL     1       6.740   6.224   0.315  0.00  0.00    +0.016 A 
ATOM      6  C   UNL     1       7.675   7.157  -0.075  0.00  0.00    +0.016 A 
ATOM      7  C   UNL     1       8.770   6.774  -0.857  0.00  0.00    +0.061 A 
ATOM      8  C   UNL     1       8.918   5.447  -1.256  0.00  0.00    +0.041 A 
ATOM      9  C   UNL     1       7.978   4.506  -0.871  0.00  0.00    +0.056 A 
ATOM     10  N   UNL     1       8.089   3.174  -1.247  0.00  0.00    -0.307 N 
ATOM     11  H   UNL     1       8.938   2.847  -1.865  0.00  0.00    +0.170 HD
ATOM     12  C   UNL     1       7.167   2.274  -0.866  0.00  0.00    +0.330 A 
ATOM     13  O   UNL     1       7.301   1.118  -1.218  0.00  0.00    -0.246 OA
ENDROOT
BRANCH   7  14
ATOM     14  C   UNL     1       9.771   7.783  -1.266  0.00  0.00    +0.339 C 
ATOM     15  O   UNL     1      10.720   7.454  -1.948  0.00  0.00    -0.245 OA
BRANCH  14  16
ATOM     16  O   UNL     1       9.630   9.066  -0.882  0.00  0.00    -0.464 OA
ATOM     17  C   UNL     1      10.651  10.001  -1.320  0.00  0.00    +0.280 C 
ENDBRANCH  14  16
ENDBRANCH   7  14
BRANCH   1  18
ATOM     18  C   UNL     1       5.144   1.554   0.259  0.00  0.00    +0.119 C 
BRANCH  18  19
ATOM     19  C   UNL     1       5.498   1.005   1.643  0.00  0.00    -0.018 C 
BRANCH  19  23
ATOM     20  C   UNL     1       9.335  -0.867   1.493  0.00  0.00    -0.048 A 
ATOM     21  C   UNL     1       9.210   0.415   1.995  0.00  0.00    +0.004 A 
ATOM     22  C   UNL     1       7.968   1.021   2.043  0.00  0.00    +0.002 A 
ATOM     23  C   UNL     1       6.851   0.345   1.589  0.00  0.00    -0.059 A 
ATOM     24  C   UNL     1       6.975  -0.939   1.092  0.00  0.00    +0.002 A 
ATOM     25  C   UNL     1       8.218  -1.543   1.039  0.00  0.00    +0.004 A 
BRANCH  20  27
ATOM     26  C   UNL     1      10.934  -2.289   2.744  0.00  0.00    +0.009 C 
ATOM     27  C   UNL     1      10.688  -1.527   1.441  0.00  0.00    +0.032 C 
ENDBRANCH  20  27
ENDBRANCH  19  23
BRANCH  19  28
ATOM     28  N   UNL     1       4.488   0.019   2.051  0.00  0.00    +0.382 N 
ATOM     29  C   UNL     1       4.787  -0.518   3.385  0.00  0.00    -0.096 C 
ATOM     30  C   UNL     1       3.139   0.599   2.007  0.00  0.00    -0.096 C 
ATOM     31  H   UNL     1       4.521  -0.815   1.335  0.00  0.00    -0.082 HD
ENDBRANCH  19  28
ENDBRANCH  18  19
ENDBRANCH   1  18
TORSDOF 7
