REMARK  Name = ZINC30882074
REMARK  14 active torsions:
REMARK  status: ('A' for Active; 'I' for Inactive)
REMARK    1  A    between atoms: C_1  and  C_2
REMARK    2  A    between atoms: C_4  and  C_27
REMARK    3  A    between atoms: C_6  and  C_24
REMARK    4  A    between atoms: C_9  and  C_11
REMARK    5  A    between atoms: C_11  and  C_12
REMARK    6  A    between atoms: N_14  and  C_15
REMARK    7  A    between atoms: C_15  and  C_16
REMARK    8  A    between atoms: C_19  and  C_22
REMARK    9  A    between atoms: C_24  and  C_25
REMARK   10  A    between atoms: C_24  and  C_26
REMARK   11  A    between atoms: C_27  and  N_28
REMARK   12  A    between atoms: C_29  and  C_31
REMARK   13  A    between atoms: C_31  and  C_32
REMARK   14  A    between atoms: C_32  and  C_33
REMARK                            x       y       z     vdW  Elec       q    Type
REMARK                         _______ _______ _______ _____ _____    ______ ____
ROOT
ATOM      1  C   UNL     1       7.860   2.768  -1.305  0.00  0.00    +0.039 C 
ATOM      2  C   UNL     1       7.840   2.973  -2.797  0.00  0.00    -0.073 C 
ATOM      3  C   UNL     1       8.597   2.215  -3.524  0.00  0.00    -0.022 C 
ATOM      4  C   UNL     1       8.691   2.307  -5.019  0.00  0.00    +0.032 C 
ATOM      5  C   UNL     1       7.499   3.087  -5.576  0.00  0.00    +0.000 C 
ATOM      6  C   UNL     1       7.358   4.391  -4.780  0.00  0.00    +0.012 C 
ATOM      7  C   UNL     1       6.944   4.043  -3.349  0.00  0.00    +0.023 C 
ENDROOT
BRANCH   5   8
ATOM      8  C   UNL     1       7.738   3.409  -7.052  0.00  0.00    -0.013 C 
ATOM      9  C   UNL     1       6.494   4.080  -7.637  0.00  0.00    +0.007 C 
ATOM     10  C   UNL     1       8.935   4.354  -7.181  0.00  0.00    +0.007 C 
ENDBRANCH   5   8
BRANCH   7  11
ATOM     11  C   UNL     1       5.497   3.544  -3.347  0.00  0.00    +0.103 C 
BRANCH  11  12
ATOM     12  C   UNL     1       4.580   4.664  -3.765  0.00  0.00    +0.214 C 
ATOM     13  O   UNL     1       5.024   5.778  -3.941  0.00  0.00    -0.276 OA
ATOM     14  N   UNL     1       3.265   4.426  -3.944  0.00  0.00    -0.311 N 
ATOM     15  H   UNL     1       2.862   3.415  -3.784  0.00  0.00    +0.149 HD
BRANCH  14  16
ATOM     16  C   UNL     1       2.373   5.514  -4.350  0.00  0.00    +0.139 C 
BRANCH  16  17
ATOM     17  C   UNL     1       0.966   4.989  -4.479  0.00  0.00    -0.030 A 
ATOM     18  C   UNL     1       0.528   4.485  -5.691  0.00  0.00    +0.006 A 
ATOM     19  C   UNL     1      -0.758   4.002  -5.816  0.00  0.00    +0.019 A 
ATOM     20  C   UNL     1      -1.619   4.023  -4.716  0.00  0.00    +0.052 A 
ATOM     21  C   UNL     1      -1.169   4.533  -3.497  0.00  0.00    +0.019 A 
ATOM     22  C   UNL     1       0.119   5.012  -3.386  0.00  0.00    +0.006 A 
BRANCH  20  23
ATOM     23  C   UNL     1      -2.955   3.523  -4.839  0.00  0.00    +0.099 C 
ATOM     24  N   UNL     1      -4.015   3.127  -4.936  0.00  0.00    -0.191 NA
ENDBRANCH  20  23
ENDBRANCH  16  17
ENDBRANCH  14  16
ENDBRANCH  11  12
ENDBRANCH   7  11
BRANCH   4  25
ATOM     25  C   UNL     1       8.698   0.897  -5.615  0.00  0.00    +0.112 C 
BRANCH  25  26
ATOM     26  N   UNL     1       9.885   0.176  -5.150  0.00  0.00    -0.315 N 
ATOM     27  C   UNL     1      10.102  -1.093  -5.549  0.00  0.00    +0.214 C 
ATOM     28  O   UNL     1       9.314  -1.637  -6.293  0.00  0.00    -0.276 OA
ATOM     29  H   UNL     1      10.600   0.670  -4.475  0.00  0.00    +0.149 HD
BRANCH  27  30
ATOM     30  C   UNL     1      11.323  -1.835  -5.071  0.00  0.00    +0.107 C 
BRANCH  30  31
ATOM     31  C   UNL     1      11.330  -3.244  -5.667  0.00  0.00    +0.134 C 
BRANCH  31  32
ATOM     32  C   UNL     1      12.551  -3.986  -5.188  0.00  0.00    +0.356 C 
ATOM     33  O   UNL     1      13.336  -3.443  -4.447  0.00  0.00    -0.246 OA
ATOM     34  O   UNL     1      12.767  -5.250  -5.586  0.00  0.00    -0.246 OA
ENDBRANCH  31  32
ENDBRANCH  30  31
ENDBRANCH  27  30
ENDBRANCH  25  26
ENDBRANCH   4  25
TORSDOF 11
