REMARK  Name = ZINC00682818
REMARK  4 active torsions:
REMARK  status: ('A' for Active; 'I' for Inactive)
REMARK    1  A    between atoms: C_1  and  C_2
REMARK    2  A    between atoms: C_3  and  C_13
REMARK    3  A    between atoms: C_4  and  C_7
REMARK    4  A    between atoms: N_15  and  N_16
REMARK                            x       y       z     vdW  Elec       q    Type
REMARK                         _______ _______ _______ _____ _____    ______ ____
ROOT
ATOM      1  C   UNL     1      -2.502  -0.395   0.013  0.00  0.00    +0.269 C 
ATOM      2  O   UNL     1      -3.090  -0.214  -1.036  0.00  0.00    -0.268 OA
ATOM      3  N   UNL     1      -3.141  -0.208   1.185  0.00  0.00    -0.202 N 
ATOM      4  H   UNL     1      -2.672  -0.353   2.021  0.00  0.00    +0.178 HD
ENDROOT
BRANCH   3   5
ATOM      5  N   UNL     1      -4.483   0.195   1.194  0.00  0.00    -0.174 NA
ATOM      6  C   UNL     1      -5.105   0.377   2.335  0.00  0.00    +0.153 C 
ATOM      7  C   UNL     1      -6.512   0.793   2.538  0.00  0.00    +0.029 A 
ATOM      8  C   UNL     1      -7.549   1.101   1.666  0.00  0.00    +0.027 A 
ATOM      9  C   UNL     1      -8.783   1.466   2.170  0.00  0.00    +0.019 A 
ATOM     10  C   UNL     1      -8.983   1.523   3.539  0.00  0.00    +0.017 A 
ATOM     11  C   UNL     1      -7.959   1.218   4.413  0.00  0.00    +0.025 A 
ATOM     12  C   UNL     1      -6.711   0.849   3.924  0.00  0.00    +0.043 A 
ATOM     13  N   UNL     1      -5.531   0.499   4.572  0.00  0.00    -0.280 N 
ATOM     14  C   UNL     1      -4.557   0.206   3.695  0.00  0.00    +0.269 C 
ATOM     15  O   UNL     1      -3.422  -0.137   3.972  0.00  0.00    -0.268 OA
ATOM     16 BR   UNL     1     -10.199   1.887   0.989  0.00  0.00    -0.050 Br
ATOM     17  H   UNL     1      -5.427   0.466   5.536  0.00  0.00    +0.155 HD
ENDBRANCH   3   5
BRANCH   1  20
ATOM     18  C   UNL     1      -0.018   1.503   0.010  0.00  0.00    +0.090 C 
ATOM     19  C   UNL     1       0.002  -0.004   0.002  0.00  0.00    +0.147 A 
ATOM     20  C   UNL     1      -1.093  -0.819   0.003  0.00  0.00    +0.108 A 
ATOM     21  C   UNL     1      -0.592  -2.202  -0.008  0.00  0.00    +0.126 A 
ATOM     22  N   UNL     1       0.715  -2.133  -0.014  0.00  0.00    -0.077 NA
ATOM     23  O   UNL     1       1.095  -0.772  -0.013  0.00  0.00    -0.359 OA
BRANCH  21  24
ATOM     24  C   UNL     1      -1.412  -3.438  -0.011  0.00  0.00    +0.004 A 
ATOM     25  C   UNL     1      -2.621  -3.478   0.681  0.00  0.00    +0.010 A 
ATOM     26  C   UNL     1      -3.379  -4.630   0.675  0.00  0.00    +0.001 A 
ATOM     27  C   UNL     1      -2.942  -5.745  -0.018  0.00  0.00    +0.000 A 
ATOM     28  C   UNL     1      -1.743  -5.712  -0.706  0.00  0.00    +0.001 A 
ATOM     29  C   UNL     1      -0.979  -4.562  -0.712  0.00  0.00    +0.010 A 
ENDBRANCH  21  24
ENDBRANCH   1  20
TORSDOF 3
