REMARK  Name = ZINC23325997
REMARK  11 active torsions:
REMARK  status: ('A' for Active; 'I' for Inactive)
REMARK    1  A    between atoms: C_1  and  C_2
REMARK    2  A    between atoms: C_6  and  C_8
REMARK    3  A    between atoms: C_8  and  N_9
REMARK    4  A    between atoms: N_12  and  C_15
REMARK    5  A    between atoms: C_15  and  N_16
REMARK    6  A    between atoms: C_19  and  C_23
REMARK    7  A    between atoms: C_19  and  C_24
REMARK    8  A    between atoms: C_24  and  C_25
REMARK    9  A    between atoms: C_25  and  C_26
REMARK   10  A    between atoms: C_29  and  O_32
REMARK   11  A    between atoms: O_32  and  C_33
REMARK                            x       y       z     vdW  Elec       q    Type
REMARK                         _______ _______ _______ _____ _____    ______ ____
ROOT
ATOM      1  N   UNL     1       2.168   8.138  -5.381  0.00  0.00    -0.211 N 
ATOM      2  C   UNL     1       2.912   7.199  -5.998  0.00  0.00    +0.247 C 
ATOM      3  O   UNL     1       2.584   6.063  -6.263  0.00  0.00    -0.273 OA
ATOM      4  C   UNL     1       4.245   7.859  -6.289  0.00  0.00    +0.110 C 
ATOM      5  N   UNL     1       4.082   9.221  -5.753  0.00  0.00    -0.285 N 
ATOM      6  C   UNL     1       2.837   9.289  -5.248  0.00  0.00    +0.310 C 
ATOM      7  O   UNL     1       2.373  10.284  -4.727  0.00  0.00    -0.252 OA
ATOM      8  C   UNL     1       5.378   7.125  -5.569  0.00  0.00    +0.041 C 
ATOM      9  H   UNL     1       4.910   9.942  -5.821  0.00  0.00    +0.151 HD
ENDROOT
BRANCH   1  10
ATOM     10  C   UNL     1       0.794   7.927  -4.918  0.00  0.00    +0.204 C 
BRANCH  10  14
ATOM     11  N   UNL     1      -0.090   5.845  -1.350  0.00  0.00    +0.384 N 
ATOM     12  C   UNL     1       1.163   5.519  -2.045  0.00  0.00    -0.063 C 
ATOM     13  C   UNL     1       1.072   5.983  -3.501  0.00  0.00    +0.067 C 
ATOM     14  N   UNL     1       0.814   7.429  -3.536  0.00  0.00    -0.290 NA
ATOM     15  C   UNL     1      -0.440   7.755  -2.841  0.00  0.00    +0.067 C 
ATOM     16  C   UNL     1      -0.348   7.291  -1.386  0.00  0.00    -0.063 C 
ATOM     17  H   UNL     1      -0.912   5.340  -1.879  0.00  0.00    -0.081 HD
BRANCH  11  18
ATOM     18  C   UNL     1      -0.070   5.347   0.032  0.00  0.00    -0.043 C 
BRANCH  18  24
ATOM     19  C   UNL     1      -2.514   0.980   0.019  0.00  0.00    +0.044 C 
ATOM     20  C   UNL     1      -1.219   1.751   0.017  0.00  0.00    -0.050 A 
ATOM     21  C   UNL     1      -0.013   1.076   0.008  0.00  0.00    +0.003 A 
ATOM     22  C   UNL     1       1.175   1.783   0.000  0.00  0.00    +0.000 A 
ATOM     23  C   UNL     1       1.156   3.166   0.008  0.00  0.00    +0.002 A 
ATOM     24  C   UNL     1      -0.050   3.840   0.023  0.00  0.00    -0.064 A 
ATOM     25  C   UNL     1      -1.238   3.133   0.030  0.00  0.00    +0.005 A 
ENDBRANCH  18  24
ENDBRANCH  11  18
ENDBRANCH  10  14
ENDBRANCH   1  10
BRANCH   4  26
ATOM     26  C   UNL     1       4.506   7.902  -7.796  0.00  0.00    +0.039 C 
BRANCH  26  27
ATOM     27  C   UNL     1       5.856   8.572  -8.061  0.00  0.00    +0.038 C 
BRANCH  27  28
ATOM     28  C   UNL     1       6.113   8.614  -9.545  0.00  0.00    -0.047 A 
ATOM     29  C   UNL     1       6.778   7.569 -10.161  0.00  0.00    +0.007 A 
ATOM     30  C   UNL     1       7.010   7.603 -11.522  0.00  0.00    +0.046 A 
ATOM     31  C   UNL     1       6.585   8.692 -12.270  0.00  0.00    +0.127 A 
ATOM     32  C   UNL     1       5.924   9.741 -11.649  0.00  0.00    +0.046 A 
ATOM     33  C   UNL     1       5.689   9.700 -10.289  0.00  0.00    +0.007 A 
BRANCH  31  34
ATOM     34  O   UNL     1       6.817   8.730 -13.609  0.00  0.00    -0.434 OA
BRANCH  34  35
ATOM     35  C   UNL     1       7.503   7.614 -14.180  0.00  0.00    +0.541 C 
ATOM     36  F   UNL     1       8.763   7.487 -13.584  0.00  0.00    -0.166 F 
ATOM     37  F   UNL     1       6.763   6.448 -13.960  0.00  0.00    -0.166 F 
ENDBRANCH  34  35
ENDBRANCH  31  34
ENDBRANCH  27  28
ENDBRANCH  26  27
ENDBRANCH   4  26
TORSDOF 9
