REMARK  Name = ZINC24946293
REMARK  9 active torsions:
REMARK  status: ('A' for Active; 'I' for Inactive)
REMARK    1  A    between atoms: C_1  and  O_2
REMARK    2  A    between atoms: O_2  and  C_3
REMARK    3  A    between atoms: C_3  and  C_4
REMARK    4  A    between atoms: C_4  and  N_5
REMARK    5  A    between atoms: C_6  and  C_8
REMARK    6  A    between atoms: C_13  and  N_14
REMARK    7  A    between atoms: C_15  and  C_17
REMARK    8  A    between atoms: C_17  and  N_18
REMARK    9  A    between atoms: C_26  and  C_28
REMARK                            x       y       z     vdW  Elec       q    Type
REMARK                         _______ _______ _______ _____ _____    ______ ____
ROOT
ATOM      1  N   UNL     1      -3.804   2.926   0.356  0.00  0.00    -0.286 N 
ATOM      2  C   UNL     1      -4.986   3.535   0.577  0.00  0.00    +0.201 C 
ATOM      3  O   UNL     1      -5.954   2.881   0.900  0.00  0.00    -0.278 OA
ATOM      4  H   UNL     1      -2.907   3.526   0.141  0.00  0.00    +0.155 HD
ENDROOT
BRANCH   1  10
ATOM      5  C   UNL     1      -2.559   0.917   0.890  0.00  0.00    +0.058 A 
ATOM      6  C   UNL     1      -2.483  -0.477   0.924  0.00  0.00    +0.015 A 
ATOM      7  C   UNL     1      -3.547  -1.234   0.486  0.00  0.00    +0.001 A 
ATOM      8  C   UNL     1      -4.691  -0.620   0.003  0.00  0.00    +0.002 A 
ATOM      9  C   UNL     1      -4.779   0.757  -0.042  0.00  0.00    +0.024 A 
ATOM     10  C   UNL     1      -3.718   1.536   0.400  0.00  0.00    +0.045 A 
BRANCH   5  12
ATOM     11  N   UNL     1      -0.352   1.138   1.922  0.00  0.00    -0.309 N 
ATOM     12  C   UNL     1      -1.424   1.734   1.362  0.00  0.00    +0.246 C 
ATOM     13  O   UNL     1      -1.456   2.944   1.247  0.00  0.00    -0.270 OA
ATOM     14  H   UNL     1      -0.325   0.044   2.030  0.00  0.00    +0.149 HD
BRANCH  11  15
ATOM     15  C   UNL     1       0.777   1.949   2.385  0.00  0.00    +0.132 C 
BRANCH  15  16
ATOM     16  C   UNL     1       1.856   1.034   2.968  0.00  0.00    +0.178 C 
BRANCH  16  18
ATOM     17  C   UNL     1       3.407  -0.694   2.374  0.00  0.00    +0.194 C 
ATOM     18  O   UNL     1       2.386   0.203   1.933  0.00  0.00    -0.381 OA
ENDBRANCH  16  18
ENDBRANCH  15  16
ENDBRANCH  11  15
ENDBRANCH   5  12
ENDBRANCH   1  10
BRANCH   2  19
ATOM     19  C   UNL     1      -5.104   5.029   0.421  0.00  0.00    +0.020 C 
BRANCH  19  20
ATOM     20  N   UNL     1      -6.513   5.425   0.544  0.00  0.00    +0.393 N 
ATOM     21  C   UNL     1      -7.347   4.714  -0.436  0.00  0.00    -0.072 C 
ATOM     22  C   UNL     1      -8.698   5.439  -0.556  0.00  0.00    +0.024 C 
ATOM     23  C   UNL     1      -9.189   5.717   0.828  0.00  0.00    -0.010 A 
ATOM     24  C   UNL     1      -8.465   5.639   1.979  0.00  0.00    -0.047 A 
ATOM     25  C   UNL     1      -9.139   5.943   3.160  0.00  0.00    +0.010 A 
ATOM     26  C   UNL     1     -10.446   6.295   3.122  0.00  0.00    +0.045 A 
ATOM     27  S   UNL     1     -10.800   6.211   1.372  0.00  0.00    -0.101 S 
ATOM     28  C   UNL     1      -6.995   5.236   1.918  0.00  0.00    -0.005 C 
ATOM     29  H   UNL     1      -6.591   6.499   0.319  0.00  0.00    -0.080 HD
BRANCH  28  30
ATOM     30  C   UNL     1      -6.194   6.100   2.858  0.00  0.00    -0.057 A 
ATOM     31  C   UNL     1      -5.832   7.380   2.482  0.00  0.00    +0.002 A 
ATOM     32  C   UNL     1      -5.102   8.174   3.346  0.00  0.00    +0.000 A 
ATOM     33  C   UNL     1      -4.724   7.684   4.582  0.00  0.00    +0.000 A 
ATOM     34  C   UNL     1      -5.081   6.403   4.957  0.00  0.00    +0.000 A 
ATOM     35  C   UNL     1      -5.816   5.610   4.094  0.00  0.00    +0.002 A 
ENDBRANCH  28  30
ENDBRANCH  19  20
ENDBRANCH   2  19
TORSDOF 8
