REMARK  Name = ZINC29870036
REMARK  8 active torsions:
REMARK  status: ('A' for Active; 'I' for Inactive)
REMARK    1  A    between atoms: C_4  and  N_24
REMARK    2  A    between atoms: C_5  and  C_7
REMARK    3  A    between atoms: N_9  and  C_10
REMARK    4  A    between atoms: C_10  and  C_11
REMARK    5  A    between atoms: C_11  and  C_13
REMARK    6  A    between atoms: C_11  and  N_18
REMARK    7  A    between atoms: C_25  and  C_27
REMARK    8  A    between atoms: C_30  and  N_34
REMARK                            x       y       z     vdW  Elec       q    Type
REMARK                         _______ _______ _______ _____ _____    ______ ____
ROOT
ATOM      1  C   UNL     1      -5.812   6.522  -1.103  0.00  0.00    +0.001 A 
ATOM      2  C   UNL     1      -6.260   7.131  -2.265  0.00  0.00    +0.002 A 
ATOM      3  C   UNL     1      -5.640   6.875  -3.471  0.00  0.00    +0.024 A 
ATOM      4  C   UNL     1      -4.557   6.008  -3.526  0.00  0.00    +0.046 A 
ATOM      5  C   UNL     1      -4.105   5.385  -2.353  0.00  0.00    +0.058 A 
ATOM      6  C   UNL     1      -4.743   5.654  -1.140  0.00  0.00    +0.015 A 
ENDROOT
BRANCH   5   7
ATOM      7  C   UNL     1      -2.960   4.456  -2.399  0.00  0.00    +0.246 C 
ATOM      8  O   UNL     1      -2.347   4.298  -3.438  0.00  0.00    -0.270 OA
ATOM      9  N   UNL     1      -2.594   3.783  -1.291  0.00  0.00    -0.312 N 
ATOM     10  H   UNL     1      -3.148   3.926  -0.352  0.00  0.00    +0.149 HD
BRANCH   9  11
ATOM     11  C   UNL     1      -1.456   2.861  -1.337  0.00  0.00    +0.097 C 
BRANCH  11  12
ATOM     12  C   UNL     1      -1.254   2.232   0.043  0.00  0.00    +0.016 C 
BRANCH  12  13
ATOM     13  N   UNL     1      -1.107   3.293   1.048  0.00  0.00    +0.387 N 
ATOM     14  C   UNL     1      -0.013   4.206   0.693  0.00  0.00    -0.078 C 
ATOM     15  C   UNL     1       0.017   5.376   1.680  0.00  0.00    -0.019 C 
ATOM     16  C   UNL     1       0.217   4.836   3.098  0.00  0.00    -0.004 C 
ATOM     17  C   UNL     1      -0.908   3.851   3.425  0.00  0.00    -0.019 C 
ATOM     18  C   UNL     1      -0.911   2.725   2.388  0.00  0.00    -0.078 C 
ATOM     19  H   UNL     1      -2.039   3.876   1.064  0.00  0.00    -0.081 HD
ENDBRANCH  12  13
BRANCH  12  20
ATOM     20  C   UNL     1      -0.012   1.378   0.029  0.00  0.00    +0.093 A 
ATOM     21  C   UNL     1       0.019   0.034   0.002  0.00  0.00    +0.043 A 
ATOM     22  C   UNL     1       1.381  -0.345  -0.009  0.00  0.00    +0.041 A 
ATOM     23  C   UNL     1       2.101   0.790   0.012  0.00  0.00    +0.195 A 
ATOM     24  O   UNL     1       1.253   1.831   0.035  0.00  0.00    -0.469 OA
ENDBRANCH  12  20
ENDBRANCH  11  12
ENDBRANCH   9  11
ENDBRANCH   5   7
BRANCH   4  25
ATOM     25  N   UNL     1      -3.926   5.752  -4.741  0.00  0.00    -0.281 N 
ATOM     26  C   UNL     1      -3.986   6.660  -5.735  0.00  0.00    +0.250 C 
ATOM     27  O   UNL     1      -4.500   7.744  -5.538  0.00  0.00    -0.270 OA
ATOM     28  H   UNL     1      -3.380   4.809  -4.889  0.00  0.00    +0.155 HD
BRANCH  26  29
ATOM     29  C   UNL     1      -3.425   6.339  -7.063  0.00  0.00    +0.055 A 
ATOM     30  C   UNL     1      -2.833   5.095  -7.293  0.00  0.00    +0.017 A 
ATOM     31  C   UNL     1      -2.312   4.802  -8.535  0.00  0.00    +0.033 A 
ATOM     32  C   UNL     1      -2.374   5.736  -9.555  0.00  0.00    +0.128 A 
ATOM     33  C   UNL     1      -2.959   6.970  -9.336  0.00  0.00    +0.053 A 
ATOM     34  C   UNL     1      -3.490   7.276  -8.098  0.00  0.00    +0.055 A 
ATOM     35 CL   UNL     1      -4.229   8.823  -7.826  0.00  0.00    -0.083 Cl
BRANCH  32  36
ATOM     36  N   UNL     1      -1.813   5.412 -10.886  0.00  0.00    +0.056 N 
ATOM     37  O   UNL     1      -1.298   4.326 -11.082  0.00  0.00    -0.126 OA
ATOM     38  O   UNL     1      -1.866   6.232 -11.785  0.00  0.00    -0.126 OA
ENDBRANCH  32  36
ENDBRANCH  26  29
ENDBRANCH   4  25
TORSDOF 8
