REMARK  Name = ZINC43972828
REMARK  9 active torsions:
REMARK  status: ('A' for Active; 'I' for Inactive)
REMARK    1  A    between atoms: C_1  and  C_2
REMARK    2  A    between atoms: C_5  and  N_8
REMARK    3  A    between atoms: C_10  and  C_15
REMARK    4  A    between atoms: N_17  and  C_18
REMARK    5  A    between atoms: C_18  and  C_19
REMARK    6  A    between atoms: N_22  and  C_25
REMARK    7  A    between atoms: C_25  and  C_26
REMARK    8  A    between atoms: C_28  and  C_32
REMARK    9  A    between atoms: C_30  and  C_31
REMARK                            x       y       z     vdW  Elec       q    Type
REMARK                         _______ _______ _______ _____ _____    ______ ____
ROOT
ATOM      1  C   UNL     1       0.533  -7.479   1.442  0.00  0.00    +0.218 C 
ATOM      2  O   UNL     1       1.410  -7.163   2.218  0.00  0.00    -0.275 OA
ATOM      3  N   UNL     1       0.287  -8.781   1.197  0.00  0.00    -0.315 N 
ATOM      4  H   UNL     1      -0.414  -9.033   0.576  0.00  0.00    +0.149 HD
ENDROOT
BRANCH   1   7
ATOM      5  N   UNL     1       0.059  -4.170  -0.021  0.00  0.00    -0.271 N 
ATOM      6  C   UNL     1       0.176  -5.003   1.182  0.00  0.00    +0.127 C 
ATOM      7  C   UNL     1      -0.280  -6.415   0.751  0.00  0.00    +0.101 C 
ATOM      8  C   UNL     1       0.013  -6.391  -0.767  0.00  0.00    +0.110 C 
ATOM      9  C   UNL     1      -0.034  -4.923  -1.130  0.00  0.00    +0.221 C 
ATOM     10  O   UNL     1      -0.139  -4.490  -2.258  0.00  0.00    -0.275 OA
BRANCH   5  15
ATOM     11  C   UNL     1      -0.018   1.503   0.010  0.00  0.00    +0.044 C 
ATOM     12  C   UNL     1       0.002  -0.004   0.002  0.00  0.00    -0.050 A 
ATOM     13  C   UNL     1       0.020  -0.687  -1.200  0.00  0.00    +0.005 A 
ATOM     14  C   UNL     1       0.039  -2.068  -1.211  0.00  0.00    +0.024 A 
ATOM     15  C   UNL     1       0.040  -2.771  -0.013  0.00  0.00    +0.036 A 
ATOM     16  C   UNL     1       0.022  -2.082   1.192  0.00  0.00    +0.024 A 
ATOM     17  C   UNL     1       0.009  -0.701   1.197  0.00  0.00    +0.005 A 
ENDBRANCH   5  15
ENDBRANCH   1   7
BRANCH   3  18
ATOM     18  C   UNL     1       1.078  -9.815   1.869  0.00  0.00    +0.107 C 
BRANCH  18  19
ATOM     19  C   UNL     1       0.599 -11.196   1.418  0.00  0.00    +0.003 C 
ATOM     20  C   UNL     1      -0.838 -11.422   1.899  0.00  0.00    -0.014 C 
ATOM     21  C   UNL     1      -1.282 -12.835   1.514  0.00  0.00    -0.078 C 
ATOM     22  N   UNL     1      -0.394 -13.819   2.143  0.00  0.00    +0.382 N 
ATOM     23  C   UNL     1       0.972 -13.655   1.633  0.00  0.00    -0.078 C 
ATOM     24  C   UNL     1       1.504 -12.274   2.022  0.00  0.00    -0.014 C 
ATOM     25  H   UNL     1      -0.397 -13.684   3.143  0.00  0.00    -0.081 HD
BRANCH  22  26
ATOM     26  C   UNL     1      -0.871 -15.174   1.835  0.00  0.00    -0.040 C 
BRANCH  26  27
ATOM     27  C   UNL     1      -0.034 -16.183   2.579  0.00  0.00    -0.023 A 
ATOM     28  C   UNL     1       1.038 -16.940   2.054  0.00  0.00    +0.046 A 
ATOM     29  C   UNL     1       1.500 -17.709   3.056  0.00  0.00    +0.102 A 
ATOM     30  O   UNL     1       0.768 -17.459   4.154  0.00  0.00    -0.465 OA
ATOM     31  C   UNL     1      -0.160 -16.531   3.872  0.00  0.00    +0.104 A 
ATOM     32  C   UNL     1      -1.173 -15.975   4.840  0.00  0.00    +0.086 C 
ATOM     33  C   UNL     1       2.643 -18.686   2.962  0.00  0.00    +0.086 C 
ENDBRANCH  26  27
ENDBRANCH  22  26
ENDBRANCH  18  19
ENDBRANCH   3  18
TORSDOF 6
