REMARK  Name = ZINC01357604
REMARK  8 active torsions:
REMARK  status: ('A' for Active; 'I' for Inactive)
REMARK    1  A    between atoms: C_1  and  C_2
REMARK    2  A    between atoms: C_4  and  C_31
REMARK    3  A    between atoms: C_6  and  N_8
REMARK    4  A    between atoms: N_8  and  C_9
REMARK    5  A    between atoms: C_9  and  C_11
REMARK    6  A    between atoms: C_9  and  C_16
REMARK    7  A    between atoms: N_18  and  C_19
REMARK    8  A    between atoms: C_24  and  C_26
REMARK                            x       y       z     vdW  Elec       q    Type
REMARK                         _______ _______ _______ _____ _____    ______ ____
ROOT
ATOM      1  N   UNL     1       3.210   3.580   0.092  0.00  0.00    -0.247 N 
ATOM      2  C   UNL     1       1.913   3.636  -0.267  0.00  0.00    +0.273 C 
ATOM      3  O   UNL     1       1.309   4.690  -0.201  0.00  0.00    -0.268 OA
ENDROOT
BRANCH   1   9
ATOM      4  C   UNL     1       4.653  -0.841   1.686  0.00  0.00    +0.044 C 
ATOM      5  C   UNL     1       4.660   0.246   0.643  0.00  0.00    -0.048 A 
ATOM      6  C   UNL     1       5.391   0.084  -0.520  0.00  0.00    +0.006 A 
ATOM      7  C   UNL     1       5.400   1.079  -1.479  0.00  0.00    -0.048 A 
ATOM      8  C   UNL     1       4.678   2.240  -1.280  0.00  0.00    +0.027 A 
ATOM      9  C   UNL     1       3.942   2.406  -0.113  0.00  0.00    +0.038 A 
ATOM     10  C   UNL     1       3.940   1.407   0.851  0.00  0.00    +0.027 A 
ATOM     11  C   UNL     1       6.198   0.898  -2.745  0.00  0.00    +0.044 C 
ENDBRANCH   1   9
BRANCH   2  12
ATOM     12  C   UNL     1       1.225   2.421  -0.740  0.00  0.00    +0.157 A 
ATOM     13  C   UNL     1      -0.099   2.405  -1.155  0.00  0.00    +0.101 A 
ATOM     14  S   UNL     1      -0.294   0.736  -1.573  0.00  0.00    +0.029 S 
ATOM     15  N   UNL     1       1.155   0.213  -1.234  0.00  0.00    -0.110 NA
ATOM     16  N   UNL     1       1.810   1.232  -0.812  0.00  0.00    -0.136 NA
ENDBRANCH   2  12
BRANCH   1  17
ATOM     17  C   UNL     1       3.854   4.748   0.698  0.00  0.00    +0.233 C 
BRANCH  17  18
ATOM     18  C   UNL     1       3.881   5.879  -0.297  0.00  0.00    +0.135 A 
ATOM     19  C   UNL     1       4.902   6.734  -0.490  0.00  0.00    +0.047 A 
ATOM     20  C   UNL     1       4.502   7.626  -1.511  0.00  0.00    +0.041 A 
ATOM     21  C   UNL     1       3.260   7.264  -1.881  0.00  0.00    +0.195 A 
ATOM     22  O   UNL     1       2.892   6.202  -1.146  0.00  0.00    -0.465 OA
ENDBRANCH  17  18
BRANCH  17  23
ATOM     23  C   UNL     1       3.080   5.172   1.919  0.00  0.00    +0.242 C 
ATOM     24  O   UNL     1       2.088   4.558   2.251  0.00  0.00    -0.273 OA
ATOM     25  N   UNL     1       3.490   6.232   2.643  0.00  0.00    -0.311 N 
ATOM     26  H   UNL     1       4.284   6.723   2.377  0.00  0.00    +0.149 HD
BRANCH  25  27
ATOM     27  C   UNL     1       2.737   6.644   3.830  0.00  0.00    +0.073 C 
ATOM     28  C   UNL     1       1.616   7.626   3.431  0.00  0.00    +0.022 C 
ATOM     29  C   UNL     1       1.569   8.644   4.597  0.00  0.00    +0.002 C 
ATOM     30  C   UNL     1       3.065   8.817   4.959  0.00  0.00    +0.002 C 
ATOM     31  C   UNL     1       3.659   7.402   4.802  0.00  0.00    +0.022 C 
ENDBRANCH  25  27
ENDBRANCH  17  23
ENDBRANCH   1  17
TORSDOF 6
