REMARK  Name = ZINC66186430
REMARK  9 active torsions:
REMARK  status: ('A' for Active; 'I' for Inactive)
REMARK    1  A    between atoms: C_1  and  C_2
REMARK    2  A    between atoms: C_5  and  C_7
REMARK    3  A    between atoms: C_10  and  C_12
REMARK    4  A    between atoms: C_12  and  N_13
REMARK    5  A    between atoms: N_16  and  C_17
REMARK    6  A    between atoms: N_16  and  C_18
REMARK    7  A    between atoms: N_21  and  C_24
REMARK    8  A    between atoms: C_27  and  O_30
REMARK    9  A    between atoms: O_30  and  C_31
REMARK                            x       y       z     vdW  Elec       q    Type
REMARK                         _______ _______ _______ _____ _____    ______ ____
ROOT
ATOM      1  N   UNL     1      -2.260  -5.509   0.628  0.00  0.00    -0.292 N 
ATOM      2  C   UNL     1      -2.776  -6.665   0.167  0.00  0.00    +0.303 C 
ATOM      3  O   UNL     1      -2.112  -7.683   0.198  0.00  0.00    -0.253 OA
ATOM      4  N   UNL     1      -4.029  -6.694  -0.330  0.00  0.00    -0.286 N 
ATOM      5  C   UNL     1      -4.829  -5.467  -0.368  0.00  0.00    +0.134 C 
ATOM      6  H   UNL     1      -2.790  -4.697   0.602  0.00  0.00    +0.151 HD
ENDROOT
BRANCH   4   7
ATOM      7  C   UNL     1      -4.590  -7.950  -0.831  0.00  0.00    +0.080 C 
ATOM      8  C   UNL     1      -4.953  -7.793  -2.309  0.00  0.00    +0.041 C 
ATOM      9  C   UNL     1      -5.508  -9.120  -2.839  0.00  0.00    +0.107 C 
ATOM     10  N   UNL     1      -6.627  -9.539  -1.984  0.00  0.00    -0.330 N 
ATOM     11  C   UNL     1      -6.411  -9.635  -0.534  0.00  0.00    +0.107 C 
ATOM     12  C   UNL     1      -5.846  -8.303  -0.030  0.00  0.00    +0.041 C 
BRANCH  10  13
ATOM     13  C   UNL     1      -7.875  -9.841  -2.541  0.00  0.00    +0.030 A 
ATOM     14  C   UNL     1      -8.099  -9.637  -3.896  0.00  0.00    +0.027 A 
ATOM     15  C   UNL     1      -9.330  -9.936  -4.444  0.00  0.00    +0.047 A 
ATOM     16  C   UNL     1     -10.343 -10.440  -3.642  0.00  0.00    +0.120 A 
ATOM     17  C   UNL     1     -10.120 -10.644  -2.288  0.00  0.00    +0.047 A 
ATOM     18  C   UNL     1      -8.887 -10.351  -1.739  0.00  0.00    +0.027 A 
BRANCH  16  19
ATOM     19  O   UNL     1     -11.556 -10.734  -4.183  0.00  0.00    -0.495 OA
ATOM     20  C   UNL     1     -12.553 -11.250  -3.299  0.00  0.00    +0.277 C 
ENDBRANCH  16  19
ENDBRANCH  10  13
ENDBRANCH   4   7
BRANCH   1  21
ATOM     21  C   UNL     1      -0.898  -5.479   1.167  0.00  0.00    +0.180 C 
BRANCH  21  25
ATOM     22  C   UNL     1       0.148  -2.004   1.573  0.00  0.00    +0.109 A 
ATOM     23  C   UNL     1      -0.320  -2.232   2.813  0.00  0.00    +0.045 A 
ATOM     24  C   UNL     1      -0.780  -3.569   2.838  0.00  0.00    +0.046 A 
ATOM     25  C   UNL     1      -0.565  -4.078   1.611  0.00  0.00    +0.122 A 
ATOM     26  O   UNL     1      -0.008  -3.123   0.848  0.00  0.00    -0.463 OA
BRANCH  22  30
ATOM     27  C   UNL     1       0.036   1.513  -0.105  0.00  0.00    +0.008 C 
ATOM     28  C   UNL     1       0.048  -0.017  -0.094  0.00  0.00    -0.003 C 
ATOM     29  C   UNL     1       1.394  -0.714  -0.305  0.00  0.00    +0.015 C 
ATOM     30  C   UNL     1       0.742  -0.710   1.080  0.00  0.00    +0.058 C 
ENDBRANCH  22  30
ENDBRANCH  21  25
ENDBRANCH   1  21
TORSDOF 6
