REMARK  Name = ZINC14525922
REMARK  7 active torsions:
REMARK  status: ('A' for Active; 'I' for Inactive)
REMARK    1  A    between atoms: C_1  and  C_2
REMARK    2  A    between atoms: C_3  and  C_16
REMARK    3  A    between atoms: C_4  and  C_15
REMARK    4  A    between atoms: C_16  and  C_17
REMARK    5  A    between atoms: C_17  and  C_18
REMARK    6  A    between atoms: C_23  and  C_26
REMARK    7  A    between atoms: C_26  and  N_60
REMARK                            x       y       z     vdW  Elec       q    Type
REMARK                         _______ _______ _______ _____ _____    ______ ____
ROOT
ATOM      1  C   UNL     1      -3.299   6.588   0.070  0.00  0.00    +0.101 C 
ENDROOT
BRANCH   1   2
ATOM      2  C   UNL     1      -2.107   5.666   0.053  0.00  0.00    +0.219 C 
ATOM      3  O   UNL     1      -0.985   6.126   0.045  0.00  0.00    -0.275 OA
ATOM      4  N   UNL     1      -2.288   4.330   0.047  0.00  0.00    -0.265 N 
ATOM      5  C   UNL     1      -1.188   3.480   0.032  0.00  0.00    +0.164 A 
ATOM      6  N   UNL     1      -1.160   2.162   0.019  0.00  0.00    -0.231 NA
ATOM      7  C   UNL     1      -0.018   1.503   0.010  0.00  0.00    +0.034 A 
ATOM      8  C   UNL     1       1.137   2.212   0.003  0.00  0.00    +0.070 A 
ATOM      9  S   UNL     1       0.501   3.882   0.018  0.00  0.00    -0.060 S 
ATOM     10  H   UNL     1      -3.186   3.962   0.053  0.00  0.00    +0.157 HD
BRANCH   7  11
ATOM     11  C   UNL     1       0.002  -0.004   0.002  0.00  0.00    -0.022 C 
BRANCH  11  17
ATOM     12  C   UNL     1       1.090  -0.136   2.161  0.00  0.00    -0.078 C 
ATOM     13  C   UNL     1       0.887  -0.543   3.622  0.00  0.00    -0.019 C 
ATOM     14  C   UNL     1       0.649  -2.053   3.698  0.00  0.00    -0.004 C 
ATOM     15  C   UNL     1      -0.565  -2.415   2.838  0.00  0.00    -0.019 C 
ATOM     16  C   UNL     1      -0.320  -1.954   1.400  0.00  0.00    -0.078 C 
ATOM     17  N   UNL     1      -0.123  -0.489   1.392  0.00  0.00    +0.383 N 
ATOM     18  H   UNL     1      -0.937  -0.041   1.829  0.00  0.00    -0.081 HD
ENDBRANCH  11  17
ENDBRANCH   7  11
ENDBRANCH   1   2
BRANCH   1  19
ATOM     19  C   UNL     1      -2.821   8.041   0.074  0.00  0.00    +0.048 C 
BRANCH  19  22
ATOM     20  C   UNL     1      -3.959   8.924   2.606  0.00  0.00    +0.066 C 
ATOM     21  C   UNL     1      -4.561   9.388   1.305  0.00  0.00    +0.045 A 
ATOM     22  C   UNL     1      -4.013   8.962   0.090  0.00  0.00    -0.005 A 
ATOM     23  C   UNL     1      -4.563   9.393  -1.074  0.00  0.00    +0.047 A 
ATOM     24  N   UNL     1      -5.644  10.223  -1.032  0.00  0.00    -0.217 N 
ATOM     25  C   UNL     1      -6.150  10.615   0.174  0.00  0.00    +0.164 A 
ATOM     26  N   UNL     1      -5.601  10.192   1.312  0.00  0.00    -0.232 NA
ATOM     27  C   UNL     1      -7.246  11.463  -0.094  0.00  0.00    +0.046 A 
ATOM     28  C   UNL     1      -8.148  12.161   0.723  0.00  0.00    +0.014 A 
ATOM     29  C   UNL     1      -9.127  12.918   0.156  0.00  0.00    +0.001 A 
ATOM     30  C   UNL     1      -9.249  13.011  -1.230  0.00  0.00    +0.002 A 
ATOM     31  C   UNL     1      -8.394  12.349  -2.054  0.00  0.00    +0.030 A 
ATOM     32  C   UNL     1      -7.366  11.554  -1.506  0.00  0.00    +0.095 A 
ATOM     33  N   UNL     1      -6.407  10.812  -2.049  0.00  0.00    -0.165 NA
ATOM     34  C   UNL     1      -3.989   8.956  -2.397  0.00  0.00    +0.066 C 
ENDBRANCH  19  22
ENDBRANCH   1  19
TORSDOF 5
