REMARK  Name = ZINC67045386
REMARK  3 active torsions:
REMARK  status: ('A' for Active; 'I' for Inactive)
REMARK    1  A    between atoms: C_8  and  C_11
REMARK    2  A    between atoms: C_11  and  N_12
REMARK    3  A    between atoms: C_19  and  C_22
REMARK                            x       y       z     vdW  Elec       q    Type
REMARK                         _______ _______ _______ _____ _____    ______ ____
ROOT
ATOM      1  N   UNL     1       5.217  -3.195  -0.160  0.00  0.00    -0.296 N 
ATOM      2  C   UNL     1       6.098  -4.081   0.345  0.00  0.00    +0.302 C 
ATOM      3  O   UNL     1       5.747  -4.861   1.210  0.00  0.00    -0.253 OA
ATOM      4  N   UNL     1       7.367  -4.103  -0.108  0.00  0.00    -0.281 N 
ATOM      5  C   UNL     1       7.847  -3.093  -1.065  0.00  0.00    +0.137 C 
ATOM      6  C   UNL     1       9.155  -2.501  -0.527  0.00  0.00    +0.179 C 
ATOM      7  O   UNL     1      10.060  -3.563  -0.216  0.00  0.00    -0.369 OA
ATOM      8  C   UNL     1       9.598  -4.444   0.810  0.00  0.00    +0.168 C 
ATOM      9  C   UNL     1       8.315  -5.133   0.345  0.00  0.00    +0.145 C 
ATOM     10  H   UNL     1       5.513  -2.526  -0.797  0.00  0.00    +0.150 HD
ENDROOT
BRANCH   8  11
ATOM     11  C   UNL     1      10.654  -5.481   1.095  0.00  0.00    +0.018 A 
ATOM     12  C   UNL     1      11.581  -5.810   0.124  0.00  0.00    +0.009 A 
ATOM     13  C   UNL     1      12.549  -6.761   0.385  0.00  0.00    +0.001 A 
ATOM     14  C   UNL     1      12.592  -7.384   1.619  0.00  0.00    +0.003 A 
ATOM     15  C   UNL     1      11.668  -7.056   2.592  0.00  0.00    +0.039 A 
ATOM     16  C   UNL     1      10.700  -6.100   2.333  0.00  0.00    +0.129 A 
ATOM     17  F   UNL     1       9.798  -5.776   3.285  0.00  0.00    -0.205 F 
ENDBRANCH   8  11
BRANCH   1  18
ATOM     18  C   UNL     1       3.812  -3.242   0.252  0.00  0.00    +0.150 C 
BRANCH  18  26
ATOM     19  C   UNL     1      -0.023   1.371  -0.010  0.00  0.00    +0.000 A 
ATOM     20  C   UNL     1       1.167   2.075  -0.020  0.00  0.00    +0.004 A 
ATOM     21  C   UNL     1       2.373   1.406  -0.029  0.00  0.00    +0.046 A 
ATOM     22  C   UNL     1       2.402   0.013  -0.028  0.00  0.00    +0.124 A 
ATOM     23  C   UNL     1       1.200  -0.683  -0.025  0.00  0.00    -0.002 A 
ATOM     24  C   UNL     1      -0.003  -0.012  -0.012  0.00  0.00    +0.007 A 
ATOM     25  C   UNL     1       1.542  -2.160  -0.049  0.00  0.00    +0.085 C 
ATOM     26  C   UNL     1       3.033  -2.137  -0.464  0.00  0.00    +0.195 C 
ATOM     27  O   UNL     1       3.465  -0.838  -0.024  0.00  0.00    -0.487 OA
ENDBRANCH  18  26
ENDBRANCH   1  18
TORSDOF 3
