REMARK  Name = ZINC09306020
REMARK  6 active torsions:
REMARK  status: ('A' for Active; 'I' for Inactive)
REMARK    1  A    between atoms: C_1  and  C_2
REMARK    2  A    between atoms: C_2  and  C_35
REMARK    3  A    between atoms: N_11  and  C_26
REMARK    4  A    between atoms: C_19  and  C_20
REMARK    5  A    between atoms: C_19  and  N_68
REMARK    6  A    between atoms: C_26  and  C_27
REMARK                            x       y       z     vdW  Elec       q    Type
REMARK                         _______ _______ _______ _____ _____    ______ ____
ROOT
ATOM      1  C   UNL     1       0.612  -3.812  11.460  0.00  0.00    +0.041 C 
ATOM      2  C   UNL     1       1.444  -4.953  10.871  0.00  0.00    +0.068 C 
ATOM      3  C   UNL     1       2.055  -4.502   9.542  0.00  0.00    +0.071 C 
ATOM      4  C   UNL     1       0.927  -4.376   8.521  0.00  0.00    -0.018 A 
ATOM      5  C   UNL     1      -0.259  -4.976   8.761  0.00  0.00    +0.021 A 
ATOM      6  S   UNL     1      -1.264  -4.584   7.358  0.00  0.00    -0.071 S 
ATOM      7  C   UNL     1      -0.086  -3.614   6.449  0.00  0.00    +0.118 A 
ATOM      8  C   UNL     1       1.054  -3.627   7.272  0.00  0.00    +0.076 A 
ATOM      9  C   UNL     1       2.186  -2.906   6.777  0.00  0.00    +0.264 A 
ATOM     10  O   UNL     1       3.219  -2.860   7.422  0.00  0.00    -0.267 OA
ATOM     11  N   UNL     1       2.094  -2.278   5.590  0.00  0.00    -0.276 N 
ATOM     12  C   UNL     1       0.946  -2.317   4.855  0.00  0.00    +0.202 A 
ATOM     13  N   UNL     1      -0.113  -2.968   5.289  0.00  0.00    -0.208 NA
ATOM     14  N   UNL     1       0.892  -1.663   3.649  0.00  0.00    -0.304 N 
ATOM     15  C   UNL     1       0.485  -2.578   2.573  0.00  0.00    +0.089 C 
ATOM     16  C   UNL     1       0.513  -1.832   1.236  0.00  0.00    -0.059 C 
ATOM     17  C   UNL     1       0.021   0.242   2.382  0.00  0.00    -0.059 C 
ATOM     18  C   UNL     1      -0.007  -0.503   3.719  0.00  0.00    +0.089 C 
ATOM     19  C   UNL     1      -0.612  -5.791   9.967  0.00  0.00    +0.203 C 
ATOM     20  O   UNL     1       0.606  -6.093  10.666  0.00  0.00    -0.368 OA
ATOM     21  C   UNL     1       2.566  -5.317  11.845  0.00  0.00    +0.041 C 
ATOM     22  N   UNL     1      -0.411  -0.681   1.313  0.00  0.00    +0.384 N 
ATOM     23  H   UNL     1      -1.354  -1.025   1.529  0.00  0.00    -0.081 HD
ENDROOT
BRANCH  22  24
ATOM     24  C   UNL     1      -0.444   0.027   0.015  0.00  0.00    -0.043 C 
BRANCH  24  25
ATOM     25  C   UNL     1      -1.549   1.052   0.048  0.00  0.00    -0.064 A 
ATOM     26  C   UNL     1      -2.826   0.704  -0.351  0.00  0.00    +0.002 A 
ATOM     27  C   UNL     1      -3.840   1.642  -0.316  0.00  0.00    +0.000 A 
ATOM     28  C   UNL     1      -3.576   2.931   0.108  0.00  0.00    +0.000 A 
ATOM     29  C   UNL     1      -2.298   3.280   0.502  0.00  0.00    +0.000 A 
ATOM     30  C   UNL     1      -1.284   2.340   0.472  0.00  0.00    +0.002 A 
ENDBRANCH  24  25
ENDBRANCH  22  24
BRANCH  11  31
ATOM     31  C   UNL     1       3.250  -1.538   5.078  0.00  0.00    +0.163 C 
BRANCH  31  32
ATOM     32  C   UNL     1       4.162  -2.481   4.337  0.00  0.00    -0.028 A 
ATOM     33  C   UNL     1       5.137  -3.182   5.023  0.00  0.00    +0.005 A 
ATOM     34  C   UNL     1       5.970  -4.051   4.344  0.00  0.00    +0.000 A 
ATOM     35  C   UNL     1       5.837  -4.211   2.978  0.00  0.00    +0.000 A 
ATOM     36  C   UNL     1       4.866  -3.506   2.291  0.00  0.00    +0.000 A 
ATOM     37  C   UNL     1       4.029  -2.642   2.971  0.00  0.00    +0.005 A 
ENDBRANCH  31  32
ENDBRANCH  11  31
TORSDOF 4
