REMARK  Name = ZINC02377894
REMARK  7 active torsions:
REMARK  status: ('A' for Active; 'I' for Inactive)
REMARK    1  A    between atoms: C_1  and  C_2
REMARK    2  A    between atoms: C_2  and  O_3
REMARK    3  A    between atoms: O_3  and  C_4
REMARK    4  A    between atoms: C_4  and  C_6
REMARK    5  A    between atoms: C_10  and  N_11
REMARK    6  A    between atoms: C_12  and  C_14
REMARK    7  A    between atoms: C_15  and  N_28
REMARK                            x       y       z     vdW  Elec       q    Type
REMARK                         _______ _______ _______ _____ _____    ______ ____
ROOT
ATOM      1  N   UNL     1       7.086   0.333  -0.029  0.00  0.00    -0.275 N 
ATOM      2  C   UNL     1       6.193   1.342  -0.027  0.00  0.00    +0.257 C 
ATOM      3  O   UNL     1       6.579   2.497  -0.031  0.00  0.00    -0.269 OA
ATOM      4  H   UNL     1       6.779  -0.587  -0.026  0.00  0.00    +0.156 HD
ENDROOT
BRANCH   2   5
ATOM      5  C   UNL     1       4.805   1.060  -0.019  0.00  0.00    +0.097 A 
ATOM      6  C   UNL     1       3.753   1.949  -0.015  0.00  0.00    +0.053 A 
ATOM      7  C   UNL     1       2.398   1.416  -0.007  0.00  0.00    +0.030 A 
ATOM      8  C   UNL     1       1.175   2.120   0.002  0.00  0.00    +0.025 A 
ATOM      9  C   UNL     1      -0.017   1.398   0.010  0.00  0.00    +0.039 A 
ATOM     10  C   UNL     1       0.002  -0.004   0.002  0.00  0.00    +0.053 A 
ATOM     11  N   UNL     1       1.158  -0.639  -0.001  0.00  0.00    -0.244 NA
ATOM     12  C   UNL     1       2.308   0.003  -0.006  0.00  0.00    +0.111 A 
ATOM     13  S   UNL     1       4.003  -0.531  -0.012  0.00  0.00    -0.062 S 
ATOM     14  C   UNL     1      -1.270  -0.808  -0.010  0.00  0.00    +0.056 C 
ATOM     15  C   UNL     1      -2.440   0.001   0.543  0.00  0.00    +0.014 C 
ATOM     16  C   UNL     1      -2.561   1.319  -0.234  0.00  0.00    +0.080 C 
ATOM     17  C   UNL     1      -1.302   2.118   0.032  0.00  0.00    +0.165 C 
ATOM     18  O   UNL     1      -1.350   3.310   0.253  0.00  0.00    -0.292 OA
BRANCH   6  19
ATOM     19  N   UNL     1       3.979   3.317  -0.020  0.00  0.00    -0.356 N 
ATOM     20  H   UNL     1       3.229   3.932  -0.018  0.00  0.00    +0.142 HD
ATOM     21  H   UNL     1       4.887   3.659  -0.026  0.00  0.00    +0.142 HD
ENDBRANCH   6  19
ENDBRANCH   2   5
BRANCH   1  26
ATOM     22  C   UNL     1       9.506  -0.285  -0.035  0.00  0.00    +0.091 A 
ATOM     23  C   UNL     1      10.850   0.271  -0.049  0.00  0.00    -0.021 A 
ATOM     24  C   UNL     1      10.915   1.619  -0.051  0.00  0.00    -0.004 A 
ATOM     25  S   UNL     1       9.227   2.154  -0.044  0.00  0.00    -0.077 S 
ATOM     26  C   UNL     1       8.443   0.609  -0.037  0.00  0.00    +0.087 A 
ATOM     27  C   UNL     1      12.151   2.464  -0.059  0.00  0.00    +0.043 C 
ATOM     28  C   UNL     1      13.347   1.575   0.315  0.00  0.00    +0.005 C 
ATOM     29  C   UNL     1      13.287   0.292  -0.520  0.00  0.00    +0.005 C 
ATOM     30  C   UNL     1      12.116  -0.576  -0.055  0.00  0.00    +0.037 C 
BRANCH  22  31
ATOM     31  C   UNL     1       9.282  -1.731  -0.024  0.00  0.00    +0.342 C 
ATOM     32  O   UNL     1       9.185  -2.340  -1.073  0.00  0.00    -0.245 OA
BRANCH  31  33
ATOM     33  O   UNL     1       9.184  -2.389   1.149  0.00  0.00    -0.461 OA
BRANCH  33  35
ATOM     34  C   UNL     1       8.877  -4.390   2.503  0.00  0.00    +0.048 C 
ATOM     35  C   UNL     1       8.961  -3.823   1.085  0.00  0.00    +0.229 C 
ENDBRANCH  33  35
ENDBRANCH  31  33
ENDBRANCH  22  31
ENDBRANCH   1  26
TORSDOF 6
