REMARK  Name = ZINC02448417
REMARK  12 active torsions:
REMARK  status: ('A' for Active; 'I' for Inactive)
REMARK    1  A    between atoms: C_1  and  C_2
REMARK    2  A    between atoms: C_5  and  S_8
REMARK    3  A    between atoms: S_8  and  N_11
REMARK    4  A    between atoms: N_11  and  C_12
REMARK    5  A    between atoms: C_12  and  C_14
REMARK    6  A    between atoms: C_12  and  C_17
REMARK    7  A    between atoms: C_14  and  C_15
REMARK    8  A    between atoms: C_14  and  C_16
REMARK    9  A    between atoms: C_17  and  O_19
REMARK   10  A    between atoms: O_19  and  C_20
REMARK   11  A    between atoms: C_27  and  C_33
REMARK   12  A    between atoms: C_28  and  C_32
REMARK                            x       y       z     vdW  Elec       q    Type
REMARK                         _______ _______ _______ _____ _____    ______ ____
ROOT
ATOM      1  C   UNL     1       2.069   0.734   0.442  0.00  0.00    +0.331 C 
ATOM      2  O   UNL     1       1.650  -0.245   1.013  0.00  0.00    -0.249 OA
ENDROOT
BRANCH   1   3
ATOM      3  C   UNL     1       1.134   1.589  -0.374  0.00  0.00    +0.188 C 
BRANCH   3   4
ATOM      4  C   UNL     1       1.612   1.623  -1.827  0.00  0.00    +0.012 C 
ATOM      5  C   UNL     1       0.586   2.367  -2.684  0.00  0.00    +0.009 C 
ATOM      6  C   UNL     1       2.959   2.345  -1.904  0.00  0.00    +0.009 C 
ENDBRANCH   3   4
BRANCH   3   7
ATOM      7  N   UNL     1      -0.217   1.025  -0.318  0.00  0.00    -0.176 NA
ATOM      8  H   UNL     1      -0.464   0.298  -0.911  0.00  0.00    +0.149 HD
BRANCH   7   9
ATOM      9  S   UNL     1      -1.324   1.633   0.753  0.00  0.00    +0.059 S 
ATOM     10  O   UNL     1      -2.540   0.936   0.520  0.00  0.00    -0.153 OA
ATOM     11  O   UNL     1      -0.690   1.654   2.025  0.00  0.00    -0.153 OA
BRANCH   9  16
ATOM     12  C   UNL     1      -2.313   7.385  -0.776  0.00  0.00    +0.044 C 
ATOM     13  C   UNL     1      -2.067   5.948  -0.394  0.00  0.00    -0.050 A 
ATOM     14  C   UNL     1      -2.867   4.948  -0.912  0.00  0.00    +0.005 A 
ATOM     15  C   UNL     1      -2.641   3.630  -0.562  0.00  0.00    +0.029 A 
ATOM     16  C   UNL     1      -1.613   3.312   0.306  0.00  0.00    +0.105 A 
ATOM     17  C   UNL     1      -0.815   4.314   0.828  0.00  0.00    +0.029 A 
ATOM     18  C   UNL     1      -1.039   5.631   0.474  0.00  0.00    +0.005 A 
ENDBRANCH   9  16
ENDBRANCH   7   9
ENDBRANCH   3   7
ENDBRANCH   1   3
BRANCH   1  19
ATOM     19  O   UNL     1       3.368   1.062   0.536  0.00  0.00    -0.423 OA
BRANCH  19  20
ATOM     20  C   UNL     1       4.167   0.220   1.242  0.00  0.00    +0.153 A 
ATOM     21  C   UNL     1       4.428   0.479   2.577  0.00  0.00    +0.094 A 
ATOM     22  C   UNL     1       5.239  -0.382   3.301  0.00  0.00    +0.143 A 
ATOM     23  C   UNL     1       5.797  -1.505   2.663  0.00  0.00    +0.022 A 
ATOM     24  C   UNL     1       5.528  -1.750   1.312  0.00  0.00    +0.035 A 
ATOM     25  C   UNL     1       4.722  -0.894   0.615  0.00  0.00    +0.084 A 
ATOM     26 CL   UNL     1       4.388  -1.198  -1.061  0.00  0.00    -0.080 Cl
ATOM     27  C   UNL     1       6.658  -2.405   3.435  0.00  0.00    -0.030 A 
ATOM     28  C   UNL     1       6.883  -2.112   4.742  0.00  0.00    +0.037 A 
ATOM     29  C   UNL     1       6.291  -0.969   5.317  0.00  0.00    +0.340 A 
ATOM     30  O   UNL     1       6.500  -0.719   6.491  0.00  0.00    -0.245 OA
ATOM     31  O   UNL     1       5.503  -0.149   4.605  0.00  0.00    -0.422 OA
ATOM     32  C   UNL     1       7.763  -3.008   5.576  0.00  0.00    +0.051 C 
ATOM     33  C   UNL     1       7.278  -3.620   2.795  0.00  0.00    +0.045 C 
ENDBRANCH  19  20
ENDBRANCH   1  19
TORSDOF 7
