REMARK  Name = ZINC09126178
REMARK  11 active torsions:
REMARK  status: ('A' for Active; 'I' for Inactive)
REMARK    1  A    between atoms: C_1  and  C_2
REMARK    2  A    between atoms: C_2  and  C_3
REMARK    3  A    between atoms: C_3  and  N_4
REMARK    4  A    between atoms: C_5  and  N_36
REMARK    5  A    between atoms: C_6  and  C_13
REMARK    6  A    between atoms: C_13  and  C_15
REMARK    7  A    between atoms: C_15  and  S_16
REMARK    8  A    between atoms: S_16  and  C_17
REMARK    9  A    between atoms: C_20  and  C_29
REMARK   10  A    between atoms: N_21  and  C_22
REMARK   11  A    between atoms: C_22  and  C_23
REMARK                            x       y       z     vdW  Elec       q    Type
REMARK                         _______ _______ _______ _____ _____    ______ ____
ROOT
ATOM      1  S   UNL     1       3.772  -5.735   0.416  0.00  0.00    -0.078 S 
ENDROOT
BRANCH   1   2
ATOM      2  C   UNL     1       3.582  -7.466   0.148  0.00  0.00    +0.192 A 
ATOM      3  N   UNL     1       2.564  -8.058  -0.435  0.00  0.00    -0.122 NA
ATOM      4  N   UNL     1       2.751  -9.329  -0.466  0.00  0.00    -0.128 NA
ATOM      5  C   UNL     1       3.896  -9.628   0.102  0.00  0.00    +0.165 A 
ATOM      6  N   UNL     1       4.464  -8.444   0.513  0.00  0.00    -0.300 N 
BRANCH   5   7
ATOM      7  C   UNL     1       4.467 -10.981   0.269  0.00  0.00    +0.019 A 
ATOM      8  C   UNL     1       3.999 -12.040  -0.510  0.00  0.00    +0.014 A 
ATOM      9  C   UNL     1       4.538 -13.300  -0.352  0.00  0.00    +0.039 A 
ATOM     10  C   UNL     1       5.537 -13.517   0.584  0.00  0.00    +0.123 A 
ATOM     11  C   UNL     1       6.002 -12.470   1.364  0.00  0.00    +0.039 A 
ATOM     12  C   UNL     1       5.473 -11.206   1.211  0.00  0.00    +0.014 A 
ATOM     13  F   UNL     1       6.058 -14.754   0.738  0.00  0.00    -0.205 F 
ENDBRANCH   5   7
BRANCH   6  14
ATOM     14  C   UNL     1       5.746  -8.269   1.200  0.00  0.00    +0.157 C 
BRANCH  14  15
ATOM     15  C   UNL     1       5.524  -8.309   2.713  0.00  0.00    +0.138 C 
ATOM     16  C   UNL     1       6.876  -8.180   3.459  0.00  0.00    +0.035 C 
ATOM     17  C   UNL     1       6.406  -7.605   4.823  0.00  0.00    +0.031 C 
ATOM     18  C   UNL     1       5.215  -6.714   4.410  0.00  0.00    +0.160 C 
ATOM     19  O   UNL     1       4.753  -7.173   3.135  0.00  0.00    -0.375 OA
ENDBRANCH  14  15
ENDBRANCH   6  14
ENDBRANCH   1   2
BRANCH   1  20
ATOM     20  C   UNL     1       2.236  -5.132  -0.328  0.00  0.00    +0.157 C 
BRANCH  20  21
ATOM     21  C   UNL     1       2.177  -3.631  -0.212  0.00  0.00    +0.182 C 
ATOM     22  O   UNL     1       3.086  -3.027   0.321  0.00  0.00    -0.291 OA
BRANCH  21  25
ATOM     23  N   UNL     1      -0.174  -0.908  -1.018  0.00  0.00    -0.281 N 
ATOM     24  C   UNL     1       0.921  -1.545  -0.507  0.00  0.00    +0.116 A 
ATOM     25  C   UNL     1       1.067  -2.926  -0.724  0.00  0.00    +0.120 A 
ATOM     26  C   UNL     1       0.028  -3.612  -1.504  0.00  0.00    +0.266 A 
ATOM     27  O   UNL     1       0.104  -4.806  -1.725  0.00  0.00    -0.267 OA
ATOM     28  N   UNL     1      -1.012  -2.890  -1.969  0.00  0.00    -0.274 N 
ATOM     29  H   UNL     1      -1.728  -3.343  -2.502  0.00  0.00    +0.173 HD
ATOM     30  C   UNL     1      -1.100  -1.573  -1.726  0.00  0.00    +0.331 A 
ATOM     31  O   UNL     1      -2.054  -0.959  -2.163  0.00  0.00    -0.246 OA
BRANCH  24  32
ATOM     32  N   UNL     1       1.853  -0.855   0.204  0.00  0.00    -0.344 N 
ATOM     33  H   UNL     1       1.803   0.112   0.260  0.00  0.00    +0.144 HD
ATOM     34  H   UNL     1       2.569  -1.330   0.655  0.00  0.00    +0.144 HD
ENDBRANCH  24  32
BRANCH  23  35
ATOM     35  C   UNL     1      -0.337   0.530  -0.793  0.00  0.00    +0.128 C 
BRANCH  35  37
ATOM     36  C   UNL     1      -1.296   2.261   0.733  0.00  0.00    +0.005 C 
ATOM     37  C   UNL     1      -1.126   0.758   0.498  0.00  0.00    +0.018 C 
ENDBRANCH  35  37
ENDBRANCH  23  35
ENDBRANCH  21  25
ENDBRANCH  20  21
ENDBRANCH   1  20
TORSDOF 10
