REMARK  Name = ZINC06578610
REMARK  8 active torsions:
REMARK  status: ('A' for Active; 'I' for Inactive)
REMARK    1  A    between atoms: C_1  and  C_2
REMARK    2  A    between atoms: C_7  and  N_8
REMARK    3  A    between atoms: C_9  and  C_25
REMARK    4  A    between atoms: C_12  and  S_13
REMARK    5  A    between atoms: S_13  and  C_14
REMARK    6  A    between atoms: C_14  and  C_16
REMARK    7  A    between atoms: C_14  and  C_23
REMARK    8  A    between atoms: C_16  and  C_17
REMARK                            x       y       z     vdW  Elec       q    Type
REMARK                         _______ _______ _______ _____ _____    ______ ____
ROOT
ATOM      1  N   UNL     1       1.296   1.731  -0.001  0.00  0.00    -0.270 N 
ATOM      2  C   UNL     1      -0.016   1.309   0.009  0.00  0.00    +0.169 A 
ATOM      3  N   UNL     1       0.002  -0.004   0.002  0.00  0.00    -0.128 NA
ATOM      4  N   UNL     1       1.215  -0.427  -0.012  0.00  0.00    -0.122 NA
ATOM      5  C   UNL     1       2.050   0.590  -0.014  0.00  0.00    +0.198 A 
ENDROOT
BRANCH   1  12
ATOM      6  C   UNL     1       1.730   3.010  -2.506  0.00  0.00    +0.046 C 
ATOM      7  C   UNL     1       1.986   3.714  -1.198  0.00  0.00    -0.026 A 
ATOM      8  C   UNL     1       2.439   5.019  -1.192  0.00  0.00    +0.005 A 
ATOM      9  C   UNL     1       2.679   5.663   0.007  0.00  0.00    +0.000 A 
ATOM     10  C   UNL     1       2.461   5.006   1.204  0.00  0.00    +0.002 A 
ATOM     11  C   UNL     1       2.003   3.703   1.205  0.00  0.00    +0.026 A 
ATOM     12  C   UNL     1       1.761   3.053   0.002  0.00  0.00    +0.053 A 
ENDBRANCH   1  12
BRANCH   2  13
ATOM     13  C   UNL     1      -1.216   2.171   0.020  0.00  0.00    +0.022 A 
ATOM     14  C   UNL     1      -1.124   3.536  -0.279  0.00  0.00    +0.031 A 
ATOM     15  C   UNL     1      -2.270   4.303  -0.261  0.00  0.00    +0.111 A 
ATOM     16  N   UNL     1      -3.438   3.768   0.041  0.00  0.00    -0.263 NA
ATOM     17  C   UNL     1      -3.568   2.488   0.333  0.00  0.00    +0.111 A 
ATOM     18  C   UNL     1      -2.476   1.647   0.335  0.00  0.00    +0.031 A 
ENDBRANCH   2  13
BRANCH   5  19
ATOM     19  S   UNL     1       3.809   0.499  -0.033  0.00  0.00    -0.067 S 
BRANCH  19  20
ATOM     20  C   UNL     1       4.031  -1.297  -0.044  0.00  0.00    +0.161 C 
BRANCH  20  21
ATOM     21  C   UNL     1       3.522  -1.863   1.216  0.00  0.00    +0.077 C 
ATOM     22  N   UNL     1       3.128  -2.299   2.188  0.00  0.00    -0.195 NA
ENDBRANCH  20  21
BRANCH  20  23
ATOM     23  C   UNL     1       5.518  -1.627  -0.187  0.00  0.00    +0.064 C 
BRANCH  23  24
ATOM     24  C   UNL     1       6.011  -1.155  -1.531  0.00  0.00    -0.045 A 
ATOM     25  C   UNL     1       5.961  -2.003  -2.621  0.00  0.00    +0.004 A 
ATOM     26  C   UNL     1       6.408  -1.569  -3.855  0.00  0.00    +0.000 A 
ATOM     27  C   UNL     1       6.915  -0.291  -3.996  0.00  0.00    +0.000 A 
ATOM     28  C   UNL     1       6.969   0.555  -2.905  0.00  0.00    +0.000 A 
ATOM     29  C   UNL     1       6.517   0.123  -1.672  0.00  0.00    +0.004 A 
ENDBRANCH  23  24
ENDBRANCH  20  23
ENDBRANCH  19  20
ENDBRANCH   5  19
TORSDOF 7
