REMARK  Name = ZINC32704052
REMARK  9 active torsions:
REMARK  status: ('A' for Active; 'I' for Inactive)
REMARK    1  A    between atoms: C_1  and  N_2
REMARK    2  A    between atoms: N_2  and  C_3
REMARK    3  A    between atoms: N_2  and  C_4
REMARK    4  A    between atoms: C_4  and  C_11
REMARK    5  A    between atoms: C_11  and  N_12
REMARK    6  A    between atoms: C_13  and  C_15
REMARK    7  A    between atoms: C_20  and  S_21
REMARK    8  A    between atoms: S_21  and  C_22
REMARK    9  A    between atoms: C_22  and  C_23
REMARK                            x       y       z     vdW  Elec       q    Type
REMARK                         _______ _______ _______ _____ _____    ______ ____
ROOT
ATOM      1  C   UNL     1      -3.074  -2.212  -0.071  0.00  0.00    +0.050 A 
ATOM      2  C   UNL     1      -1.818  -2.823  -0.086  0.00  0.00    +0.014 A 
ATOM      3  C   UNL     1      -1.702  -4.163   0.211  0.00  0.00    +0.001 A 
ATOM      4  C   UNL     1      -2.828  -4.914   0.515  0.00  0.00    +0.001 A 
ATOM      5  C   UNL     1      -4.076  -4.327   0.529  0.00  0.00    +0.015 A 
ATOM      6  C   UNL     1      -4.213  -2.974   0.238  0.00  0.00    +0.020 A 
ENDROOT
BRANCH   1   8
ATOM      7  N   UNL     1      -2.109  -0.049  -0.677  0.00  0.00    -0.313 N 
ATOM      8  C   UNL     1      -3.205  -0.777  -0.382  0.00  0.00    +0.245 C 
ATOM      9  O   UNL     1      -4.300  -0.249  -0.371  0.00  0.00    -0.270 OA
ATOM     10  H   UNL     1      -1.118  -0.526  -0.686  0.00  0.00    +0.149 HD
BRANCH   7  11
ATOM     11  C   UNL     1      -2.239   1.377  -0.986  0.00  0.00    +0.092 C 
BRANCH  11  12
ATOM     12  C   UNL     1      -0.848   1.987  -1.170  0.00  0.00    -0.050 C 
ATOM     13  C   UNL     1      -1.000   3.393  -1.782  0.00  0.00    -0.010 C 
ATOM     14  C   UNL     1      -1.399   4.457  -0.742  0.00  0.00    -0.001 C 
ATOM     15  C   UNL     1      -2.445   3.959   0.219  0.00  0.00    -0.000 C 
ATOM     16  C   UNL     1      -1.735   3.412   1.474  0.00  0.00    -0.000 C 
ATOM     17  C   UNL     1      -1.213   2.068   1.275  0.00  0.00    -0.001 C 
ATOM     18  C   UNL     1      -0.147   2.011   0.162  0.00  0.00    -0.010 C 
BRANCH  12  20
ATOM     19  C   UNL     1      -0.706   1.117  -3.425  0.00  0.00    -0.096 C 
ATOM     20  N   UNL     1      -0.079   1.146  -2.097  0.00  0.00    +0.381 N 
ATOM     21  C   UNL     1       1.317   1.597  -2.183  0.00  0.00    -0.096 C 
ATOM     22  H   UNL     1      -0.079   0.120  -1.701  0.00  0.00    -0.082 HD
ENDBRANCH  12  20
ENDBRANCH  11  12
ENDBRANCH   7  11
ENDBRANCH   1   8
BRANCH   6  23
ATOM     23  S   UNL     1      -5.806  -2.221   0.255  0.00  0.00    -0.115 S 
BRANCH  23  24
ATOM     24  C   UNL     1      -6.927  -3.576   0.697  0.00  0.00    +0.170 C 
BRANCH  24  25
ATOM     25  C   UNL     1      -8.342  -3.061   0.747  0.00  0.00    +0.230 C 
ATOM     26  O   UNL     1      -8.572  -1.894   0.508  0.00  0.00    -0.274 OA
ATOM     27  N   UNL     1      -9.353  -3.897   1.057  0.00  0.00    -0.270 N 
ATOM     28  C   UNL     1     -10.765  -3.513   1.143  0.00  0.00    +0.118 C 
ATOM     29  C   UNL     1     -11.512  -4.802   1.520  0.00  0.00    +0.056 C 
ATOM     30  C   UNL     1     -10.428  -5.851   1.631  0.00  0.00    -0.024 A 
ATOM     31  C   UNL     1      -9.208  -5.256   1.350  0.00  0.00    +0.039 A 
ATOM     32  C   UNL     1      -8.050  -6.034   1.390  0.00  0.00    +0.024 A 
ATOM     33  C   UNL     1      -8.123  -7.375   1.704  0.00  0.00    +0.002 A 
ATOM     34  C   UNL     1      -9.345  -7.959   1.982  0.00  0.00    +0.000 A 
ATOM     35  C   UNL     1     -10.496  -7.194   1.945  0.00  0.00    +0.005 A 
ENDBRANCH  24  25
ENDBRANCH  23  24
ENDBRANCH   6  23
TORSDOF 7
