REMARK  Name = ZINC66647286
REMARK  10 active torsions:
REMARK  status: ('A' for Active; 'I' for Inactive)
REMARK    1  A    between atoms: C_1  and  C_2
REMARK    2  A    between atoms: C_2  and  C_3
REMARK    3  A    between atoms: C_3  and  C_4
REMARK    4  A    between atoms: C_6  and  C_10
REMARK    5  A    between atoms: C_14  and  C_23
REMARK    6  A    between atoms: N_25  and  C_26
REMARK    7  A    between atoms: C_26  and  C_27
REMARK    8  A    between atoms: C_26  and  C_29
REMARK    9  A    between atoms: C_27  and  C_28
REMARK   10  A    between atoms: C_29  and  C_30
REMARK                            x       y       z     vdW  Elec       q    Type
REMARK                         _______ _______ _______ _____ _____    ______ ____
ROOT
ATOM      1  C   UNL     1      -2.181  -5.417   1.159  0.00  0.00    +0.269 C 
ATOM      2  O   UNL     1      -1.827  -4.380   0.631  0.00  0.00    -0.268 OA
ATOM      3  N   UNL     1      -1.726  -6.598   0.697  0.00  0.00    -0.259 N 
ATOM      4  C   UNL     1      -2.144  -7.870   1.312  0.00  0.00    +0.168 C 
ATOM      5  C   UNL     1      -0.902  -8.767   1.414  0.00  0.00    +0.276 C 
ATOM      6  O   UNL     1      -0.360  -8.953   0.104  0.00  0.00    -0.476 OA
ATOM      7  C   UNL     1      -0.163  -7.848  -0.663  0.00  0.00    +0.143 A 
ATOM      8  C   UNL     1      -0.841  -6.660  -0.392  0.00  0.00    +0.079 A 
ATOM      9  C   UNL     1      -0.639  -5.544  -1.188  0.00  0.00    +0.027 A 
ATOM     10  C   UNL     1       0.236  -5.610  -2.257  0.00  0.00    +0.002 A 
ATOM     11  C   UNL     1       0.907  -6.787  -2.531  0.00  0.00    +0.004 A 
ATOM     12  C   UNL     1       0.717  -7.904  -1.732  0.00  0.00    +0.047 A 
ENDROOT
BRANCH   1  15
ATOM     13  C   UNL     1      -4.280  -4.772   4.075  0.00  0.00    +0.064 A 
ATOM     14  C   UNL     1      -3.318  -4.322   3.168  0.00  0.00    +0.057 A 
ATOM     15  C   UNL     1      -3.107  -5.381   2.302  0.00  0.00    +0.121 A 
ATOM     16  N   UNL     1      -3.931  -6.387   2.721  0.00  0.00    -0.272 N 
ATOM     17  H   UNL     1      -4.003  -7.261   2.306  0.00  0.00    +0.189 HD
ATOM     18  N   UNL     1      -4.592  -6.001   3.753  0.00  0.00    -0.178 NA
BRANCH  13  19
ATOM     19  C   UNL     1      -4.854  -3.983   5.224  0.00  0.00    +0.057 C 
BRANCH  19  21
ATOM     20  C   UNL     1      -6.961  -3.159   6.283  0.00  0.00    +0.004 C 
ATOM     21  C   UNL     1      -6.380  -3.960   5.116  0.00  0.00    +0.003 C 
ENDBRANCH  19  21
ENDBRANCH  13  19
ENDBRANCH   1  15
BRANCH   5  22
ATOM     22  C   UNL     1      -1.289 -10.101   1.998  0.00  0.00    +0.256 C 
ATOM     23  O   UNL     1      -1.193 -11.107   1.328  0.00  0.00    -0.272 OA
ATOM     24  N   UNL     1      -1.741 -10.176   3.265  0.00  0.00    -0.309 N 
ATOM     25  H   UNL     1      -1.818  -9.371   3.801  0.00  0.00    +0.149 HD
BRANCH  24  26
ATOM     26  C   UNL     1      -2.117 -11.473   3.833  0.00  0.00    +0.073 C 
BRANCH  26  27
ATOM     27  C   UNL     1      -1.991 -11.418   5.357  0.00  0.00    +0.019 C 
ATOM     28  C   UNL     1      -0.523 -11.219   5.740  0.00  0.00    +0.006 C 
ENDBRANCH  26  27
BRANCH  26  29
ATOM     29  C   UNL     1      -3.563 -11.796   3.453  0.00  0.00    +0.019 C 
ATOM     30  C   UNL     1      -3.665 -11.974   1.937  0.00  0.00    +0.006 C 
ENDBRANCH  26  29
ENDBRANCH  24  26
ENDBRANCH   5  22
TORSDOF 7
