REMARK  Name = ZINC63165704
REMARK  4 active torsions:
REMARK  status: ('A' for Active; 'I' for Inactive)
REMARK    1  A    between atoms: C_8  and  C_25
REMARK    2  A    between atoms: C_12  and  C_17
REMARK    3  A    between atoms: C_28  and  N_34
REMARK    4  A    between atoms: C_29  and  N_31
REMARK                            x       y       z     vdW  Elec       q    Type
REMARK                         _______ _______ _______ _____ _____    ______ ____
ROOT
ATOM      1  C   UNL     1      -0.016   1.347   0.009  0.00  0.00    +0.001 A 
ATOM      2  C   UNL     1       1.165   2.101   0.002  0.00  0.00    +0.002 A 
ATOM      3  C   UNL     1       2.390   1.534  -0.009  0.00  0.00    +0.026 A 
ATOM      4  C   UNL     1       2.530   0.120  -0.013  0.00  0.00    +0.043 A 
ATOM      5  N   UNL     1       3.592  -0.653  -0.049  0.00  0.00    -0.376 N 
ATOM      6  C   UNL     1       3.157  -2.042   0.059  0.00  0.00    +0.128 C 
ATOM      7  C   UNL     1       3.655  -2.907  -1.102  0.00  0.00    +0.111 C 
ATOM      8  N   UNL     1       2.937  -4.191  -1.064  0.00  0.00    -0.307 NA
ATOM      9  C   UNL     1       1.505  -4.060  -1.352  0.00  0.00    +0.094 C 
ATOM     10  C   UNL     1       0.815  -3.246  -0.242  0.00  0.00    +0.063 C 
ATOM     11  C   UNL     1       1.640  -1.996  -0.034  0.00  0.00    -0.028 C 
ATOM     12  C   UNL     1       1.294  -0.703  -0.015  0.00  0.00    -0.000 A 
ATOM     13  C   UNL     1       0.002  -0.004   0.002  0.00  0.00    +0.010 A 
ATOM     14  H   UNL     1       3.369  -4.865  -1.677  0.00  0.00    +0.123 HD
ATOM     15  H   UNL     1       4.510  -0.351  -0.132  0.00  0.00    +0.160 HD
ENDROOT
BRANCH  10  16
ATOM     16  C   UNL     1      -0.587  -2.884  -0.661  0.00  0.00    -0.021 A 
ATOM     17  C   UNL     1      -0.795  -2.130  -1.800  0.00  0.00    +0.007 A 
ATOM     18  C   UNL     1      -2.080  -1.798  -2.185  0.00  0.00    +0.020 A 
ATOM     19  C   UNL     1      -3.160  -2.221  -1.429  0.00  0.00    +0.042 A 
ATOM     20  C   UNL     1      -2.952  -2.976  -0.289  0.00  0.00    +0.040 A 
ATOM     21  C   UNL     1      -1.665  -3.312   0.093  0.00  0.00    +0.046 A 
ATOM     22 CL   UNL     1      -1.404  -4.265   1.520  0.00  0.00    -0.083 Cl
ATOM     23 CL   UNL     1      -4.774  -1.803  -1.912  0.00  0.00    -0.083 Cl
ENDBRANCH  10  16
BRANCH   7  24
ATOM     24  C   UNL     1       5.136  -3.149  -0.956  0.00  0.00    -0.026 A 
ATOM     25  C   UNL     1       5.594  -4.124  -0.088  0.00  0.00    +0.007 A 
ATOM     26  C   UNL     1       6.949  -4.348   0.047  0.00  0.00    +0.026 A 
ATOM     27  C   UNL     1       7.854  -3.593  -0.690  0.00  0.00    +0.060 A 
ATOM     28  C   UNL     1       7.390  -2.615  -1.561  0.00  0.00    +0.147 A 
ATOM     29  C   UNL     1       6.033  -2.400  -1.695  0.00  0.00    +0.040 A 
BRANCH  27  30
ATOM     30  N   UNL     1       9.226  -3.817  -0.555  0.00  0.00    -0.328 N 
ATOM     31  C   UNL     1      10.111  -3.154   0.412  0.00  0.00    +0.105 C 
ATOM     32  C   UNL     1      11.537  -3.696   0.176  0.00  0.00    +0.020 C 
ATOM     33  C   UNL     1      11.473  -4.214  -1.285  0.00  0.00    +0.020 C 
ATOM     34  C   UNL     1      10.024  -4.763  -1.356  0.00  0.00    +0.105 C 
ENDBRANCH  27  30
BRANCH  28  35
ATOM     35  N   UNL     1       8.350  -1.809  -2.347  0.00  0.00    +0.058 N 
ATOM     36  O   UNL     1       7.946  -0.958  -3.105  0.00  0.00    -0.126 OA
ATOM     37  O   UNL     1       9.538  -2.001  -2.232  0.00  0.00    -0.126 OA
ENDBRANCH  28  35
ENDBRANCH   7  24
TORSDOF 4
