REMARK  Name = ZINC62345743
REMARK  12 active torsions:
REMARK  status: ('A' for Active; 'I' for Inactive)
REMARK    1  A    between atoms: C_1  and  C_2
REMARK    2  A    between atoms: C_2  and  C_3
REMARK    3  A    between atoms: C_3  and  C_4
REMARK    4  A    between atoms: C_4  and  N_5
REMARK    5  A    between atoms: N_5  and  C_6
REMARK    6  A    between atoms: N_5  and  C_7
REMARK    7  A    between atoms: C_7  and  C_8
REMARK    8  A    between atoms: C_8  and  C_10
REMARK    9  A    between atoms: C_12  and  O_18
REMARK   10  A    between atoms: C_15  and  O_16
REMARK   11  A    between atoms: O_16  and  C_17
REMARK   12  A    between atoms: O_18  and  C_19
REMARK                            x       y       z     vdW  Elec       q    Type
REMARK                         _______ _______ _______ _____ _____    ______ ____
ROOT
ATOM      1  C   UNL     1       2.021  -4.491   3.780  0.00  0.00    +0.097 C 
ATOM      2 CL   UNL     1       1.137  -3.786   5.184  0.00  0.00    -0.119 Cl
ENDROOT
BRANCH   1   3
ATOM      3  C   UNL     1       1.936  -5.995   3.836  0.00  0.00    +0.014 A 
ATOM      4  C   UNL     1       3.004  -6.763   3.416  0.00  0.00    +0.054 A 
ATOM      5  C   UNL     1       2.926  -8.147   3.469  0.00  0.00    +0.121 A 
ATOM      6  C   UNL     1       1.774  -8.759   3.942  0.00  0.00    +0.049 A 
ATOM      7  C   UNL     1       0.706  -7.991   4.362  0.00  0.00    +0.049 A 
ATOM      8  C   UNL     1       0.787  -6.607   4.314  0.00  0.00    +0.125 A 
BRANCH   8   9
ATOM      9  O   UNL     1      -0.263  -5.850   4.733  0.00  0.00    -0.495 OA
ATOM     10  C   UNL     1      -1.414  -6.547   5.213  0.00  0.00    +0.277 C 
ENDBRANCH   8   9
BRANCH   5  11
ATOM     11  O   UNL     1       3.977  -8.904   3.055  0.00  0.00    -0.495 OA
ATOM     12  C   UNL     1       3.828 -10.322   3.137  0.00  0.00    +0.277 C 
ENDBRANCH   5  11
ENDBRANCH   1   3
BRANCH   1  13
ATOM     13  C   UNL     1       1.390  -3.993   2.478  0.00  0.00    -0.055 C 
BRANCH  13  14
ATOM     14  N   UNL     1       1.473  -2.527   2.423  0.00  0.00    +0.379 N 
ATOM     15  C   UNL     1       2.883  -2.119   2.353  0.00  0.00    -0.096 C 
ATOM     16  H   UNL     1       1.050  -2.135   3.251  0.00  0.00    -0.082 HD
BRANCH  14  17
ATOM     17  C   UNL     1       0.763  -2.041   1.233  0.00  0.00    -0.079 C 
BRANCH  17  18
ATOM     18  C   UNL     1       0.742  -0.511   1.242  0.00  0.00    -0.019 C 
BRANCH  18  20
ATOM     19  C   UNL     1      -0.019   1.526   0.010  0.00  0.00    +0.004 C 
ATOM     20  C   UNL     1       0.002  -0.004   0.002  0.00  0.00    -0.005 C 
ENDBRANCH  18  20
ENDBRANCH  17  18
ENDBRANCH  14  17
ENDBRANCH  13  14
ENDBRANCH   1  13
TORSDOF 8
