REMARK  Name = ZINC10040925
REMARK  9 active torsions:
REMARK  status: ('A' for Active; 'I' for Inactive)
REMARK    1  A    between atoms: C_1  and  C_2
REMARK    2  A    between atoms: N_4  and  C_5
REMARK    3  A    between atoms: C_5  and  C_7
REMARK    4  A    between atoms: C_5  and  C_18
REMARK    5  A    between atoms: C_7  and  S_8
REMARK    6  A    between atoms: S_8  and  C_9
REMARK    7  A    between atoms: C_13  and  N_15
REMARK    8  A    between atoms: C_23  and  C_26
REMARK    9  A    between atoms: C_26  and  C_27
REMARK                            x       y       z     vdW  Elec       q    Type
REMARK                         _______ _______ _______ _____ _____    ______ ____
ROOT
ATOM      1  C   UNL     1       1.805   7.592   0.025  0.00  0.00    +0.169 C 
ENDROOT
BRANCH   1   2
ATOM      2  C   UNL     1       3.256   7.978  -0.111  0.00  0.00    +0.237 C 
ATOM      3  O   UNL     1       3.893   8.296   0.871  0.00  0.00    -0.274 OA
ATOM      4  N   UNL     1       3.845   7.968  -1.323  0.00  0.00    -0.300 N 
ATOM      5  C   UNL     1       3.088   7.579  -2.520  0.00  0.00    +0.108 C 
ATOM      6  C   UNL     1       3.843   6.468  -3.247  0.00  0.00    +0.023 C 
ATOM      7  C   UNL     1       5.275   6.928  -3.530  0.00  0.00    -0.004 C 
ATOM      8  C   UNL     1       5.991   7.217  -2.208  0.00  0.00    +0.023 C 
ATOM      9  C   UNL     1       5.258   8.342  -1.471  0.00  0.00    +0.108 C 
BRANCH   7  10
ATOM     10  C   UNL     1       6.024   5.828  -4.285  0.00  0.00    +0.038 C 
BRANCH  10  11
ATOM     11  C   UNL     1       5.392   5.629  -5.639  0.00  0.00    -0.047 A 
ATOM     12  C   UNL     1       4.369   4.713  -5.796  0.00  0.00    +0.003 A 
ATOM     13  C   UNL     1       3.787   4.534  -7.037  0.00  0.00    +0.000 A 
ATOM     14  C   UNL     1       4.234   5.263  -8.123  0.00  0.00    +0.000 A 
ATOM     15  C   UNL     1       5.260   6.176  -7.966  0.00  0.00    +0.000 A 
ATOM     16  C   UNL     1       5.839   6.359  -6.724  0.00  0.00    +0.003 A 
ENDBRANCH  10  11
ENDBRANCH   7  10
ENDBRANCH   1   2
BRANCH   1  20
ATOM     17  C   UNL     1       1.278   8.286   3.753  0.00  0.00    +0.109 C 
ATOM     18  C   UNL     1       1.823   7.743   2.457  0.00  0.00    +0.211 C 
ATOM     19  O   UNL     1       2.755   6.967   2.469  0.00  0.00    -0.276 OA
ATOM     20  N   UNL     1       1.275   8.120   1.285  0.00  0.00    -0.303 N 
ATOM     21  H   UNL     1       0.530   8.741   1.275  0.00  0.00    +0.149 HD
ENDBRANCH   1  20
BRANCH   1  22
ATOM     22  C   UNL     1       1.680   6.067   0.018  0.00  0.00    +0.106 C 
BRANCH  22  23
ATOM     23  S   UNL     1      -0.074   5.604   0.032  0.00  0.00    -0.123 S 
BRANCH  23  24
ATOM     24  C   UNL     1      -0.050   3.843   0.023  0.00  0.00    +0.010 A 
ATOM     25  C   UNL     1       1.162   3.163   0.007  0.00  0.00    +0.015 A 
ATOM     26  C   UNL     1       1.177   1.782   0.000  0.00  0.00    +0.003 A 
ATOM     27  C   UNL     1      -0.013   1.076   0.008  0.00  0.00    +0.033 A 
ATOM     28  C   UNL     1      -1.220   1.749   0.017  0.00  0.00    +0.127 A 
ATOM     29  C   UNL     1      -1.243   3.130   0.031  0.00  0.00    +0.047 A 
BRANCH  28  30
ATOM     30  N   UNL     1      -2.490   0.989   0.019  0.00  0.00    +0.056 N 
ATOM     31  O   UNL     1      -2.471  -0.229   0.012  0.00  0.00    -0.126 OA
ATOM     32  O   UNL     1      -3.554   1.581   0.027  0.00  0.00    -0.126 OA
ENDBRANCH  28  30
ENDBRANCH  23  24
ENDBRANCH  22  23
ENDBRANCH   1  22
TORSDOF 8
