REMARK  Name = ZINC22601939
REMARK  4 active torsions:
REMARK  status: ('A' for Active; 'I' for Inactive)
REMARK    1  A    between atoms: C_7  and  C_13
REMARK    2  A    between atoms: N_15  and  C_16
REMARK    3  A    between atoms: C_18  and  C_27
REMARK    4  A    between atoms: C_21  and  N_22
REMARK                            x       y       z     vdW  Elec       q    Type
REMARK                         _______ _______ _______ _____ _____    ______ ____
ROOT
ATOM      1  C   UNL     1      -2.167   0.141   0.635  0.00  0.00    +0.269 C 
ATOM      2  O   UNL     1      -1.998   1.247   1.113  0.00  0.00    -0.268 OA
ATOM      3  N   UNL     1      -1.159  -0.474  -0.013  0.00  0.00    -0.279 N 
ATOM      4  H   UNL     1      -1.332  -1.441  -0.508  0.00  0.00    +0.155 HD
ENDROOT
BRANCH   1  11
ATOM      5  C   UNL     1      -5.549   1.957   2.687  0.00  0.00    +0.001 A 
ATOM      6  C   UNL     1      -6.754   1.272   2.772  0.00  0.00    +0.001 A 
ATOM      7  C   UNL     1      -6.894   0.020   2.213  0.00  0.00    +0.014 A 
ATOM      8  C   UNL     1      -5.812  -0.559   1.558  0.00  0.00    +0.050 A 
ATOM      9  C   UNL     1      -4.583   0.136   1.476  0.00  0.00    +0.020 A 
ATOM     10  C   UNL     1      -4.465   1.400   2.042  0.00  0.00    +0.011 A 
ATOM     11  C   UNL     1      -3.477  -0.526   0.765  0.00  0.00    +0.154 A 
ATOM     12  N   UNL     1      -3.668  -1.718   0.254  0.00  0.00    -0.166 NA
ATOM     13  N   UNL     1      -4.771  -2.364   0.323  0.00  0.00    -0.242 N 
ATOM     14  H   UNL     1      -4.853  -3.362  -0.132  0.00  0.00    +0.192 HD
ATOM     15  C   UNL     1      -5.875  -1.888   0.935  0.00  0.00    +0.272 A 
ATOM     16  O   UNL     1      -6.899  -2.546   0.971  0.00  0.00    -0.266 OA
ENDBRANCH   1  11
BRANCH   3  17
ATOM     17  C   UNL     1       0.110   0.117  -0.056  0.00  0.00    +0.056 A 
ATOM     18  C   UNL     1       0.231   1.492  -0.124  0.00  0.00    +0.038 A 
ATOM     19  C   UNL     1       1.499   2.079  -0.167  0.00  0.00    +0.038 A 
ATOM     20  C   UNL     1       2.640   1.273  -0.140  0.00  0.00    +0.015 A 
ATOM     21  C   UNL     1       2.516  -0.097  -0.071  0.00  0.00    +0.026 A 
ATOM     22  C   UNL     1       1.256  -0.683  -0.029  0.00  0.00    +0.051 A 
BRANCH  22  23
ATOM     23  N   UNL     1       1.135  -2.068   0.040  0.00  0.00    -0.328 N 
ATOM     24  C   UNL     1       2.461  -2.709   0.234  0.00  0.00    +0.105 C 
ATOM     25  C   UNL     1       2.101  -4.104   0.803  0.00  0.00    +0.020 C 
ATOM     26  C   UNL     1       0.895  -3.802   1.723  0.00  0.00    +0.020 C 
ATOM     27  C   UNL     1       0.318  -2.472   1.205  0.00  0.00    +0.105 C 
ENDBRANCH  22  23
BRANCH  19  28
ATOM     28  C   UNL     1       1.632   3.546  -0.240  0.00  0.00    +0.242 C 
ATOM     29  O   UNL     1       0.638   4.246  -0.264  0.00  0.00    -0.270 OA
ATOM     30  N   UNL     1       2.855   4.110  -0.281  0.00  0.00    -0.325 N 
ATOM     31  H   UNL     1       2.955   5.204  -0.336  0.00  0.00    +0.145 HD
ATOM     32  H   UNL     1       3.754   3.477  -0.259  0.00  0.00    +0.145 HD
ENDBRANCH  19  28
ENDBRANCH   3  17
TORSDOF 4
