REMARK  Name = ZINC67400816
REMARK  7 active torsions:
REMARK  status: ('A' for Active; 'I' for Inactive)
REMARK    1  A    between atoms: C_1  and  C_2
REMARK    2  A    between atoms: C_4  and  C_7
REMARK    3  A    between atoms: C_7  and  C_9
REMARK    4  A    between atoms: C_7  and  N_10
REMARK    5  A    between atoms: C_13  and  C_16
REMARK    6  A    between atoms: C_16  and  C_18
REMARK    7  A    between atoms: C_16  and  O_25
REMARK                            x       y       z     vdW  Elec       q    Type
REMARK                         _______ _______ _______ _____ _____    ______ ____
ROOT
ATOM      1  N   UNL     1      -0.926  -4.216  -1.239  0.00  0.00    +0.387 N 
ATOM      2  C   UNL     1      -0.907  -5.360  -2.158  0.00  0.00    -0.077 C 
ATOM      3  C   UNL     1      -1.849  -6.450  -1.642  0.00  0.00    -0.012 C 
ATOM      4  C   UNL     1      -3.271  -5.887  -1.553  0.00  0.00    +0.019 C 
ATOM      5  C   UNL     1      -3.265  -4.650  -0.651  0.00  0.00    -0.012 C 
ATOM      6  C   UNL     1      -2.270  -3.627  -1.204  0.00  0.00    -0.077 C 
ATOM      7  H   UNL     1      -0.672  -4.526  -0.314  0.00  0.00    -0.081 HD
ENDROOT
BRANCH   1   8
ATOM      8  C   UNL     1       0.038  -3.206  -1.697  0.00  0.00    +0.019 C 
ATOM      9  C   UNL     1       1.439  -3.818  -1.734  0.00  0.00    -0.003 C 
BRANCH   8  13
ATOM     10  C   UNL     1      -0.018   1.503   0.010  0.00  0.00    +0.091 C 
ATOM     11  C   UNL     1       0.002  -0.004   0.002  0.00  0.00    +0.169 A 
ATOM     12  N   UNL     1       0.008  -0.776  -1.091  0.00  0.00    -0.198 NA
ATOM     13  C   UNL     1       0.026  -2.034  -0.750  0.00  0.00    +0.214 A 
ATOM     14  O   UNL     1       0.033  -2.107   0.587  0.00  0.00    -0.340 OA
ATOM     15  N   UNL     1       0.023  -0.767   1.057  0.00  0.00    -0.062 NA
ENDBRANCH   8  13
ENDBRANCH   1   8
BRANCH   4  16
ATOM     16  C   UNL     1      -4.204  -6.946  -0.963  0.00  0.00    +0.147 C 
BRANCH  16  17
ATOM     17  C   UNL     1      -5.622  -6.437  -0.990  0.00  0.00    -0.019 A 
ATOM     18  C   UNL     1      -6.058  -5.554  -0.020  0.00  0.00    +0.007 A 
ATOM     19  C   UNL     1      -7.359  -5.087  -0.044  0.00  0.00    +0.020 A 
ATOM     20  C   UNL     1      -8.225  -5.503  -1.040  0.00  0.00    +0.041 A 
ATOM     21  C   UNL     1      -7.788  -6.387  -2.010  0.00  0.00    +0.020 A 
ATOM     22  C   UNL     1      -6.486  -6.849  -1.988  0.00  0.00    +0.007 A 
ATOM     23 CL   UNL     1      -9.858  -4.917  -1.070  0.00  0.00    -0.084 Cl
ENDBRANCH  16  17
BRANCH  16  24
ATOM     24  O   UNL     1      -3.822  -7.219   0.387  0.00  0.00    -0.387 OA
ATOM     25  H   UNL     1      -3.860  -6.448   0.970  0.00  0.00    +0.210 HD
ENDBRANCH  16  24
ENDBRANCH   4  16
TORSDOF 5
