REMARK  Name = ZINC55893020
REMARK  11 active torsions:
REMARK  status: ('A' for Active; 'I' for Inactive)
REMARK    1  A    between atoms: C_1  and  C_2
REMARK    2  A    between atoms: C_4  and  O_25
REMARK    3  A    between atoms: C_7  and  N_8
REMARK    4  A    between atoms: N_8  and  C_9
REMARK    5  A    between atoms: C_9  and  C_10
REMARK    6  A    between atoms: N_15  and  C_16
REMARK    7  A    between atoms: C_22  and  C_24
REMARK    8  A    between atoms: O_25  and  C_26
REMARK    9  A    between atoms: C_26  and  C_27
REMARK   10  A    between atoms: C_27  and  O_29
REMARK   11  A    between atoms: O_29  and  C_30
REMARK                            x       y       z     vdW  Elec       q    Type
REMARK                         _______ _______ _______ _____ _____    ______ ____
ROOT
ATOM      1  C   UNL     1       0.047  -0.752   3.681  0.00  0.00    +0.198 C 
ENDROOT
BRANCH   1   2
ATOM      2  C   UNL     1       0.045   0.220   4.832  0.00  0.00    +0.237 C 
ATOM      3  O   UNL     1       0.027   1.413   4.618  0.00  0.00    -0.274 OA
ATOM      4  N   UNL     1       0.063  -0.236   6.100  0.00  0.00    -0.239 N 
ATOM      5  C   UNL     1       0.061   0.633   7.129  0.00  0.00    +0.306 C 
ATOM      6  O   UNL     1       0.043   1.829   6.915  0.00  0.00    -0.252 OA
ATOM      7  N   UNL     1       0.079   0.177   8.397  0.00  0.00    -0.296 N 
ATOM      8  H   UNL     1       0.078  -1.191   6.271  0.00  0.00    +0.159 HD
ATOM      9  H   UNL     1       0.094  -0.778   8.569  0.00  0.00    +0.151 HD
BRANCH   7  10
ATOM     10  C   UNL     1       0.077   1.122   9.517  0.00  0.00    +0.077 C 
ATOM     11  C   UNL     1      -1.363   1.528   9.839  0.00  0.00    +0.022 C 
ATOM     12  C   UNL     1      -2.170   0.285  10.219  0.00  0.00    +0.002 C 
ATOM     13  C   UNL     1      -1.539  -0.377  11.447  0.00  0.00    +0.000 C 
ATOM     14  C   UNL     1      -0.100  -0.782  11.124  0.00  0.00    +0.005 C 
ATOM     15  C   UNL     1       0.707   0.461  10.744  0.00  0.00    +0.006 C 
ATOM     16  C   UNL     1       2.147   0.055  10.422  0.00  0.00    +0.009 C 
ENDBRANCH   7  10
ENDBRANCH   1   2
BRANCH   1  17
ATOM     17  N   UNL     1       0.025  -0.012   2.416  0.00  0.00    -0.335 N 
ATOM     18  H   UNL     1       0.012   0.958   2.422  0.00  0.00    +0.147 HD
BRANCH  17  25
ATOM     19  C   UNL     1      -0.018   1.503   0.010  0.00  0.00    +0.046 C 
ATOM     20  C   UNL     1       0.002  -0.004   0.002  0.00  0.00    -0.026 A 
ATOM     21  C   UNL     1       0.006  -0.688  -1.198  0.00  0.00    +0.050 A 
ATOM     22  C   UNL     1       0.025  -2.075  -1.206  0.00  0.00    +0.122 A 
ATOM     23  C   UNL     1       0.040  -2.776  -0.009  0.00  0.00    +0.047 A 
ATOM     24  C   UNL     1       0.036  -2.094   1.192  0.00  0.00    +0.027 A 
ATOM     25  C   UNL     1       0.023  -0.705   1.200  0.00  0.00    +0.031 A 
BRANCH  22  26
ATOM     26  O   UNL     1       0.028  -2.748  -2.388  0.00  0.00    -0.481 OA
BRANCH  26  27
ATOM     27  C   UNL     1       0.047  -4.175  -2.321  0.00  0.00    +0.349 C 
BRANCH  27  28
ATOM     28  C   UNL     1       0.048  -4.743  -3.717  0.00  0.00    +0.345 C 
ATOM     29  O   UNL     1       0.033  -4.001  -4.671  0.00  0.00    -0.247 OA
BRANCH  28  30
ATOM     30  O   UNL     1       0.065  -6.072  -3.901  0.00  0.00    -0.466 OA
ATOM     31  C   UNL     1       0.065  -6.541  -5.251  0.00  0.00    +0.280 C 
ENDBRANCH  28  30
ENDBRANCH  27  28
ENDBRANCH  26  27
ENDBRANCH  22  26
ENDBRANCH  17  25
ENDBRANCH   1  17
TORSDOF 8
