REMARK  Name = ZINC00532173
REMARK  3 active torsions:
REMARK  status: ('A' for Active; 'I' for Inactive)
REMARK    1  A    between atoms: C_1  and  C_2
REMARK    2  A    between atoms: C_7  and  C_8
REMARK    3  A    between atoms: C_11  and  C_20
REMARK                            x       y       z     vdW  Elec       q    Type
REMARK                         _______ _______ _______ _____ _____    ______ ____
ROOT
ATOM      1  C   UNL     1       0.243   0.050   2.492  0.00  0.00    +0.143 C 
ATOM      2  C   UNL     1       1.620  -0.212   3.114  0.00  0.00    +0.059 C 
ATOM      3  C   UNL     1       1.646   0.314   4.554  0.00  0.00    +0.107 C 
ATOM      4  N   UNL     1       0.646  -0.429   5.345  0.00  0.00    -0.307 N 
ATOM      5  C   UNL     1      -0.586  -0.635   4.739  0.00  0.00    +0.216 A 
ATOM      6  N   UNL     1      -0.791  -0.413   3.417  0.00  0.00    -0.224 N 
ATOM      7  N   UNL     1      -2.130  -0.714   3.162  0.00  0.00    -0.132 NA
ATOM      8  C   UNL     1      -2.658  -1.091   4.305  0.00  0.00    +0.233 A 
ATOM      9  N   UNL     1      -1.712  -1.045   5.261  0.00  0.00    -0.180 NA
ATOM     10  N   UNL     1      -3.985  -1.481   4.495  0.00  0.00    -0.326 N 
ATOM     11  H   UNL     1       0.839  -0.757   6.237  0.00  0.00    +0.149 HD
ATOM     12  H   UNL     1      -4.600  -1.488   3.745  0.00  0.00    +0.145 HD
ATOM     13  H   UNL     1      -4.291  -1.746   5.376  0.00  0.00    +0.145 HD
ENDROOT
BRANCH   1  20
ATOM     14  C   UNL     1      -0.393   1.473   0.059  0.00  0.00    +0.044 C 
ATOM     15  C   UNL     1      -0.177  -0.018   0.025  0.00  0.00    -0.045 A 
ATOM     16  C   UNL     1      -0.278  -0.705  -1.171  0.00  0.00    +0.004 A 
ATOM     17  C   UNL     1      -0.080  -2.072  -1.202  0.00  0.00    +0.000 A 
ATOM     18  C   UNL     1       0.219  -2.754  -0.037  0.00  0.00    +0.000 A 
ATOM     19  C   UNL     1       0.321  -2.068   1.159  0.00  0.00    +0.006 A 
ATOM     20  C   UNL     1       0.127  -0.699   1.189  0.00  0.00    -0.020 A 
ENDBRANCH   1  20
BRANCH   3  21
ATOM     21  C   UNL     1       1.311   1.783   4.561  0.00  0.00    -0.009 A 
ATOM     22  C   UNL     1       0.036   2.200   4.893  0.00  0.00    +0.007 A 
ATOM     23  C   UNL     1      -0.271   3.548   4.900  0.00  0.00    +0.000 A 
ATOM     24  C   UNL     1       0.697   4.480   4.576  0.00  0.00    +0.001 A 
ATOM     25  C   UNL     1       1.973   4.064   4.244  0.00  0.00    +0.020 A 
ATOM     26  C   UNL     1       2.282   2.716   4.242  0.00  0.00    +0.046 A 
ATOM     27 CL   UNL     1       3.886   2.193   3.832  0.00  0.00    -0.083 Cl
ENDBRANCH   3  21
TORSDOF 2
