REMARK  Name = ZINC04374802
REMARK  11 active torsions:
REMARK  status: ('A' for Active; 'I' for Inactive)
REMARK    1  A    between atoms: C_1  and  O_2
REMARK    2  A    between atoms: O_2  and  C_3
REMARK    3  A    between atoms: C_3  and  C_5
REMARK    4  A    between atoms: C_9  and  N_11
REMARK    5  A    between atoms: N_11  and  C_12
REMARK    6  A    between atoms: C_12  and  C_14
REMARK    7  A    between atoms: C_12  and  C_19
REMARK    8  A    between atoms: N_21  and  C_22
REMARK    9  A    between atoms: C_27  and  C_29
REMARK   10  A    between atoms: C_29  and  N_30
REMARK   11  A    between atoms: C_31  and  C_33
REMARK                            x       y       z     vdW  Elec       q    Type
REMARK                         _______ _______ _______ _____ _____    ______ ____
ROOT
ATOM      1  N   UNL     1       2.382  -4.738   3.102  0.00  0.00    -0.251 N 
ATOM      2  C   UNL     1       2.648  -4.019   4.210  0.00  0.00    +0.238 C 
ATOM      3  O   UNL     1       2.931  -4.583   5.245  0.00  0.00    -0.273 OA
ENDROOT
BRANCH   1   8
ATOM      4  C   UNL     1       1.245  -2.151   0.734  0.00  0.00    +0.061 A 
ATOM      5  C   UNL     1       1.438  -2.812  -0.482  0.00  0.00    +0.015 A 
ATOM      6  C   UNL     1       1.939  -4.097  -0.496  0.00  0.00    +0.003 A 
ATOM      7  C   UNL     1       2.253  -4.735   0.690  0.00  0.00    +0.023 A 
ATOM      8  C   UNL     1       2.064  -4.087   1.904  0.00  0.00    +0.038 A 
ATOM      9  C   UNL     1       1.566  -2.793   1.930  0.00  0.00    +0.038 A 
BRANCH   4  10
ATOM     10  C   UNL     1       0.708  -0.775   0.752  0.00  0.00    +0.339 C 
ATOM     11  O   UNL     1       0.545  -0.201   1.810  0.00  0.00    -0.245 OA
BRANCH  10  13
ATOM     12  C   UNL     1      -0.117   1.173  -0.311  0.00  0.00    +0.280 C 
ATOM     13  O   UNL     1       0.398  -0.157  -0.404  0.00  0.00    -0.464 OA
ENDBRANCH  10  13
ENDBRANCH   4  10
ENDBRANCH   1   8
BRANCH   1  14
ATOM     14  C   UNL     1       2.424  -6.202   3.151  0.00  0.00    +0.233 C 
BRANCH  14  15
ATOM     15  C   UNL     1       1.072  -6.756   2.782  0.00  0.00    +0.135 A 
ATOM     16  C   UNL     1       0.464  -7.802   3.370  0.00  0.00    +0.047 A 
ATOM     17  C   UNL     1      -0.776  -7.976   2.715  0.00  0.00    +0.041 A 
ATOM     18  C   UNL     1      -0.853  -7.026   1.766  0.00  0.00    +0.195 A 
ATOM     19  O   UNL     1       0.267  -6.286   1.815  0.00  0.00    -0.465 OA
ENDBRANCH  14  15
BRANCH  14  20
ATOM     20  C   UNL     1       3.457  -6.707   2.176  0.00  0.00    +0.242 C 
ATOM     21  O   UNL     1       4.094  -5.922   1.507  0.00  0.00    -0.273 OA
ATOM     22  N   UNL     1       3.672  -8.031   2.049  0.00  0.00    -0.311 N 
ATOM     23  H   UNL     1       3.162  -8.659   2.584  0.00  0.00    +0.149 HD
BRANCH  22  24
ATOM     24  C   UNL     1       4.676  -8.523   1.101  0.00  0.00    +0.073 C 
ATOM     25  C   UNL     1       6.059  -8.584   1.782  0.00  0.00    +0.022 C 
ATOM     26  C   UNL     1       6.183 -10.053   2.258  0.00  0.00    +0.002 C 
ATOM     27  C   UNL     1       5.521 -10.844   1.102  0.00  0.00    +0.002 C 
ATOM     28  C   UNL     1       4.334  -9.959   0.669  0.00  0.00    +0.022 C 
ENDBRANCH  22  24
ENDBRANCH  14  20
ENDBRANCH   1  14
BRANCH   2  29
ATOM     29  C   UNL     1       2.596  -2.513   4.162  0.00  0.00    +0.201 C 
BRANCH  29  30
ATOM     30  N   UNL     1       3.469  -1.961   5.200  0.00  0.00    -0.300 N 
ATOM     31  C   UNL     1       3.582  -0.626   5.345  0.00  0.00    +0.280 C 
ATOM     32  O   UNL     1       2.957   0.121   4.614  0.00  0.00    -0.267 OA
ATOM     33  H   UNL     1       3.967  -2.556   5.782  0.00  0.00    +0.150 HD
BRANCH  31  34
ATOM     34  C   UNL     1       4.456  -0.072   6.385  0.00  0.00    +0.189 A 
ATOM     35  C   UNL     1       4.656   1.254   6.643  0.00  0.00    +0.054 A 
ATOM     36  C   UNL     1       5.562   1.324   7.712  0.00  0.00    +0.042 A 
ATOM     37  C   UNL     1       5.871   0.054   8.056  0.00  0.00    +0.196 A 
ATOM     38  O   UNL     1       5.199  -0.784   7.257  0.00  0.00    -0.458 OA
ENDBRANCH  31  34
ENDBRANCH  29  30
ENDBRANCH   2  29
TORSDOF 10
