REMARK  Name = ZINC64450344
REMARK  5 active torsions:
REMARK  status: ('A' for Active; 'I' for Inactive)
REMARK    1  A    between atoms: C_1  and  C_2
REMARK    2  A    between atoms: C_4  and  C_23
REMARK    3  A    between atoms: N_12  and  C_14
REMARK    4  A    between atoms: C_28  and  O_29
REMARK    5  A    between atoms: O_29  and  C_30
REMARK                            x       y       z     vdW  Elec       q    Type
REMARK                         _______ _______ _______ _____ _____    ______ ____
ROOT
ATOM      1  C   UNL     1      -0.025   1.475  -0.316  0.00  0.00    +0.062 C 
ATOM      2  C   UNL     1      -0.020  -0.032  -0.304  0.00  0.00    +0.019 C 
ATOM      3  C   UNL     1      -1.068  -0.769  -0.073  0.00  0.00    -0.008 C 
ATOM      4  C   UNL     1      -2.526  -0.406   0.066  0.00  0.00    +0.062 C 
ATOM      5  C   UNL     1      -3.257  -1.124  -1.079  0.00  0.00    +0.108 C 
ATOM      6  C   UNL     1      -2.689  -2.482  -1.337  0.00  0.00    +0.215 C 
ATOM      7  O   UNL     1      -3.403  -3.256  -1.940  0.00  0.00    -0.276 OA
ATOM      8  N   UNL     1      -1.489  -2.943  -0.982  0.00  0.00    -0.295 N 
ATOM      9  C   UNL     1      -0.610  -2.219  -0.073  0.00  0.00    +0.194 C 
ATOM     10  N   UNL     1       0.781  -2.145  -0.535  0.00  0.00    -0.164 NA
ATOM     11  N   UNL     1       1.101  -0.812  -0.544  0.00  0.00    -0.277 N 
ATOM     12  H   UNL     1      -1.190  -3.792  -1.343  0.00  0.00    +0.151 HD
ATOM     13  H   UNL     1       1.992  -0.462  -0.696  0.00  0.00    +0.166 HD
ENDROOT
BRANCH  10  14
ATOM     14  C   UNL     1       1.673  -2.898   0.357  0.00  0.00    +0.270 C 
ATOM     15  N   UNL     1       1.301  -4.319   0.359  0.00  0.00    -0.350 N 
ATOM     16  C   UNL     1       0.973  -4.635   1.578  0.00  0.00    +0.061 A 
ATOM     17  C   UNL     1       0.521  -5.888   2.198  0.00  0.00    +0.027 A 
ATOM     18  C   UNL     1       0.249  -5.917   3.518  0.00  0.00    +0.002 A 
ATOM     19  C   UNL     1       0.378  -4.786   4.344  0.00  0.00    +0.002 A 
ATOM     20  C   UNL     1       0.785  -3.588   3.877  0.00  0.00    +0.027 A 
ATOM     21  C   UNL     1       1.111  -3.438   2.452  0.00  0.00    +0.061 A 
ATOM     22  N   UNL     1       1.518  -2.428   1.739  0.00  0.00    -0.350 N 
ATOM     23  H   UNL     1       1.299  -4.912  -0.408  0.00  0.00    +0.163 HD
ATOM     24  H   UNL     1       1.688  -1.529   2.062  0.00  0.00    +0.163 HD
ENDBRANCH  10  14
BRANCH   4  25
ATOM     25  C   UNL     1      -2.703   1.085  -0.059  0.00  0.00    +0.003 A 
ATOM     26  C   UNL     1      -2.991   1.843   1.060  0.00  0.00    +0.023 A 
ATOM     27  C   UNL     1      -3.153   3.212   0.946  0.00  0.00    +0.018 A 
ATOM     28  C   UNL     1      -3.027   3.825  -0.288  0.00  0.00    +0.019 A 
ATOM     29  C   UNL     1      -2.738   3.072  -1.408  0.00  0.00    +0.047 A 
ATOM     30  C   UNL     1      -2.570   1.699  -1.296  0.00  0.00    +0.124 A 
ATOM     31 BR   UNL     1      -3.549   4.247   2.479  0.00  0.00    -0.050 Br
BRANCH  30  32
ATOM     32  O   UNL     1      -2.281   0.956  -2.396  0.00  0.00    -0.495 OA
ATOM     33  C   UNL     1      -2.158   1.655  -3.637  0.00  0.00    +0.277 C 
ENDBRANCH  30  32
ENDBRANCH   4  25
TORSDOF 3
