REMARK  Name = ZINC38703057
REMARK  11 active torsions:
REMARK  status: ('A' for Active; 'I' for Inactive)
REMARK    1  A    between atoms: C_1  and  C_2
REMARK    2  A    between atoms: C_7  and  C_8
REMARK    3  A    between atoms: C_14  and  C_19
REMARK    4  A    between atoms: C_22  and  O_27
REMARK    5  A    between atoms: C_23  and  O_25
REMARK    6  A    between atoms: O_25  and  C_26
REMARK    7  A    between atoms: O_27  and  C_28
REMARK    8  A    between atoms: C_28  and  C_29
REMARK    9  A    between atoms: C_29  and  C_30
REMARK   10  A    between atoms: C_30  and  C_31
REMARK   11  A    between atoms: C_30  and  C_32
REMARK                            x       y       z     vdW  Elec       q    Type
REMARK                         _______ _______ _______ _____ _____    ______ ____
ROOT
ATOM      1  C   UNL     1      -0.018   1.503   0.010  0.00  0.00    +0.044 C 
ATOM      2  C   UNL     1       0.002  -0.004   0.002  0.00  0.00    -0.047 A 
ATOM      3  C   UNL     1       0.006  -0.685  -1.195  0.00  0.00    +0.019 A 
ATOM      4  C   UNL     1       0.024  -2.080  -1.194  0.00  0.00    +0.065 A 
ATOM      5  C   UNL     1       0.033  -2.793   0.016  0.00  0.00    +0.140 A 
ATOM      6  C   UNL     1       0.033  -2.080   1.214  0.00  0.00    +0.050 A 
ATOM      7  C   UNL     1       0.023  -0.703   1.200  0.00  0.00    -0.044 A 
ATOM      8  C   UNL     1       0.029   0.053   2.503  0.00  0.00    +0.044 C 
ATOM      9  O   UNL     1       0.037  -4.145   0.057  0.00  0.00    -0.450 OA
ATOM     10  C   UNL     1       0.273  -4.846  -1.070  0.00  0.00    +0.199 A 
ATOM     11  C   UNL     1       0.280  -4.269  -2.308  0.00  0.00    +0.072 A 
ATOM     12  C   UNL     1       0.036  -2.832  -2.474  0.00  0.00    +0.199 A 
ATOM     13  O   UNL     1      -0.140  -2.306  -3.559  0.00  0.00    -0.287 OA
ATOM     14  C   UNL     1       0.566  -5.340  -3.308  0.00  0.00    +0.142 C 
ATOM     15  N   UNL     1       0.729  -6.581  -2.533  0.00  0.00    -0.298 N 
ATOM     16  C   UNL     1       0.557  -6.283  -1.228  0.00  0.00    +0.281 C 
ATOM     17  O   UNL     1       0.627  -7.083  -0.317  0.00  0.00    -0.267 OA
ATOM     18  H   UNL     1       0.925  -7.458  -2.896  0.00  0.00    +0.150 HD
ENDROOT
BRANCH  14  19
ATOM     19  C   UNL     1       1.834  -5.025  -4.060  0.00  0.00    -0.019 A 
ATOM     20  C   UNL     1       3.062  -5.300  -3.486  0.00  0.00    +0.009 A 
ATOM     21  C   UNL     1       4.228  -5.013  -4.171  0.00  0.00    +0.050 A 
ATOM     22  C   UNL     1       4.168  -4.449  -5.436  0.00  0.00    +0.162 A 
ATOM     23  C   UNL     1       2.932  -4.173  -6.013  0.00  0.00    +0.162 A 
ATOM     24  C   UNL     1       1.767  -4.468  -5.323  0.00  0.00    +0.055 A 
BRANCH  23  25
ATOM     25  O   UNL     1       2.868  -3.620  -7.254  0.00  0.00    -0.491 OA
ATOM     26  C   UNL     1       1.565  -3.365  -7.783  0.00  0.00    +0.277 C 
ENDBRANCH  23  25
BRANCH  22  27
ATOM     27  O   UNL     1       5.314  -4.165  -6.111  0.00  0.00    -0.488 OA
BRANCH  27  28
ATOM     28  C   UNL     1       6.546  -4.475  -5.456  0.00  0.00    +0.229 C 
BRANCH  28  29
ATOM     29  C   UNL     1       7.716  -4.089  -6.363  0.00  0.00    +0.044 C 
BRANCH  29  30
ATOM     30  C   UNL     1       9.035  -4.420  -5.662  0.00  0.00    -0.014 C 
ATOM     31  C   UNL     1      10.201  -4.151  -6.615  0.00  0.00    +0.007 C 
ATOM     32  C   UNL     1       9.184  -3.546  -4.415  0.00  0.00    +0.007 C 
ENDBRANCH  29  30
ENDBRANCH  28  29
ENDBRANCH  27  28
ENDBRANCH  22  27
ENDBRANCH  14  19
TORSDOF 6
