REMARK  Name = ZINC13365755
REMARK  6 active torsions:
REMARK  status: ('A' for Active; 'I' for Inactive)
REMARK    1  A    between atoms: C_1  and  C_2
REMARK    2  A    between atoms: C_5  and  N_9
REMARK    3  A    between atoms: N_12  and  C_13
REMARK    4  A    between atoms: C_14  and  C_20
REMARK    5  A    between atoms: C_15  and  C_19
REMARK    6  A    between atoms: N_17  and  C_18
REMARK                            x       y       z     vdW  Elec       q    Type
REMARK                         _______ _______ _______ _____ _____    ______ ____
ROOT
ATOM      1  N   UNL     1      -3.425  -0.888   0.289  0.00  0.00    -0.269 N 
ATOM      2  C   UNL     1      -2.346  -0.084   0.208  0.00  0.00    +0.309 C 
ATOM      3  O   UNL     1      -2.443   1.094   0.493  0.00  0.00    -0.252 OA
ATOM      4  N   UNL     1      -1.160  -0.586  -0.189  0.00  0.00    -0.254 N 
ATOM      5  H   UNL     1      -3.369  -1.806  -0.017  0.00  0.00    +0.156 HD
ATOM      6  H   UNL     1      -1.101  -1.502  -0.501  0.00  0.00    +0.158 HD
ENDROOT
BRANCH   1  11
ATOM      7  C   UNL     1      -8.289   1.105   2.426  0.00  0.00    +0.047 C 
ATOM      8  C   UNL     1      -6.998   0.575   1.858  0.00  0.00    -0.015 A 
ATOM      9  C   UNL     1      -5.791   1.098   2.285  0.00  0.00    +0.008 A 
ATOM     10  C   UNL     1      -4.605   0.611   1.771  0.00  0.00    +0.024 A 
ATOM     11  C   UNL     1      -4.625  -0.397   0.815  0.00  0.00    +0.038 A 
ATOM     12  C   UNL     1      -5.837  -0.921   0.388  0.00  0.00    +0.062 A 
ATOM     13  C   UNL     1      -7.022  -0.434   0.910  0.00  0.00    +0.128 A 
ATOM     14  F   UNL     1      -8.203  -0.943   0.495  0.00  0.00    -0.205 F 
ENDBRANCH   1  11
BRANCH   4  15
ATOM     15  C   UNL     1      -0.020   0.210  -0.150  0.00  0.00    +0.132 A 
ATOM     16  C   UNL     1       1.210  -0.139   0.385  0.00  0.00    +0.040 A 
ATOM     17  C   UNL     1       2.070   0.964   0.208  0.00  0.00    +0.069 A 
ATOM     18  N   UNL     1       1.402   1.912  -0.392  0.00  0.00    -0.174 NA
ATOM     19  N   UNL     1       0.095   1.470  -0.628  0.00  0.00    -0.253 N 
ATOM     20  C   UNL     1      -0.965   2.238  -1.285  0.00  0.00    +0.174 C 
ATOM     21  C   UNL     1       3.513   1.037   0.638  0.00  0.00    +0.068 C 
BRANCH  16  22
ATOM     22  C   UNL     1       1.555  -1.427   1.021  0.00  0.00    -0.039 C 
ATOM     23  C   UNL     1       2.021  -2.387   0.258  0.00  0.00    -0.023 C 
ATOM     24  C   UNL     1       2.408  -3.745   0.767  0.00  0.00    +0.027 C 
ATOM     25  C   UNL     1       2.578  -3.711   2.287  0.00  0.00    +0.004 C 
ATOM     26  C   UNL     1       1.342  -3.039   2.900  0.00  0.00    +0.005 C 
ATOM     27  C   UNL     1       1.345  -1.562   2.501  0.00  0.00    +0.035 C 
ENDBRANCH  16  22
ENDBRANCH   4  15
TORSDOF 3
