REMARK  Name = ZINC08439756
REMARK  10 active torsions:
REMARK  status: ('A' for Active; 'I' for Inactive)
REMARK    1  A    between atoms: C_1  and  C_2
REMARK    2  A    between atoms: N_4  and  C_5
REMARK    3  A    between atoms: C_5  and  C_7
REMARK    4  A    between atoms: C_5  and  C_18
REMARK    5  A    between atoms: C_7  and  C_8
REMARK    6  A    between atoms: N_20  and  C_21
REMARK    7  A    between atoms: C_21  and  C_22
REMARK    8  A    between atoms: C_22  and  O_23
REMARK    9  A    between atoms: O_23  and  C_24
REMARK   10  A    between atoms: C_27  and  C_30
REMARK                            x       y       z     vdW  Elec       q    Type
REMARK                         _______ _______ _______ _____ _____    ______ ____
ROOT
ATOM      1  C   UNL     1      -0.718   1.572   1.248  0.00  0.00    +0.234 C 
ATOM      2  O   UNL     1      -0.292   2.535   1.849  0.00  0.00    -0.274 OA
ATOM      3  N   UNL     1      -1.822   0.936   1.688  0.00  0.00    -0.311 N 
ATOM      4  H   UNL     1      -2.162   0.166   1.207  0.00  0.00    +0.149 HD
ENDROOT
BRANCH   1   5
ATOM      5  C   UNL     1      -0.013   1.086   0.008  0.00  0.00    +0.163 C 
BRANCH   5   9
ATOM      6  C   UNL     1       3.004   3.443  -0.008  0.00  0.00    +0.109 C 
ATOM      7  C   UNL     1       1.590   2.921   0.003  0.00  0.00    +0.211 C 
ATOM      8  O   UNL     1       0.658   3.697   0.016  0.00  0.00    -0.276 OA
ATOM      9  N   UNL     1       1.362   1.593  -0.002  0.00  0.00    -0.304 N 
ATOM     10  H   UNL     1       2.107   0.973  -0.013  0.00  0.00    +0.149 HD
ENDBRANCH   5   9
BRANCH   5  11
ATOM     11  C   UNL     1      -0.753   1.593  -1.232  0.00  0.00    +0.069 C 
BRANCH  11  12
ATOM     12  C   UNL     1      -0.121   1.007  -2.468  0.00  0.00    -0.020 A 
ATOM     13  C   UNL     1       0.821   1.582  -3.232  0.00  0.00    +0.087 A 
ATOM     14  N   UNL     1       1.151   0.752  -4.269  0.00  0.00    -0.360 N 
ATOM     15  H   UNL     1       1.808   0.951  -4.954  0.00  0.00    +0.165 HD
ATOM     16  C   UNL     1       0.412  -0.407  -4.195  0.00  0.00    +0.047 A 
ATOM     17  C   UNL     1      -0.414  -0.300  -3.060  0.00  0.00    +0.003 A 
ATOM     18  C   UNL     1      -1.279  -1.344  -2.729  0.00  0.00    +0.010 A 
ATOM     19  C   UNL     1      -1.318  -2.467  -3.507  0.00  0.00    +0.001 A 
ATOM     20  C   UNL     1      -0.504  -2.578  -4.625  0.00  0.00    +0.002 A 
ATOM     21  C   UNL     1       0.352  -1.556  -4.975  0.00  0.00    +0.026 A 
ENDBRANCH  11  12
ENDBRANCH   5  11
ENDBRANCH   1   5
BRANCH   3  22
ATOM     22  C   UNL     1      -2.508   1.409   2.894  0.00  0.00    +0.145 C 
BRANCH  22  23
ATOM     23  C   UNL     1      -3.720   0.519   3.172  0.00  0.00    +0.247 C 
BRANCH  23  24
ATOM     24  O   UNL     1      -3.279  -0.805   3.482  0.00  0.00    -0.490 OA
BRANCH  24  25
ATOM     25  C   UNL     1      -4.239  -1.727   3.757  0.00  0.00    +0.121 A 
ATOM     26  C   UNL     1      -5.578  -1.364   3.735  0.00  0.00    +0.046 A 
ATOM     27  C   UNL     1      -6.552  -2.304   4.008  0.00  0.00    +0.007 A 
ATOM     28  C   UNL     1      -6.193  -3.603   4.317  0.00  0.00    -0.044 A 
ATOM     29  C   UNL     1      -4.859  -3.966   4.346  0.00  0.00    +0.007 A 
ATOM     30  C   UNL     1      -3.882  -3.031   4.067  0.00  0.00    +0.046 A 
BRANCH  28  31
ATOM     31  C   UNL     1      -7.258  -4.626   4.622  0.00  0.00    +0.019 C 
ATOM     32  C   UNL     1      -8.184  -4.774   3.413  0.00  0.00    +0.008 C 
ATOM     33  C   UNL     1      -9.264  -5.812   3.722  0.00  0.00    +0.001 C 
ATOM     34  C   UNL     1     -10.078  -5.355   4.934  0.00  0.00    +0.000 C 
ATOM     35  C   UNL     1      -9.152  -5.207   6.143  0.00  0.00    +0.001 C 
ATOM     36  C   UNL     1      -8.071  -4.169   5.834  0.00  0.00    +0.008 C 
ENDBRANCH  28  31
ENDBRANCH  24  25
ENDBRANCH  23  24
ENDBRANCH  22  23
ENDBRANCH   3  22
TORSDOF 9
