REMARK  Name = ZINC00058427
REMARK  4 active torsions:
REMARK  status: ('A' for Active; 'I' for Inactive)
REMARK    1  A    between atoms: C_3  and  N_19
REMARK    2  A    between atoms: C_6  and  C_7
REMARK    3  A    between atoms: N_8  and  C_9
REMARK    4  A    between atoms: C_10  and  C_17
REMARK                            x       y       z     vdW  Elec       q    Type
REMARK                         _______ _______ _______ _____ _____    ______ ____
ROOT
ATOM      1  C   UNL     1      -1.259  -0.761   0.011  0.00  0.00    +0.120 C 
ATOM      2  N   UNL     1      -1.237  -2.067   0.003  0.00  0.00    -0.247 NA
ENDROOT
BRANCH   2   3
ATOM      3  C   UNL     1      -2.395  -2.762   0.011  0.00  0.00    +0.119 A 
ATOM      4  C   UNL     1      -2.593  -4.144   0.011  0.00  0.00    +0.088 A 
ATOM      5  C   UNL     1      -3.919  -4.638   0.021  0.00  0.00    -0.018 A 
ATOM      6  C   UNL     1      -4.912  -3.721   0.026  0.00  0.00    -0.004 A 
ATOM      7  S   UNL     1      -4.072  -2.154   0.032  0.00  0.00    -0.073 S 
ATOM      8  C   UNL     1      -6.273  -4.359   0.029  0.00  0.00    +0.043 C 
ATOM      9  C   UNL     1      -6.020  -5.819  -0.409  0.00  0.00    +0.010 C 
ATOM     10  C   UNL     1      -4.558  -6.030   0.031  0.00  0.00    +0.037 C 
BRANCH   4  11
ATOM     11  C   UNL     1      -1.478  -5.042   0.001  0.00  0.00    +0.102 C 
ATOM     12  N   UNL     1      -0.594  -5.755  -0.006  0.00  0.00    -0.191 NA
ENDBRANCH   4  11
ENDBRANCH   2   3
BRANCH   1  18
ATOM     13  C   UNL     1      -0.017   1.395   0.010  0.00  0.00    +0.011 A 
ATOM     14  C   UNL     1       1.170   2.097   0.002  0.00  0.00    +0.033 A 
ATOM     15  C   UNL     1       2.378   1.421  -0.013  0.00  0.00    +0.126 A 
ATOM     16  C   UNL     1       2.405   0.037  -0.021  0.00  0.00    +0.033 A 
ATOM     17  C   UNL     1       1.227  -0.679  -0.014  0.00  0.00    +0.011 A 
ATOM     18  C   UNL     1       0.002  -0.004   0.002  0.00  0.00    -0.007 A 
BRANCH  15  19
ATOM     19  N   UNL     1       3.647   2.182  -0.021  0.00  0.00    +0.056 N 
ATOM     20  O   UNL     1       3.627   3.391  -0.015  0.00  0.00    -0.126 OA
ATOM     21  O   UNL     1       4.704   1.595  -0.035  0.00  0.00    -0.126 OA
ENDBRANCH  15  19
ENDBRANCH   1  18
TORSDOF 4
