REMARK  Name = ZINC61563791
REMARK  5 active torsions:
REMARK  status: ('A' for Active; 'I' for Inactive)
REMARK    1  A    between atoms: C_1  and  C_2
REMARK    2  A    between atoms: C_2  and  N_3
REMARK    3  A    between atoms: C_7  and  C_21
REMARK    4  A    between atoms: C_11  and  C_12
REMARK    5  A    between atoms: C_17  and  N_18
REMARK                            x       y       z     vdW  Elec       q    Type
REMARK                         _______ _______ _______ _____ _____    ______ ____
ROOT
ATOM      1  N   UNL     1      -1.378  -0.546   0.009  0.00  0.00    -0.324 N 
ATOM      2  C   UNL     1      -2.110  -0.921   1.119  0.00  0.00    +0.069 A 
ATOM      3  C   UNL     1      -1.841  -0.970   2.480  0.00  0.00    +0.028 A 
ATOM      4  C   UNL     1      -2.814  -1.405   3.354  0.00  0.00    +0.005 A 
ATOM      5  C   UNL     1      -4.059  -1.795   2.884  0.00  0.00    -0.048 A 
ATOM      6  C   UNL     1      -4.343  -1.755   1.548  0.00  0.00    +0.033 A 
ATOM      7  C   UNL     1      -3.373  -1.316   0.642  0.00  0.00    +0.090 A 
ATOM      8  N   UNL     1      -3.356  -1.168  -0.706  0.00  0.00    -0.227 NA
ATOM      9  C   UNL     1      -2.187  -0.710  -1.084  0.00  0.00    +0.144 A 
ATOM     10  C   UNL     1      -5.109  -2.269   3.856  0.00  0.00    +0.044 C 
ENDROOT
BRANCH   9  11
ATOM     11  C   UNL     1      -1.800  -0.418  -2.478  0.00  0.00    +0.041 A 
ATOM     12  C   UNL     1      -0.602  -0.918  -2.993  0.00  0.00    +0.054 A 
ATOM     13  C   UNL     1      -0.244  -0.642  -4.297  0.00  0.00    +0.159 A 
ATOM     14  C   UNL     1      -1.072   0.132  -5.101  0.00  0.00    +0.160 A 
ATOM     15  C   UNL     1      -2.261   0.632  -4.601  0.00  0.00    +0.064 A 
ATOM     16  C   UNL     1      -2.636   0.358  -3.294  0.00  0.00    +0.038 A 
ATOM     17  F   UNL     1      -0.714   0.397  -6.376  0.00  0.00    -0.202 F 
ATOM     18  F   UNL     1       0.915  -1.127  -4.794  0.00  0.00    -0.202 F 
BRANCH  16  19
ATOM     19  N   UNL     1      -3.836   0.856  -2.791  0.00  0.00    -0.357 N 
ATOM     20  H   UNL     1      -4.058   0.733  -1.855  0.00  0.00    +0.142 HD
ATOM     21  H   UNL     1      -4.450   1.325  -3.378  0.00  0.00    +0.142 HD
ENDBRANCH  16  19
ENDBRANCH   9  11
BRANCH   1  23
ATOM     22  C   UNL     1       0.004   1.472   0.023  0.00  0.00    +0.027 C 
ATOM     23  C   UNL     1       0.003  -0.058   0.003  0.00  0.00    +0.120 C 
ENDBRANCH   1  23
TORSDOF 3
