REMARK  Name = ZINC36601554
REMARK  9 active torsions:
REMARK  status: ('A' for Active; 'I' for Inactive)
REMARK    1  A    between atoms: C_1  and  C_2
REMARK    2  A    between atoms: C_2  and  C_3
REMARK    3  A    between atoms: C_2  and  C_4
REMARK    4  A    between atoms: C_4  and  C_5
REMARK    5  A    between atoms: C_5  and  C_7
REMARK    6  A    between atoms: C_5  and  N_11
REMARK    7  A    between atoms: C_7  and  O_9
REMARK    8  A    between atoms: O_9  and  C_10
REMARK    9  A    between atoms: C_23  and  C_25
REMARK                            x       y       z     vdW  Elec       q    Type
REMARK                         _______ _______ _______ _____ _____    ______ ____
ROOT
ATOM      1  N   UNL     1      -0.456  -2.550   0.712  0.00  0.00    -0.286 N 
ATOM      2  C   UNL     1       0.877  -2.647   0.888  0.00  0.00    +0.304 C 
ATOM      3  O   UNL     1       1.634  -2.119   0.096  0.00  0.00    -0.253 OA
ATOM      4  N   UNL     1       1.371  -3.327   1.941  0.00  0.00    -0.273 N 
ATOM      5  C   UNL     1       0.478  -4.074   2.840  0.00  0.00    +0.116 C 
ATOM      6  C   UNL     1       0.536  -3.447   4.239  0.00  0.00    +0.074 C 
ATOM      7  C   UNL     1       1.976  -3.182   4.593  0.00  0.00    +0.040 A 
ATOM      8  C   UNL     1       2.991  -3.129   3.704  0.00  0.00    +0.062 A 
ATOM      9  N   UNL     1       4.117  -2.870   4.375  0.00  0.00    -0.348 N 
ATOM     10  C   UNL     1       3.841  -2.763   5.648  0.00  0.00    +0.171 A 
ATOM     11  N   UNL     1       2.513  -2.953   5.824  0.00  0.00    -0.349 N 
ATOM     12  H   UNL     1       2.033  -2.930   6.667  0.00  0.00    +0.166 HD
ATOM     13  C   UNL     1       2.819  -3.346   2.216  0.00  0.00    +0.159 C 
ATOM     14  H   UNL     1      -1.060  -2.905   1.383  0.00  0.00    +0.151 HD
ATOM     15  H   UNL     1       4.998  -2.776   3.980  0.00  0.00    +0.167 HD
ENDROOT
BRANCH  13  16
ATOM     16  C   UNL     1       3.399  -4.679   1.817  0.00  0.00    +0.017 A 
ATOM     17  C   UNL     1       3.711  -5.614   2.787  0.00  0.00    +0.011 A 
ATOM     18  C   UNL     1       4.243  -6.837   2.424  0.00  0.00    +0.042 A 
ATOM     19  C   UNL     1       4.465  -7.127   1.088  0.00  0.00    +0.161 A 
ATOM     20  C   UNL     1       4.154  -6.191   0.115  0.00  0.00    +0.194 A 
ATOM     21  C   UNL     1       3.615  -4.967   0.481  0.00  0.00    +0.167 A 
ATOM     22  F   UNL     1       3.304  -4.055  -0.466  0.00  0.00    -0.202 F 
ATOM     23  F   UNL     1       4.370  -6.472  -1.188  0.00  0.00    -0.199 F 
ATOM     24  F   UNL     1       4.986  -8.322   0.734  0.00  0.00    -0.202 F 
ENDBRANCH  13  16
BRANCH   1  25
ATOM     25  C   UNL     1      -0.992  -1.910  -0.491  0.00  0.00    +0.183 C 
BRANCH  25  26
ATOM     26  C   UNL     1      -2.331  -2.514  -0.827  0.00  0.00    +0.327 C 
ATOM     27  O   UNL     1      -2.791  -3.389  -0.132  0.00  0.00    -0.249 OA
BRANCH  26  28
ATOM     28  O   UNL     1      -3.014  -2.079  -1.898  0.00  0.00    -0.467 OA
ATOM     29  C   UNL     1      -4.277  -2.695  -2.157  0.00  0.00    +0.280 C 
ENDBRANCH  26  28
ENDBRANCH  25  26
BRANCH  25  30
ATOM     30  C   UNL     1      -1.157  -0.410  -0.241  0.00  0.00    +0.036 C 
BRANCH  30  32
ATOM     31  C   UNL     1      -1.852   1.759  -1.268  0.00  0.00    +0.007 C 
ATOM     32  C   UNL     1      -1.549   0.285  -1.546  0.00  0.00    -0.015 C 
ATOM     33  C   UNL     1      -0.396   0.181  -2.546  0.00  0.00    +0.007 C 
ENDBRANCH  30  32
ENDBRANCH  25  30
ENDBRANCH   1  25
TORSDOF 6
