REMARK  Name = ZINC64310963
REMARK  10 active torsions:
REMARK  status: ('A' for Active; 'I' for Inactive)
REMARK    1  A    between atoms: C_1  and  C_2
REMARK    2  A    between atoms: C_2  and  C_3
REMARK    3  A    between atoms: C_3  and  C_4
REMARK    4  A    between atoms: C_4  and  C_5
REMARK    5  A    between atoms: C_4  and  N_19
REMARK    6  A    between atoms: N_7  and  C_8
REMARK    7  A    between atoms: C_8  and  C_9
REMARK    8  A    between atoms: C_8  and  C_10
REMARK    9  A    between atoms: C_10  and  C_11
REMARK   10  A    between atoms: C_11  and  C_12
REMARK                            x       y       z     vdW  Elec       q    Type
REMARK                         _______ _______ _______ _____ _____    ______ ____
ROOT
ATOM      1  C   UNL     1       1.334  -2.514  -2.561  0.00  0.00    +0.234 C 
ATOM      2  O   UNL     1       2.492  -2.873  -2.600  0.00  0.00    -0.274 OA
ATOM      3  N   UNL     1       0.579  -2.552  -3.677  0.00  0.00    -0.311 N 
ATOM      4  H   UNL     1      -0.347  -2.266  -3.646  0.00  0.00    +0.149 HD
ENDROOT
BRANCH   3   5
ATOM      5  C   UNL     1       1.157  -3.026  -4.937  0.00  0.00    +0.070 C 
ATOM      6  C   UNL     1       1.873  -1.868  -5.637  0.00  0.00    +0.028 C 
BRANCH   5   7
ATOM      7  C   UNL     1       0.044  -3.558  -5.841  0.00  0.00    +0.026 C 
BRANCH   7   8
ATOM      8  C   UNL     1      -0.590  -4.793  -5.197  0.00  0.00    +0.037 C 
BRANCH   8   9
ATOM      9  C   UNL     1      -1.687  -5.317  -6.088  0.00  0.00    -0.047 A 
ATOM     10  C   UNL     1      -2.980  -4.853  -5.937  0.00  0.00    +0.005 A 
ATOM     11  C   UNL     1      -3.987  -5.333  -6.753  0.00  0.00    +0.015 A 
ATOM     12  C   UNL     1      -3.699  -6.278  -7.722  0.00  0.00    +0.018 A 
ATOM     13  C   UNL     1      -2.405  -6.742  -7.873  0.00  0.00    +0.015 A 
ATOM     14  C   UNL     1      -1.398  -6.257  -7.059  0.00  0.00    +0.005 A 
ATOM     15 BR   UNL     1      -5.076  -6.936  -8.840  0.00  0.00    -0.050 Br
ENDBRANCH   8   9
ENDBRANCH   7   8
ENDBRANCH   5   7
ENDBRANCH   3   5
BRANCH   1  16
ATOM     16  C   UNL     1       0.739  -2.027  -1.265  0.00  0.00    +0.160 C 
BRANCH  16  17
ATOM     17  N   UNL     1       1.548  -2.511  -0.144  0.00  0.00    -0.288 N 
ATOM     18  C   UNL     1       2.849  -2.168  -0.055  0.00  0.00    +0.298 C 
ATOM     19  O   UNL     1       3.350  -1.458  -0.904  0.00  0.00    -0.253 OA
ATOM     20  N   UNL     1       3.594  -2.613   0.977  0.00  0.00    -0.313 N 
ATOM     21  H   UNL     1       1.149  -3.078   0.534  0.00  0.00    +0.151 HD
ATOM     22  H   UNL     1       3.194  -3.180   1.655  0.00  0.00    +0.146 HD
ATOM     23  H   UNL     1       4.529  -2.366   1.041  0.00  0.00    +0.146 HD
ENDBRANCH  16  17
BRANCH  16  24
ATOM     24  C   UNL     1       0.718  -0.497  -1.257  0.00  0.00    +0.031 C 
BRANCH  24  26
ATOM     25  C   UNL     1      -0.019   1.526   0.010  0.00  0.00    +0.004 C 
ATOM     26  C   UNL     1       0.002  -0.004   0.002  0.00  0.00    -0.001 C 
ENDBRANCH  24  26
ENDBRANCH  16  24
ENDBRANCH   1  16
TORSDOF 8
