REMARK  Name = ZINC36018766
REMARK  18 active torsions:
REMARK  status: ('A' for Active; 'I' for Inactive)
REMARK    1  A    between atoms: C_1  and  C_2
REMARK    2  A    between atoms: C_2  and  C_3
REMARK    3  A    between atoms: N_5  and  C_6
REMARK    4  A    between atoms: N_5  and  C_12
REMARK    5  A    between atoms: C_6  and  C_7
REMARK    6  A    between atoms: C_7  and  C_8
REMARK    7  A    between atoms: C_8  and  O_9
REMARK    8  A    between atoms: O_9  and  C_10
REMARK    9  A    between atoms: C_10  and  C_11
REMARK   10  A    between atoms: C_12  and  C_13
REMARK   11  A    between atoms: C_13  and  C_15
REMARK   12  A    between atoms: C_16  and  C_27
REMARK   13  A    between atoms: C_17  and  C_23
REMARK   14  A    between atoms: N_18  and  C_21
REMARK   15  A    between atoms: C_19  and  C_20
REMARK   16  A    between atoms: C_21  and  C_22
REMARK   17  A    between atoms: C_23  and  O_25
REMARK   18  A    between atoms: O_25  and  C_26
REMARK                            x       y       z     vdW  Elec       q    Type
REMARK                         _______ _______ _______ _____ _____    ______ ____
ROOT
ATOM      1  C   UNL     1      -0.110  -3.121   1.385  0.00  0.00    +0.182 C 
ATOM      2  O   UNL     1      -0.654  -2.551   2.308  0.00  0.00    -0.290 OA
ENDROOT
BRANCH   1   3
ATOM      3  C   UNL     1       0.924  -4.126   1.652  0.00  0.00    +0.043 A 
ATOM      4  C   UNL     1       2.300  -3.879   1.875  0.00  0.00    -0.008 A 
ATOM      5  C   UNL     1       2.893  -5.089   2.081  0.00  0.00    +0.131 A 
ATOM      6  N   UNL     1       1.926  -6.068   1.991  0.00  0.00    -0.338 N 
ATOM      7  C   UNL     1       0.740  -5.497   1.738  0.00  0.00    +0.027 A 
ATOM      8  C   UNL     1      -0.571  -6.223   1.573  0.00  0.00    +0.064 C 
ATOM      9  C   UNL     1       2.980  -2.534   1.883  0.00  0.00    +0.047 C 
BRANCH   6  10
ATOM     10  C   UNL     1       2.158  -7.506   2.151  0.00  0.00    +0.119 C 
ATOM     11  C   UNL     1       1.988  -7.889   3.623  0.00  0.00    +0.027 C 
ENDBRANCH   6  10
BRANCH   5  12
ATOM     12  C   UNL     1       4.317  -5.312   2.352  0.00  0.00    +0.356 C 
ATOM     13  O   UNL     1       5.080  -4.367   2.408  0.00  0.00    -0.243 OA
BRANCH  12  14
ATOM     14  O   UNL     1       4.780  -6.564   2.538  0.00  0.00    -0.463 OA
ATOM     15  C   UNL     1       6.179  -6.707   2.797  0.00  0.00    +0.280 C 
ENDBRANCH  12  14
ENDBRANCH   5  12
ENDBRANCH   1   3
BRANCH   1  16
ATOM     16  C   UNL     1      -0.498  -2.797  -0.035  0.00  0.00    +0.187 C 
BRANCH  16  19
ATOM     17  C   UNL     1      -1.399  -0.533  -0.029  0.00  0.00    +0.216 C 
ATOM     18  O   UNL     1      -2.332   0.241  -0.026  0.00  0.00    -0.276 OA
ATOM     19  N   UNL     1      -1.625  -1.862  -0.031  0.00  0.00    -0.294 N 
BRANCH  17  21
ATOM     20  C   UNL     1      -0.008   1.520  -0.025  0.00  0.00    +0.013 C 
ATOM     21  C   UNL     1       0.015  -0.010  -0.028  0.00  0.00    +0.092 C 
ENDBRANCH  17  21
BRANCH  19  22
ATOM     22  C   UNL     1      -2.999  -2.370  -0.032  0.00  0.00    +0.110 C 
BRANCH  22  23
ATOM     23  C   UNL     1      -3.479  -2.544  -1.474  0.00  0.00    +0.047 C 
BRANCH  23  24
ATOM     24  C   UNL     1      -4.913  -3.075  -1.474  0.00  0.00    +0.161 C 
BRANCH  24  25
ATOM     25  O   UNL     1      -5.361  -3.238  -2.821  0.00  0.00    -0.380 OA
BRANCH  25  26
ATOM     26  C   UNL     1      -6.697  -3.732  -2.934  0.00  0.00    +0.156 C 
ATOM     27  C   UNL     1      -7.068  -3.865  -4.413  0.00  0.00    +0.034 C 
ENDBRANCH  25  26
ENDBRANCH  24  25
ENDBRANCH  23  24
ENDBRANCH  22  23
ENDBRANCH  19  22
ENDBRANCH  16  19
ENDBRANCH   1  16
TORSDOF 12
