REMARK  Name = ZINC59580948
REMARK  8 active torsions:
REMARK  status: ('A' for Active; 'I' for Inactive)
REMARK    1  A    between atoms: C_1  and  C_2
REMARK    2  A    between atoms: C_2  and  C_3
REMARK    3  A    between atoms: C_2  and  C_4
REMARK    4  A    between atoms: C_2  and  O_22
REMARK    5  A    between atoms: N_6  and  C_7
REMARK    6  A    between atoms: C_7  and  C_8
REMARK    7  A    between atoms: N_11  and  C_13
REMARK    8  A    between atoms: O_22  and  C_23
REMARK                            x       y       z     vdW  Elec       q    Type
REMARK                         _______ _______ _______ _____ _____    ______ ____
ROOT
ATOM      1  C   UNL     1      -1.153  -0.353   0.534  0.00  0.00    +0.257 C 
ATOM      2  O   UNL     1      -1.928  -0.946  -0.185  0.00  0.00    -0.271 OA
ATOM      3  N   UNL     1      -1.537   0.028   1.769  0.00  0.00    -0.306 N 
ATOM      4  H   UNL     1      -0.917   0.502   2.345  0.00  0.00    +0.149 HD
ENDROOT
BRANCH   1   6
ATOM      5  C   UNL     1       0.453   1.474   0.051  0.00  0.00    +0.065 C 
ATOM      6  C   UNL     1       0.239  -0.041   0.049  0.00  0.00    +0.180 C 
ATOM      7  C   UNL     1       1.262  -0.703   0.974  0.00  0.00    +0.065 C 
BRANCH   6   8
ATOM      8  O   UNL     1       0.404  -0.543  -1.279  0.00  0.00    -0.477 OA
BRANCH   8   9
ATOM      9  C   UNL     1       0.266  -1.884  -1.454  0.00  0.00    +0.122 A 
ATOM     10  C   UNL     1      -0.147  -2.683  -0.397  0.00  0.00    +0.047 A 
ATOM     11  C   UNL     1      -0.286  -4.046  -0.577  0.00  0.00    +0.023 A 
ATOM     12  C   UNL     1      -0.014  -4.614  -1.808  0.00  0.00    +0.041 A 
ATOM     13  C   UNL     1       0.398  -3.819  -2.863  0.00  0.00    +0.023 A 
ATOM     14  C   UNL     1       0.532  -2.455  -2.690  0.00  0.00    +0.047 A 
ATOM     15 CL   UNL     1      -0.190  -6.327  -2.031  0.00  0.00    -0.084 Cl
ENDBRANCH   8   9
ENDBRANCH   6   8
ENDBRANCH   1   6
BRANCH   3  16
ATOM     16  C   UNL     1      -2.890  -0.275   2.241  0.00  0.00    +0.162 C 
BRANCH  16  17
ATOM     17  C   UNL     1      -3.063   0.254   3.642  0.00  0.00    +0.084 A 
ATOM     18  C   UNL     1      -2.785  -0.446   4.825  0.00  0.00    -0.002 A 
ATOM     19  C   UNL     1      -3.069   0.369   5.865  0.00  0.00    +0.048 A 
ATOM     20  N   UNL     1      -3.513   1.545   5.359  0.00  0.00    -0.236 N 
ATOM     21  N   UNL     1      -3.495   1.446   3.962  0.00  0.00    -0.169 NA
ATOM     22  C   UNL     1      -2.788  -0.334   7.175  0.00  0.00    +0.056 C 
ATOM     23  C   UNL     1      -2.702  -1.833   6.813  0.00  0.00    +0.011 C 
ATOM     24  C   UNL     1      -2.281  -1.781   5.328  0.00  0.00    +0.039 C 
BRANCH  20  25
ATOM     25  C   UNL     1      -3.915   2.663   6.101  0.00  0.00    +0.066 A 
ATOM     26  C   UNL     1      -4.562   2.495   7.318  0.00  0.00    +0.028 A 
ATOM     27  C   UNL     1      -4.957   3.599   8.048  0.00  0.00    +0.002 A 
ATOM     28  C   UNL     1      -4.709   4.872   7.568  0.00  0.00    +0.000 A 
ATOM     29  C   UNL     1      -4.065   5.043   6.356  0.00  0.00    +0.002 A 
ATOM     30  C   UNL     1      -3.662   3.943   5.625  0.00  0.00    +0.028 A 
ENDBRANCH  20  25
ENDBRANCH  16  17
ENDBRANCH   3  16
TORSDOF 6
