REMARK  Name = ZINC39711500
REMARK  13 active torsions:
REMARK  status: ('A' for Active; 'I' for Inactive)
REMARK    1  A    between atoms: C_1  and  C_2
REMARK    2  A    between atoms: C_2  and  O_3
REMARK    3  A    between atoms: O_3  and  C_4
REMARK    4  A    between atoms: C_11  and  C_16
REMARK    5  A    between atoms: C_16  and  C_18
REMARK    6  A    between atoms: C_16  and  N_28
REMARK    7  A    between atoms: N_23  and  C_24
REMARK    8  A    between atoms: C_24  and  C_25
REMARK    9  A    between atoms: C_24  and  C_26
REMARK   10  A    between atoms: C_24  and  C_27
REMARK   11  A    between atoms: N_31  and  C_34
REMARK   12  A    between atoms: C_37  and  O_40
REMARK   13  A    between atoms: O_40  and  C_41
REMARK                            x       y       z     vdW  Elec       q    Type
REMARK                         _______ _______ _______ _____ _____    ______ ____
ROOT
ATOM      1  C   UNL     1       3.876  -5.986  -4.346  0.00  0.00    -0.009 C 
ENDROOT
BRANCH   1   9
ATOM      2  C   UNL     1       1.901  -9.814  -0.406  0.00  0.00    +0.121 A 
ATOM      3  C   UNL     1       0.978 -10.344  -1.315  0.00  0.00    +0.047 A 
ATOM      4  C   UNL     1       0.684  -9.740  -2.496  0.00  0.00    +0.027 A 
ATOM      5  C   UNL     1       1.311  -8.533  -2.857  0.00  0.00    +0.041 A 
ATOM      6  N   UNL     1       1.013  -7.951  -4.019  0.00  0.00    -0.285 N 
ATOM      7  C   UNL     1       1.563  -6.818  -4.421  0.00  0.00    +0.223 C 
ATOM      8  O   UNL     1       1.251  -6.334  -5.493  0.00  0.00    -0.275 OA
ATOM      9  C   UNL     1       2.581  -6.125  -3.543  0.00  0.00    +0.088 C 
ATOM     10  C   UNL     1       2.924  -6.783  -2.221  0.00  0.00    -0.006 C 
ATOM     11  C   UNL     1       2.287  -7.950  -1.920  0.00  0.00    -0.004 A 
ATOM     12  C   UNL     1       2.555  -8.647  -0.662  0.00  0.00    +0.055 A 
ATOM     13  H   UNL     1       0.363  -8.380  -4.597  0.00  0.00    +0.155 HD
BRANCH   2  14
ATOM     14  O   UNL     1       2.144 -10.474   0.757  0.00  0.00    -0.492 OA
BRANCH  14  16
ATOM     15  C   UNL     1       1.833 -12.286   2.325  0.00  0.00    +0.048 C 
ATOM     16  C   UNL     1       1.431 -11.693   0.974  0.00  0.00    +0.225 C 
ENDBRANCH  14  16
ENDBRANCH   2  14
ENDBRANCH   1   9
BRANCH   1  17
ATOM     17  N   UNL     1       4.204  -7.273  -4.975  0.00  0.00    +0.387 N 
ATOM     18  C   UNL     1       5.646  -7.331  -5.245  0.00  0.00    -0.059 C 
ATOM     19  C   UNL     1       6.006  -8.715  -5.794  0.00  0.00    +0.086 C 
ATOM     20  N   UNL     1       5.157  -8.988  -6.964  0.00  0.00    -0.333 N 
ATOM     21  C   UNL     1       3.705  -8.796  -6.828  0.00  0.00    +0.086 C 
ATOM     22  C   UNL     1       3.454  -7.408  -6.230  0.00  0.00    -0.059 C 
ATOM     23  H   UNL     1       3.950  -8.024  -4.351  0.00  0.00    -0.081 HD
BRANCH  20  24
ATOM     24  C   UNL     1       5.715  -9.418  -8.173  0.00  0.00    +0.030 A 
ATOM     25  C   UNL     1       7.073  -9.700  -8.251  0.00  0.00    +0.027 A 
ATOM     26  C   UNL     1       7.623 -10.125  -9.444  0.00  0.00    +0.047 A 
ATOM     27  C   UNL     1       6.820 -10.270 -10.565  0.00  0.00    +0.120 A 
ATOM     28  C   UNL     1       5.464  -9.989 -10.489  0.00  0.00    +0.047 A 
ATOM     29  C   UNL     1       4.911  -9.569  -9.295  0.00  0.00    +0.027 A 
BRANCH  27  30
ATOM     30  O   UNL     1       7.362 -10.689 -11.740  0.00  0.00    -0.495 OA
ATOM     31  C   UNL     1       6.477 -10.816 -12.855  0.00  0.00    +0.277 C 
ENDBRANCH  27  30
ENDBRANCH  20  24
ENDBRANCH   1  17
BRANCH   1  32
ATOM     32  C   UNL     1       5.014  -5.571  -3.412  0.00  0.00    +0.205 C 
ATOM     33  N   UNL     1       5.131  -6.518  -2.295  0.00  0.00    -0.152 NA
ATOM     34  N   UNL     1       4.937  -5.914  -1.238  0.00  0.00    -0.070 NA
ATOM     35  N   UNL     1       4.674  -4.558  -1.428  0.00  0.00    -0.179 N 
ATOM     36  N   UNL     1       4.708  -4.275  -2.771  0.00  0.00    -0.183 NA
ATOM     37  H   UNL     1       4.495  -3.916  -0.723  0.00  0.00    +0.191 HD
BRANCH  36  38
ATOM     38  C   UNL     1       3.416  -3.751  -3.233  0.00  0.00    +0.035 C 
ATOM     39  C   UNL     1       2.296  -4.307  -2.352  0.00  0.00    +0.029 C 
ATOM     40  C   UNL     1       3.424  -2.224  -3.144  0.00  0.00    +0.029 C 
ATOM     41  C   UNL     1       3.183  -4.176  -4.684  0.00  0.00    +0.029 C 
ENDBRANCH  36  38
ENDBRANCH   1  32
TORSDOF 8
