REMARK  Name = ZINC09297967
REMARK  8 active torsions:
REMARK  status: ('A' for Active; 'I' for Inactive)
REMARK    1  A    between atoms: C_1  and  O_2
REMARK    2  A    between atoms: O_2  and  C_3
REMARK    3  A    between atoms: C_6  and  C_8
REMARK    4  A    between atoms: C_12  and  N_13
REMARK    5  A    between atoms: C_14  and  C_16
REMARK    6  A    between atoms: C_16  and  C_17
REMARK    7  A    between atoms: C_17  and  S_18
REMARK    8  A    between atoms: S_18  and  C_19
REMARK                            x       y       z     vdW  Elec       q    Type
REMARK                         _______ _______ _______ _____ _____    ______ ____
ROOT
ATOM      1  C   UNL     1      -0.088   1.152   6.178  0.00  0.00    +0.069 A 
ATOM      2  C   UNL     1       0.783   0.548   7.172  0.00  0.00    -0.023 A 
ATOM      3  C   UNL     1       1.818  -0.162   6.675  0.00  0.00    -0.004 A 
ATOM      4  S   UNL     1       1.645  -0.046   4.917  0.00  0.00    -0.077 S 
ATOM      5  C   UNL     1       0.217   0.933   4.841  0.00  0.00    +0.084 A 
ATOM      6  C   UNL     1       2.873  -0.885   7.454  0.00  0.00    +0.043 C 
ATOM      7  C   UNL     1       2.826  -0.392   8.907  0.00  0.00    +0.005 C 
ATOM      8  C   UNL     1       1.371  -0.408   9.386  0.00  0.00    +0.005 C 
ATOM      9  C   UNL     1       0.578   0.690   8.676  0.00  0.00    +0.037 C 
ENDROOT
BRANCH   1  13
ATOM     10  C   UNL     1      -2.182   4.028   7.108  0.00  0.00    +0.407 C 
ATOM     11  O   UNL     1      -3.261   3.497   7.275  0.00  0.00    -0.226 OA
ATOM     12  N   UNL     1      -1.115   3.287   6.746  0.00  0.00    -0.217 N 
ATOM     13  C   UNL     1      -1.247   1.957   6.571  0.00  0.00    +0.255 C 
ATOM     14  O   UNL     1      -2.329   1.426   6.738  0.00  0.00    -0.270 OA
ATOM     15  H   UNL     1      -0.253   3.711   6.612  0.00  0.00    +0.161 HD
BRANCH  10  17
ATOM     16  C   UNL     1      -3.241   6.091   7.672  0.00  0.00    +0.282 C 
ATOM     17  O   UNL     1      -2.050   5.356   7.283  0.00  0.00    -0.453 OA
ENDBRANCH  10  17
ENDBRANCH   1  13
BRANCH   5  18
ATOM     18  N   UNL     1      -0.453   1.393   3.718  0.00  0.00    -0.279 N 
ATOM     19  C   UNL     1       0.000   1.080   2.488  0.00  0.00    +0.218 C 
ATOM     20  O   UNL     1       0.994   0.397   2.363  0.00  0.00    -0.275 OA
ATOM     21  H   UNL     1      -1.248   1.939   3.817  0.00  0.00    +0.155 HD
BRANCH  19  22
ATOM     22  C   UNL     1      -0.729   1.579   1.267  0.00  0.00    +0.107 C 
BRANCH  22  23
ATOM     23  C   UNL     1      -0.013   1.086   0.008  0.00  0.00    +0.083 C 
BRANCH  23  24
ATOM     24  S   UNL     1      -0.890   1.687  -1.462  0.00  0.00    -0.125 S 
BRANCH  24  25
ATOM     25  C   UNL     1       0.045   1.043  -2.809  0.00  0.00    +0.008 A 
ATOM     26  C   UNL     1       1.176   0.273  -2.567  0.00  0.00    +0.016 A 
ATOM     27  C   UNL     1       1.904  -0.234  -3.625  0.00  0.00    +0.021 A 
ATOM     28  C   UNL     1       1.514   0.032  -4.926  0.00  0.00    +0.041 A 
ATOM     29  C   UNL     1       0.391   0.803  -5.170  0.00  0.00    +0.021 A 
ATOM     30  C   UNL     1      -0.344   1.309  -4.116  0.00  0.00    +0.016 A 
ATOM     31 CL   UNL     1       2.435  -0.603  -6.254  0.00  0.00    -0.084 Cl
ENDBRANCH  24  25
ENDBRANCH  23  24
ENDBRANCH  22  23
ENDBRANCH  19  22
ENDBRANCH   5  18
TORSDOF 7
