REMARK  Name = ZINC02871986
REMARK  17 active torsions:
REMARK  status: ('A' for Active; 'I' for Inactive)
REMARK    1  A    between atoms: C_1  and  C_2
REMARK    2  A    between atoms: C_2  and  N_3
REMARK    3  A    between atoms: C_4  and  C_25
REMARK    4  A    between atoms: C_7  and  S_8
REMARK    5  A    between atoms: S_8  and  C_9
REMARK    6  A    between atoms: C_9  and  C_10
REMARK    7  A    between atoms: N_12  and  C_13
REMARK    8  A    between atoms: C_14  and  C_20
REMARK    9  A    between atoms: C_15  and  C_19
REMARK   10  A    between atoms: C_16  and  C_18
REMARK   11  A    between atoms: C_20  and  O_22
REMARK   12  A    between atoms: O_22  and  C_23
REMARK   13  A    between atoms: C_23  and  C_24
REMARK   14  A    between atoms: C_27  and  O_33
REMARK   15  A    between atoms: C_29  and  O_31
REMARK   16  A    between atoms: O_31  and  C_32
REMARK   17  A    between atoms: O_33  and  C_34
REMARK                            x       y       z     vdW  Elec       q    Type
REMARK                         _______ _______ _______ _____ _____    ______ ____
ROOT
ATOM      1  S   UNL     1      -1.540  -4.165  -6.155  0.00  0.00    -0.077 S 
ENDROOT
BRANCH   1   6
ATOM      2  N   UNL     1      -1.206  -3.736  -8.899  0.00  0.00    -0.302 N 
ATOM      3  C   UNL     1      -1.196  -2.646  -9.738  0.00  0.00    +0.165 A 
ATOM      4  N   UNL     1      -1.387  -1.583  -8.992  0.00  0.00    -0.128 NA
ATOM      5  N   UNL     1      -1.520  -1.929  -7.761  0.00  0.00    -0.122 NA
ATOM      6  C   UNL     1      -1.422  -3.235  -7.647  0.00  0.00    +0.192 A 
BRANCH   3   7
ATOM      7  C   UNL     1      -0.999  -2.667 -11.203  0.00  0.00    +0.026 A 
ATOM      8  C   UNL     1      -0.617  -1.505 -11.874  0.00  0.00    +0.057 A 
ATOM      9  C   UNL     1      -0.428  -1.531 -13.246  0.00  0.00    +0.124 A 
ATOM     10  C   UNL     1      -0.629  -2.707 -13.954  0.00  0.00    +0.091 A 
ATOM     11  C   UNL     1      -1.014  -3.863 -13.292  0.00  0.00    +0.124 A 
ATOM     12  C   UNL     1      -1.200  -3.848 -11.919  0.00  0.00    +0.057 A 
BRANCH  11  13
ATOM     13  O   UNL     1      -1.210  -5.013 -13.990  0.00  0.00    -0.495 OA
ATOM     14  C   UNL     1      -1.001  -4.957 -15.402  0.00  0.00    +0.277 C 
ENDBRANCH  11  13
BRANCH   9  15
ATOM     15  O   UNL     1      -0.051  -0.401 -13.901  0.00  0.00    -0.495 OA
ATOM     16  C   UNL     1       0.120  -0.497 -15.316  0.00  0.00    +0.277 C 
ENDBRANCH   9  15
ENDBRANCH   3   7
BRANCH   2  18
ATOM     17  C   UNL     1      -2.396  -5.786  -9.503  0.00  0.00    +0.027 C 
ATOM     18  C   UNL     1      -1.028  -5.142  -9.271  0.00  0.00    +0.122 C 
ENDBRANCH   2  18
ENDBRANCH   1   6
BRANCH   1  19
ATOM     19  C   UNL     1      -1.814  -2.824  -4.970  0.00  0.00    +0.173 C 
BRANCH  19  20
ATOM     20  C   UNL     1      -1.949  -3.399  -3.583  0.00  0.00    +0.228 C 
ATOM     21  O   UNL     1      -1.867  -4.597  -3.413  0.00  0.00    -0.275 OA
ATOM     22  N   UNL     1      -2.160  -2.582  -2.533  0.00  0.00    -0.279 N 
ATOM     23  H   UNL     1      -2.225  -1.624  -2.669  0.00  0.00    +0.155 HD
BRANCH  22  24
ATOM     24  C   UNL     1      -2.284  -3.111  -1.257  0.00  0.00    +0.086 A 
ATOM     25  C   UNL     1      -2.502  -2.437  -0.060  0.00  0.00    +0.091 A 
ATOM     26  C   UNL     1      -2.583  -3.246   1.133  0.00  0.00    -0.025 A 
ATOM     27  C   UNL     1      -2.454  -4.576   0.984  0.00  0.00    -0.008 A 
ATOM     28  S   UNL     1      -2.204  -4.770  -0.768  0.00  0.00    -0.078 S 
ATOM     29  C   UNL     1      -2.502  -5.645   2.045  0.00  0.00    +0.052 C 
ATOM     30  C   UNL     1      -2.811  -2.626   2.488  0.00  0.00    +0.045 C 
BRANCH  25  31
ATOM     31  C   UNL     1      -2.636  -0.980  -0.011  0.00  0.00    +0.342 C 
ATOM     32  O   UNL     1      -3.732  -0.466  -0.129  0.00  0.00    -0.245 OA
BRANCH  31  33
ATOM     33  O   UNL     1      -1.544  -0.208   0.164  0.00  0.00    -0.461 OA
BRANCH  33  34
ATOM     34  C   UNL     1      -1.751   1.229   0.202  0.00  0.00    +0.229 C 
ATOM     35  C   UNL     1      -0.408   1.933   0.406  0.00  0.00    +0.048 C 
ENDBRANCH  33  34
ENDBRANCH  31  33
ENDBRANCH  25  31
ENDBRANCH  22  24
ENDBRANCH  19  20
ENDBRANCH   1  19
TORSDOF 11
