REMARK  Name = ZINC39656018
REMARK  7 active torsions:
REMARK  status: ('A' for Active; 'I' for Inactive)
REMARK    1  A    between atoms: C_1  and  C_2
REMARK    2  A    between atoms: C_8  and  C_11
REMARK    3  A    between atoms: C_11  and  C_12
REMARK    4  A    between atoms: C_12  and  N_13
REMARK    5  A    between atoms: C_14  and  C_16
REMARK    6  A    between atoms: C_27  and  C_29
REMARK    7  A    between atoms: N_33  and  C_34
REMARK                            x       y       z     vdW  Elec       q    Type
REMARK                         _______ _______ _______ _____ _____    ______ ____
ROOT
ATOM      1  C   UNL     1       5.509   0.386  -7.655  0.00  0.00    +0.100 C 
ATOM      2  C   UNL     1       6.411   0.515  -6.407  0.00  0.00    +0.121 C 
ATOM      3  N   UNL     1       6.446  -0.848  -5.827  0.00  0.00    -0.295 N 
ATOM      4  C   UNL     1       6.519  -1.747  -7.004  0.00  0.00    +0.115 C 
ATOM      5  C   UNL     1       5.585  -1.100  -8.045  0.00  0.00    -0.004 C 
ATOM      6  C   UNL     1       6.172  -1.248  -9.446  0.00  0.00    -0.010 C 
ATOM      7  C   UNL     1       6.184  -2.729  -9.835  0.00  0.00    -0.082 C 
ATOM      8  N   UNL     1       4.815  -3.258  -9.797  0.00  0.00    +0.379 N 
ATOM      9  C   UNL     1       4.292  -3.197  -8.427  0.00  0.00    -0.082 C 
ATOM     10  C   UNL     1       4.200  -1.736  -7.979  0.00  0.00    -0.010 C 
ATOM     11  C   UNL     1       6.418  -1.192  -4.524  0.00  0.00    +0.263 C 
ATOM     12  O   UNL     1       6.645  -2.341  -4.194  0.00  0.00    -0.268 OA
ATOM     13  H   UNL     1       4.227  -2.708 -10.405  0.00  0.00    -0.086 HD
ATOM     14  H   UNL     1       4.817  -4.217 -10.112  0.00  0.00    -0.086 HD
ENDROOT
BRANCH  11  15
ATOM     15  C   UNL     1       6.113  -0.183  -3.505  0.00  0.00    +0.104 A 
ATOM     16  C   UNL     1       5.503   1.035  -3.721  0.00  0.00    +0.032 A 
ATOM     17  C   UNL     1       5.410   1.673  -2.481  0.00  0.00    +0.020 A 
ATOM     18  C   UNL     1       5.952   0.853  -1.549  0.00  0.00    +0.086 A 
ATOM     19  N   UNL     1       6.378  -0.280  -2.158  0.00  0.00    -0.346 N 
ATOM     20  C   UNL     1       7.018  -1.419  -1.494  0.00  0.00    +0.149 C 
ENDBRANCH  11  15
BRANCH   1  22
ATOM     21  N   UNL     1       3.299   1.318  -8.260  0.00  0.00    -0.315 N 
ATOM     22  C   UNL     1       4.090   0.767  -7.318  0.00  0.00    +0.218 C 
ATOM     23  O   UNL     1       3.661   0.579  -6.199  0.00  0.00    -0.275 OA
ATOM     24  H   UNL     1       3.642   1.469  -9.154  0.00  0.00    +0.149 HD
BRANCH  21  25
ATOM     25  C   UNL     1       1.920   1.689  -7.933  0.00  0.00    +0.109 C 
BRANCH  25  26
ATOM     26  C   UNL     1       1.246   2.288  -9.169  0.00  0.00    +0.056 C 
BRANCH  26  34
ATOM     27  C   UNL     1       0.032   7.348  -6.775  0.00  0.00    +0.044 C 
ATOM     28  C   UNL     1      -0.678   6.105  -7.245  0.00  0.00    -0.050 A 
ATOM     29  C   UNL     1      -2.058   6.012  -7.123  0.00  0.00    +0.005 A 
ATOM     30  C   UNL     1      -2.727   4.884  -7.546  0.00  0.00    +0.026 A 
ATOM     31  C   UNL     1      -2.014   3.826  -8.100  0.00  0.00    +0.047 A 
ATOM     32  N   UNL     1      -2.380   2.598  -8.603  0.00  0.00    -0.360 N 
ATOM     33  C   UNL     1      -1.270   1.923  -9.034  0.00  0.00    +0.087 A 
ATOM     34  C   UNL     1      -0.173   2.669  -8.832  0.00  0.00    -0.021 A 
ATOM     35  C   UNL     1      -0.616   3.925  -8.222  0.00  0.00    +0.003 A 
ATOM     36  C   UNL     1       0.041   5.080  -7.792  0.00  0.00    +0.013 A 
ATOM     37  H   UNL     1      -3.288   2.260  -8.645  0.00  0.00    +0.165 HD
ENDBRANCH  26  34
ENDBRANCH  25  26
ENDBRANCH  21  25
ENDBRANCH   1  22
TORSDOF 5
