REMARK  Name = ZINC38787546
REMARK  12 active torsions:
REMARK  status: ('A' for Active; 'I' for Inactive)
REMARK    1  A    between atoms: C_1  and  C_2
REMARK    2  A    between atoms: C_4  and  C_36
REMARK    3  A    between atoms: N_10  and  C_11
REMARK    4  A    between atoms: C_11  and  C_13
REMARK    5  A    between atoms: C_13  and  S_14
REMARK    6  A    between atoms: S_14  and  C_15
REMARK    7  A    between atoms: N_20  and  C_21
REMARK    8  A    between atoms: N_22  and  C_23
REMARK    9  A    between atoms: C_23  and  C_24
REMARK   10  A    between atoms: C_24  and  C_25
REMARK   11  A    between atoms: C_28  and  O_34
REMARK   12  A    between atoms: O_34  and  C_35
REMARK                            x       y       z     vdW  Elec       q    Type
REMARK                         _______ _______ _______ _____ _____    ______ ____
ROOT
ATOM      1  C   UNL     1       0.315  -6.809   5.053  0.00  0.00    +0.066 C 
ATOM      2  C   UNL     1       0.329  -6.016   3.772  0.00  0.00    +0.044 A 
ATOM      3  C   UNL     1       0.480  -6.656   2.551  0.00  0.00    +0.046 A 
ATOM      4  C   UNL     1       0.487  -5.888   1.397  0.00  0.00    +0.044 A 
ATOM      5  N   UNL     1       0.349  -4.576   1.494  0.00  0.00    -0.217 NA
ATOM      6  C   UNL     1       0.206  -3.996   2.676  0.00  0.00    +0.231 A 
ATOM      7  N   UNL     1       0.190  -4.700   3.797  0.00  0.00    -0.217 NA
ATOM      8  N   UNL     1       0.065  -2.616   2.741  0.00  0.00    -0.297 N 
ATOM      9  C   UNL     1       0.022  -1.990   3.955  0.00  0.00    +0.196 C 
ATOM     10  N   UNL     1       0.219  -2.685   5.067  0.00  0.00    -0.146 NA
ATOM     11  N   UNL     1      -0.222  -0.652   4.023  0.00  0.00    -0.357 N 
ATOM     12  C   UNL     1       0.649  -6.540   0.048  0.00  0.00    +0.066 C 
ATOM     13  H   UNL     1      -0.004  -2.097   1.925  0.00  0.00    +0.171 HD
ATOM     14  H   UNL     1      -0.170  -0.192   4.875  0.00  0.00    +0.162 HD
ENDROOT
BRANCH  10  15
ATOM     15  C   UNL     1       0.286  -2.059   6.241  0.00  0.00    +0.249 C 
ATOM     16  O   UNL     1       0.059  -0.867   6.307  0.00  0.00    -0.273 OA
BRANCH  15  17
ATOM     17  C   UNL     1       0.643  -2.829   7.486  0.00  0.00    +0.170 C 
BRANCH  17  18
ATOM     18  S   UNL     1       0.651  -1.706   8.910  0.00  0.00    -0.106 S 
BRANCH  18  19
ATOM     19  C   UNL     1       1.239  -2.739  10.280  0.00  0.00    +0.276 C 
ATOM     20  N   UNL     1       0.173  -3.640  10.738  0.00  0.00    -0.139 NA
ATOM     21  N   UNL     1      -0.083  -3.389  11.917  0.00  0.00    -0.069 NA
ATOM     22  N   UNL     1       0.699  -2.356  12.434  0.00  0.00    -0.179 N 
ATOM     23  N   UNL     1       1.552  -1.903  11.459  0.00  0.00    -0.180 NA
ATOM     24  C   UNL     1       1.319  -0.481  11.173  0.00  0.00    +0.132 C 
ATOM     25  H   UNL     1       0.648  -2.012  13.339  0.00  0.00    +0.191 HD
ENDBRANCH  18  19
ENDBRANCH  17  18
ENDBRANCH  15  17
ENDBRANCH  10  15
BRANCH  11  26
ATOM     26  C   UNL     1      -0.563   0.093   2.808  0.00  0.00    +0.120 C 
BRANCH  26  27
ATOM     27  C   UNL     1      -0.666   1.584   3.136  0.00  0.00    +0.058 C 
BRANCH  27  28
ATOM     28  C   UNL     1      -1.136   2.335   1.917  0.00  0.00    -0.021 A 
ATOM     29  C   UNL     1      -2.517   2.447   1.442  0.00  0.00    +0.006 A 
ATOM     30  C   UNL     1      -3.741   1.955   1.897  0.00  0.00    +0.056 A 
ATOM     31  C   UNL     1      -4.897   2.251   1.202  0.00  0.00    +0.121 A 
ATOM     32  C   UNL     1      -4.843   3.034   0.052  0.00  0.00    +0.047 A 
ATOM     33  C   UNL     1      -3.640   3.525  -0.407  0.00  0.00    +0.030 A 
ATOM     34  C   UNL     1      -2.466   3.239   0.280  0.00  0.00    +0.047 A 
ATOM     35  N   UNL     1      -1.144   3.576   0.076  0.00  0.00    -0.360 N 
ATOM     36  C   UNL     1      -0.369   3.034   1.065  0.00  0.00    +0.087 A 
ATOM     37  H   UNL     1      -0.814   4.120  -0.656  0.00  0.00    +0.165 HD
BRANCH  31  38
ATOM     38  O   UNL     1      -6.092   1.774   1.641  0.00  0.00    -0.495 OA
ATOM     39  C   UNL     1      -7.248   2.116   0.874  0.00  0.00    +0.277 C 
ENDBRANCH  31  38
ENDBRANCH  27  28
ENDBRANCH  26  27
ENDBRANCH  11  26
TORSDOF 8
