REMARK  Name = ZINC20907932
REMARK  9 active torsions:
REMARK  status: ('A' for Active; 'I' for Inactive)
REMARK    1  A    between atoms: C_1  and  C_2
REMARK    2  A    between atoms: C_2  and  C_9
REMARK    3  A    between atoms: C_3  and  C_4
REMARK    4  A    between atoms: C_9  and  N_10
REMARK    5  A    between atoms: C_13  and  C_16
REMARK    6  A    between atoms: C_16  and  C_30
REMARK    7  A    between atoms: N_19  and  C_23
REMARK    8  A    between atoms: C_23  and  C_24
REMARK    9  A    between atoms: C_30  and  C_31
REMARK                            x       y       z     vdW  Elec       q    Type
REMARK                         _______ _______ _______ _____ _____    ______ ____
ROOT
ATOM      1  C   UNL     1      -1.942  -1.995  -3.587  0.00  0.00    +0.119 C 
ATOM      2  C   UNL     1      -1.188  -2.225  -2.293  0.00  0.00    +0.247 C 
ATOM      3  O   UNL     1      -0.449  -3.150  -2.031  0.00  0.00    -0.273 OA
ATOM      4  N   UNL     1      -1.511  -1.189  -1.494  0.00  0.00    -0.220 N 
ATOM      5  C   UNL     1      -2.359  -0.347  -2.096  0.00  0.00    +0.310 C 
ATOM      6  O   UNL     1      -2.796   0.659  -1.573  0.00  0.00    -0.252 OA
ATOM      7  N   UNL     1      -2.670  -0.737  -3.345  0.00  0.00    -0.284 N 
ATOM      8  H   UNL     1      -3.313  -0.313  -4.131  0.00  0.00    +0.151 HD
ENDROOT
BRANCH   1  12
ATOM      9  N   UNL     1      -5.635  -4.043  -4.246  0.00  0.00    +0.382 N 
ATOM     10  C   UNL     1      -4.931  -4.347  -2.994  0.00  0.00    -0.078 C 
ATOM     11  C   UNL     1      -3.919  -3.239  -2.695  0.00  0.00    -0.013 C 
ATOM     12  C   UNL     1      -2.921  -3.141  -3.852  0.00  0.00    +0.018 C 
ATOM     13  C   UNL     1      -3.683  -2.873  -5.153  0.00  0.00    -0.013 C 
ATOM     14  C   UNL     1      -4.703  -3.990  -5.380  0.00  0.00    -0.078 C 
ATOM     15  H   UNL     1      -6.092  -3.048  -4.141  0.00  0.00    -0.081 HD
BRANCH   9  16
ATOM     16  C   UNL     1      -6.711  -5.012  -4.494  0.00  0.00    -0.048 C 
BRANCH  16  18
ATOM     17  C   UNL     1      -8.689  -3.566  -5.394  0.00  0.00    +0.037 C 
ATOM     18  C   UNL     1      -7.562  -4.536  -5.643  0.00  0.00    -0.086 C 
ATOM     19  C   UNL     1      -7.318  -4.971  -6.876  0.00  0.00    +0.043 C 
BRANCH  19  20
ATOM     20  C   UNL     1      -8.064  -4.412  -8.013  0.00  0.00    +0.128 A 
ATOM     21  C   UNL     1      -7.987  -4.835  -9.306  0.00  0.00    +0.049 A 
ATOM     22  C   UNL     1      -8.866  -4.025 -10.051  0.00  0.00    +0.042 A 
ATOM     23  C   UNL     1      -9.425  -3.151  -9.189  0.00  0.00    +0.195 A 
ATOM     24  O   UNL     1      -8.938  -3.387  -7.960  0.00  0.00    -0.464 OA
ENDBRANCH  19  20
ENDBRANCH  16  18
ENDBRANCH   9  16
ENDBRANCH   1  12
BRANCH   4  25
ATOM     25  C   UNL     1      -1.001  -1.010  -0.132  0.00  0.00    +0.154 C 
BRANCH  25  26
ATOM     26  C   UNL     1       0.277  -0.212  -0.175  0.00  0.00    -0.011 A 
ATOM     27  C   UNL     1       0.244   1.172  -0.093  0.00  0.00    +0.008 A 
ATOM     28  C   UNL     1       1.444   1.864  -0.136  0.00  0.00    +0.020 A 
ATOM     29  C   UNL     1       2.625   1.157  -0.259  0.00  0.00    +0.111 A 
ATOM     30  N   UNL     1       2.619  -0.159  -0.335  0.00  0.00    -0.263 NA
ATOM     31  C   UNL     1       1.496  -0.850  -0.296  0.00  0.00    +0.116 A 
ENDBRANCH  25  26
ENDBRANCH   4  25
BRANCH   1  32
ATOM     32  C   UNL     1      -0.968  -1.836  -4.756  0.00  0.00    +0.070 C 
BRANCH  32  33
ATOM     33  C   UNL     1      -0.053  -0.668  -4.493  0.00  0.00    -0.045 A 
ATOM     34  C   UNL     1      -0.406   0.598  -4.924  0.00  0.00    +0.004 A 
ATOM     35  C   UNL     1       0.431   1.670  -4.678  0.00  0.00    +0.000 A 
ATOM     36  C   UNL     1       1.625   1.475  -4.010  0.00  0.00    +0.000 A 
ATOM     37  C   UNL     1       1.981   0.209  -3.584  0.00  0.00    +0.000 A 
ATOM     38  C   UNL     1       1.141  -0.862  -3.825  0.00  0.00    +0.004 A 
ENDBRANCH  32  33
ENDBRANCH   1  32
TORSDOF 8
