REMARK  Name = ZINC06364634
REMARK  6 active torsions:
REMARK  status: ('A' for Active; 'I' for Inactive)
REMARK    1  A    between atoms: C_1  and  C_2
REMARK    2  A    between atoms: C_2  and  C_3
REMARK    3  A    between atoms: C_2  and  C_4
REMARK    4  A    between atoms: C_4  and  N_5
REMARK    5  A    between atoms: C_13  and  C_16
REMARK    6  A    between atoms: N_18  and  C_19
REMARK                            x       y       z     vdW  Elec       q    Type
REMARK                         _______ _______ _______ _____ _____    ______ ____
ROOT
ATOM      1  N   UNL     1      -1.298   9.204   0.330  0.00  0.00    -0.307 N 
ATOM      2  C   UNL     1      -1.912  10.021  -0.597  0.00  0.00    +0.056 A 
ATOM      3  C   UNL     1      -1.841  11.406  -0.468  0.00  0.00    +0.026 A 
ATOM      4  C   UNL     1      -2.456  12.215  -1.398  0.00  0.00    +0.002 A 
ATOM      5  C   UNL     1      -3.149  11.664  -2.468  0.00  0.00    +0.001 A 
ATOM      6  C   UNL     1      -3.231  10.309  -2.616  0.00  0.00    +0.014 A 
ATOM      7  C   UNL     1      -2.614   9.467  -1.682  0.00  0.00    +0.046 A 
ATOM      8  C   UNL     1      -2.693   8.010  -1.825  0.00  0.00    +0.205 A 
ATOM      9  C   UNL     1      -2.059   7.216  -0.866  0.00  0.00    +0.148 A 
ATOM     10  C   UNL     1      -1.353   7.865   0.238  0.00  0.00    +0.268 A 
ATOM     11  O   UNL     1      -0.801   7.182   1.083  0.00  0.00    -0.267 OA
ATOM     12  O   UNL     1      -3.360   7.450  -2.855  0.00  0.00    -0.286 OA
ENDROOT
BRANCH   9  13
ATOM     13  C   UNL     1      -2.107   5.752  -0.961  0.00  0.00    +0.254 C 
ATOM     14  O   UNL     1      -2.886   5.122  -0.271  0.00  0.00    -0.270 OA
ATOM     15  N   UNL     1      -1.287   5.105  -1.813  0.00  0.00    -0.306 N 
ATOM     16  H   UNL     1      -0.640   5.677  -2.495  0.00  0.00    +0.150 HD
BRANCH  15  17
ATOM     17  C   UNL     1      -1.256   3.641  -1.831  0.00  0.00    +0.036 C 
ATOM     18  C   UNL     1      -2.647   3.106  -2.178  0.00  0.00    +0.029 C 
ATOM     19  C   UNL     1      -2.615   1.576  -2.197  0.00  0.00    -0.008 C 
ATOM     20  C   UNL     1      -1.608   1.100  -3.246  0.00  0.00    +0.007 C 
ATOM     21  C   UNL     1      -0.218   1.635  -2.898  0.00  0.00    -0.008 C 
ATOM     22  C   UNL     1      -0.249   3.164  -2.880  0.00  0.00    +0.029 C 
ATOM     23  C   UNL     1       0.198   1.117  -1.520  0.00  0.00    +0.007 C 
ATOM     24  C   UNL     1      -0.808   1.593  -0.471  0.00  0.00    -0.008 C 
ATOM     25  C   UNL     1      -2.199   1.058  -0.819  0.00  0.00    +0.007 C 
ATOM     26  C   UNL     1      -0.840   3.123  -0.453  0.00  0.00    +0.029 C 
ENDBRANCH  15  17
ENDBRANCH   9  13
BRANCH   1  27
ATOM     27  C   UNL     1      -0.574   9.814   1.448  0.00  0.00    +0.128 C 
BRANCH  27  29
ATOM     28  C   UNL     1      -1.996   8.651   3.142  0.00  0.00    +0.009 C 
ATOM     29  C   UNL     1      -1.529  10.014   2.627  0.00  0.00    +0.003 C 
ATOM     30  C   UNL     1      -0.806  10.763   3.748  0.00  0.00    +0.009 C 
ENDBRANCH  27  29
ENDBRANCH   1  27
TORSDOF 4
