REMARK  Name = ZINC02681546
REMARK  10 active torsions:
REMARK  status: ('A' for Active; 'I' for Inactive)
REMARK    1  A    between atoms: C_1  and  C_2
REMARK    2  A    between atoms: C_3  and  C_33
REMARK    3  A    between atoms: C_4  and  C_23
REMARK    4  A    between atoms: C_10  and  C_11
REMARK    5  A    between atoms: C_16  and  N_17
REMARK    6  A    between atoms: C_26  and  C_29
REMARK    7  A    between atoms: C_29  and  O_31
REMARK    8  A    between atoms: O_31  and  C_32
REMARK    9  A    between atoms: C_33  and  O_35
REMARK   10  A    between atoms: O_35  and  C_36
REMARK                            x       y       z     vdW  Elec       q    Type
REMARK                         _______ _______ _______ _____ _____    ______ ____
ROOT
ATOM      1  C   UNL     1      -1.242  -1.623  -3.095  0.00  0.00    +0.066 C 
ATOM      2  C   UNL     1      -1.042  -1.222  -1.656  0.00  0.00    +0.053 C 
ATOM      3  C   UNL     1       0.041  -0.465  -1.308  0.00  0.00    +0.085 C 
ATOM      4  C   UNL     1       0.204  -0.083   0.145  0.00  0.00    +0.162 C 
ATOM      5  N   UNL     1      -0.837  -0.565   1.096  0.00  0.00    -0.275 N 
ATOM      6  C   UNL     1      -0.866  -0.330   2.414  0.00  0.00    +0.268 A 
ATOM      7  O   UNL     1       0.004   0.327   2.954  0.00  0.00    -0.266 OA
ATOM      8  C   UNL     1      -1.983  -0.892   3.190  0.00  0.00    +0.081 A 
ATOM      9  C   UNL     1      -2.242  -0.801   4.519  0.00  0.00    +0.030 C 
ATOM     10  S   UNL     1      -2.906  -1.725   1.908  0.00  0.00    -0.046 S 
ATOM     11  C   UNL     1      -1.846  -1.314   0.536  0.00  0.00    +0.178 A 
ATOM     12  N   UNL     1      -1.921  -1.605  -0.738  0.00  0.00    -0.228 NA
ENDROOT
BRANCH   9  13
ATOM     13  C   UNL     1      -3.355  -1.562   5.104  0.00  0.00    +0.006 A 
ATOM     14  C   UNL     1      -3.784  -2.754   4.507  0.00  0.00    +0.010 A 
ATOM     15  C   UNL     1      -4.825  -3.464   5.065  0.00  0.00    +0.001 A 
ATOM     16  C   UNL     1      -5.454  -2.996   6.207  0.00  0.00    +0.002 A 
ATOM     17  C   UNL     1      -5.040  -1.816   6.800  0.00  0.00    +0.033 A 
ATOM     18  C   UNL     1      -3.996  -1.097   6.257  0.00  0.00    +0.133 A 
BRANCH  18  19
ATOM     19  N   UNL     1      -3.555   0.166   6.893  0.00  0.00    +0.057 N 
ATOM     20  O   UNL     1      -4.030   0.508   7.961  0.00  0.00    -0.126 OA
ATOM     21  O   UNL     1      -2.718   0.862   6.348  0.00  0.00    -0.126 OA
ENDBRANCH  18  19
ENDBRANCH   9  13
BRANCH   4  22
ATOM     22  C   UNL     1       0.247   1.421   0.227  0.00  0.00    -0.020 A 
ATOM     23  C   UNL     1      -0.930   2.147   0.177  0.00  0.00    +0.007 A 
ATOM     24  C   UNL     1      -0.898   3.524   0.258  0.00  0.00    +0.015 A 
ATOM     25  C   UNL     1       0.326   4.185   0.377  0.00  0.00    +0.059 A 
ATOM     26  C   UNL     1       1.510   3.447   0.421  0.00  0.00    +0.015 A 
ATOM     27  C   UNL     1       1.463   2.070   0.346  0.00  0.00    +0.007 A 
BRANCH  25  28
ATOM     28  C   UNL     1       0.367   5.660   0.457  0.00  0.00    +0.339 C 
ATOM     29  O   UNL     1       1.434   6.232   0.560  0.00  0.00    -0.245 OA
BRANCH  28  30
ATOM     30  O   UNL     1      -0.777   6.369   0.414  0.00  0.00    -0.464 OA
ATOM     31  C   UNL     1      -0.660   7.814   0.497  0.00  0.00    +0.280 C 
ENDBRANCH  28  30
ENDBRANCH  25  28
ENDBRANCH   4  22
BRANCH   3  32
ATOM     32  C   UNL     1       0.975  -0.054  -2.273  0.00  0.00    +0.339 C 
ATOM     33  O   UNL     1       0.876  -0.445  -3.422  0.00  0.00    -0.245 OA
BRANCH  32  34
ATOM     34  O   UNL     1       1.984   0.775  -1.926  0.00  0.00    -0.465 OA
ATOM     35  C   UNL     1       2.897   1.153  -2.958  0.00  0.00    +0.280 C 
ENDBRANCH  32  34
ENDBRANCH   3  32
TORSDOF 7
