REMARK  Name = ZINC24221379
REMARK  4 active torsions:
REMARK  status: ('A' for Active; 'I' for Inactive)
REMARK    1  A    between atoms: C_1  and  C_2
REMARK    2  A    between atoms: C_10  and  C_11
REMARK    3  A    between atoms: C_15  and  C_24
REMARK    4  A    between atoms: N_26  and  C_27
REMARK                            x       y       z     vdW  Elec       q    Type
REMARK                         _______ _______ _______ _____ _____    ______ ____
ROOT
ATOM      1  C   UNL     1      -2.950   4.631   1.773  0.00  0.00    +0.258 C 
ATOM      2  O   UNL     1      -4.075   5.081   1.881  0.00  0.00    -0.269 OA
ATOM      3  N   UNL     1      -2.743   3.489   1.088  0.00  0.00    -0.260 N 
ATOM      4  C   UNL     1      -1.381   3.003   0.810  0.00  0.00    +0.168 C 
ATOM      5  C   UNL     1      -1.357   2.493  -0.638  0.00  0.00    +0.276 C 
ATOM      6  O   UNL     1      -2.338   1.462  -0.779  0.00  0.00    -0.476 OA
ATOM      7  C   UNL     1      -3.592   1.715  -0.321  0.00  0.00    +0.143 A 
ATOM      8  C   UNL     1      -3.820   2.720   0.616  0.00  0.00    +0.079 A 
ATOM      9  C   UNL     1      -5.103   2.963   1.079  0.00  0.00    +0.027 A 
ATOM     10  C   UNL     1      -6.160   2.208   0.605  0.00  0.00    +0.002 A 
ATOM     11  C   UNL     1      -5.938   1.212  -0.327  0.00  0.00    +0.004 A 
ATOM     12  C   UNL     1      -4.659   0.964  -0.791  0.00  0.00    +0.047 A 
ENDROOT
BRANCH   1  22
ATOM     13  C   UNL     1      -3.059   7.380   3.053  0.00  0.00    +0.046 C 
ATOM     14  C   UNL     1      -1.797   6.560   2.976  0.00  0.00    -0.021 A 
ATOM     15  C   UNL     1      -0.599   7.062   3.513  0.00  0.00    +0.028 A 
ATOM     16  C   UNL     1      -0.380   8.308   4.160  0.00  0.00    +0.132 A 
ATOM     17  C   UNL     1       0.864   8.642   4.629  0.00  0.00    +0.039 A 
ATOM     18  C   UNL     1       1.946   7.782   4.489  0.00  0.00    +0.004 A 
ATOM     19  C   UNL     1       1.770   6.563   3.865  0.00  0.00    +0.016 A 
ATOM     20  C   UNL     1       0.525   6.212   3.388  0.00  0.00    +0.023 A 
ATOM     21  S   UNL     1      -0.126   4.786   2.556  0.00  0.00    -0.083 S 
ATOM     22  C   UNL     1      -1.816   5.334   2.389  0.00  0.00    +0.078 A 
ATOM     23  F   UNL     1      -1.407   9.172   4.316  0.00  0.00    -0.205 F 
ENDBRANCH   1  22
BRANCH   5  24
ATOM     24  C   UNL     1       0.008   1.938  -0.956  0.00  0.00    +0.255 C 
ATOM     25  O   UNL     1       0.143   0.755  -1.184  0.00  0.00    -0.272 OA
ATOM     26  N   UNL     1       1.077   2.758  -0.991  0.00  0.00    -0.315 N 
ATOM     27  C   UNL     1       2.402   2.220  -1.306  0.00  0.00    +0.128 C 
ATOM     28  H   UNL     1       0.954   3.831  -0.784  0.00  0.00    +0.148 HD
ENDBRANCH   5  24
TORSDOF 2
