REMARK  Name = ZINC04327378
REMARK  16 active torsions:
REMARK  status: ('A' for Active; 'I' for Inactive)
REMARK    1  A    between atoms: C_1  and  C_2
REMARK    2  A    between atoms: C_2  and  C_3
REMARK    3  A    between atoms: C_3  and  O_4
REMARK    4  A    between atoms: O_4  and  C_5
REMARK    5  A    between atoms: C_8  and  C_11
REMARK    6  A    between atoms: C_11  and  O_13
REMARK    7  A    between atoms: O_13  and  C_14
REMARK    8  A    between atoms: C_17  and  C_23
REMARK    9  A    between atoms: C_19  and  O_20
REMARK   10  A    between atoms: O_20  and  C_21
REMARK   11  A    between atoms: C_21  and  C_22
REMARK   12  A    between atoms: N_24  and  N_25
REMARK   13  A    between atoms: C_26  and  C_28
REMARK   14  A    between atoms: C_28  and  N_29
REMARK   15  A    between atoms: C_30  and  C_32
REMARK   16  A    between atoms: C_37  and  C_38
REMARK                            x       y       z     vdW  Elec       q    Type
REMARK                         _______ _______ _______ _____ _____    ______ ____
ROOT
ATOM      1  C   UNL     1      -5.783   3.212   1.868  0.00  0.00    +0.173 A 
ATOM      2  C   UNL     1      -6.476   3.438   3.049  0.00  0.00    +0.051 A 
ATOM      3  C   UNL     1      -5.853   4.061   4.110  0.00  0.00    +0.013 A 
ATOM      4  C   UNL     1      -4.519   4.461   3.999  0.00  0.00    -0.002 A 
ATOM      5  C   UNL     1      -3.819   4.228   2.813  0.00  0.00    +0.059 A 
ATOM      6  C   UNL     1      -4.450   3.603   1.753  0.00  0.00    +0.163 A 
ENDROOT
BRANCH   4   7
ATOM      7  C   UNL     1      -3.851   5.127   5.132  0.00  0.00    +0.138 C 
ATOM      8  N   UNL     1      -4.502   5.343   6.234  0.00  0.00    -0.188 NA
BRANCH   8   9
ATOM      9  N   UNL     1      -3.867   5.976   7.310  0.00  0.00    -0.206 N 
ATOM     10  C   UNL     1      -4.544   6.200   8.454  0.00  0.00    +0.249 C 
ATOM     11  O   UNL     1      -5.702   5.853   8.552  0.00  0.00    -0.272 OA
ATOM     12  H   UNL     1      -2.941   6.253   7.232  0.00  0.00    +0.177 HD
BRANCH  10  13
ATOM     13  C   UNL     1      -3.861   6.881   9.612  0.00  0.00    +0.202 C 
BRANCH  13  14
ATOM     14  N   UNL     1      -4.801   7.006  10.729  0.00  0.00    -0.303 N 
ATOM     15  C   UNL     1      -4.408   7.588  11.879  0.00  0.00    +0.245 C 
ATOM     16  O   UNL     1      -3.273   8.009  11.990  0.00  0.00    -0.270 OA
ATOM     17  H   UNL     1      -5.707   6.670  10.640  0.00  0.00    +0.150 HD
BRANCH  15  18
ATOM     18  C   UNL     1      -5.357   7.715  13.005  0.00  0.00    +0.040 A 
ATOM     19  C   UNL     1      -6.696   7.356  12.838  0.00  0.00    +0.013 A 
ATOM     20  C   UNL     1      -7.575   7.473  13.894  0.00  0.00    +0.001 A 
ATOM     21  C   UNL     1      -7.135   7.953  15.115  0.00  0.00    +0.000 A 
ATOM     22  C   UNL     1      -5.811   8.314  15.287  0.00  0.00    +0.004 A 
ATOM     23  C   UNL     1      -4.920   8.198  14.239  0.00  0.00    -0.038 A 
ATOM     24  C   UNL     1      -3.478   8.593  14.428  0.00  0.00    +0.044 C 
ENDBRANCH  15  18
ENDBRANCH  13  14
ENDBRANCH  10  13
ENDBRANCH   8   9
ENDBRANCH   4   7
BRANCH   1  25
ATOM     25  O   UNL     1      -6.403   2.603   0.824  0.00  0.00    -0.419 OA
BRANCH  25  26
ATOM     26  C   UNL     1      -6.235   1.272   0.704  0.00  0.00    +0.345 C 
ATOM     27  O   UNL     1      -5.482   0.684   1.456  0.00  0.00    -0.245 OA
BRANCH  26  31
ATOM     28  C   UNL     1      -8.336  -0.872  -2.299  0.00  0.00    +0.121 A 
ATOM     29  C   UNL     1      -7.475  -1.546  -1.440  0.00  0.00    +0.046 A 
ATOM     30  C   UNL     1      -6.792  -0.854  -0.465  0.00  0.00    +0.018 A 
ATOM     31  C   UNL     1      -6.965   0.527  -0.339  0.00  0.00    +0.060 A 
ATOM     32  C   UNL     1      -7.836   1.200  -1.201  0.00  0.00    +0.018 A 
ATOM     33  C   UNL     1      -8.510   0.502  -2.178  0.00  0.00    +0.046 A 
BRANCH  28  34
ATOM     34  O   UNL     1      -9.008  -1.557  -3.259  0.00  0.00    -0.492 OA
BRANCH  34  35
ATOM     35  C   UNL     1      -9.876  -0.802  -4.107  0.00  0.00    +0.229 C 
BRANCH  35  37
ATOM     36  C   UNL     1     -11.470  -0.931  -6.026  0.00  0.00    +0.007 C 
ATOM     37  C   UNL     1     -10.540  -1.739  -5.118  0.00  0.00    +0.038 C 
ENDBRANCH  35  37
ENDBRANCH  34  35
ENDBRANCH  28  34
ENDBRANCH  26  31
ENDBRANCH  25  26
ENDBRANCH   1  25
BRANCH   6  38
ATOM     38  O   UNL     1      -3.772   3.375   0.597  0.00  0.00    -0.489 OA
BRANCH  38  39
ATOM     39  C   UNL     1      -2.411   3.807   0.546  0.00  0.00    +0.226 C 
ATOM     40  C   UNL     1      -1.819   3.467  -0.823  0.00  0.00    +0.048 C 
ENDBRANCH  38  39
ENDBRANCH   6  38
TORSDOF 13
