REMARK  Name = ZINC63165354
REMARK  10 active torsions:
REMARK  status: ('A' for Active; 'I' for Inactive)
REMARK    1  A    between atoms: C_1  and  C_2
REMARK    2  A    between atoms: C_5  and  O_8
REMARK    3  A    between atoms: O_8  and  C_9
REMARK    4  A    between atoms: C_9  and  C_10
REMARK    5  A    between atoms: C_14  and  S_25
REMARK    6  A    between atoms: N_16  and  C_17
REMARK    7  A    between atoms: C_20  and  O_23
REMARK    8  A    between atoms: O_23  and  C_24
REMARK    9  A    between atoms: S_25  and  C_26
REMARK   10  A    between atoms: C_26  and  C_27
REMARK                            x       y       z     vdW  Elec       q    Type
REMARK                         _______ _______ _______ _____ _____    ______ ____
ROOT
ATOM      1  C   UNL     1       0.090  -6.301   1.041  0.00  0.00    +0.195 C 
ATOM      2  N   UNL     1      -1.087  -6.718   0.245  0.00  0.00    -0.231 NA
ATOM      3  N   UNL     1      -0.589  -6.782  -1.138  0.00  0.00    -0.226 NA
ATOM      4  C   UNL     1       0.785  -7.324  -0.973  0.00  0.00    +0.217 C 
ATOM      5  N   UNL     1       1.282  -6.689   0.265  0.00  0.00    -0.285 N 
ATOM      6  H   UNL     1      -1.836  -6.047   0.329  0.00  0.00    +0.143 HD
ATOM      7  H   UNL     1      -1.157  -7.400  -1.698  0.00  0.00    +0.143 HD
ENDROOT
BRANCH   5   8
ATOM      8  C   UNL     1       2.618  -6.492   0.629  0.00  0.00    +0.033 A 
ATOM      9  C   UNL     1       2.927  -5.787   1.785  0.00  0.00    +0.027 A 
ATOM     10  C   UNL     1       4.247  -5.594   2.144  0.00  0.00    +0.047 A 
ATOM     11  C   UNL     1       5.263  -6.105   1.351  0.00  0.00    +0.120 A 
ATOM     12  C   UNL     1       4.956  -6.809   0.196  0.00  0.00    +0.047 A 
ATOM     13  C   UNL     1       3.637  -7.008  -0.162  0.00  0.00    +0.027 A 
BRANCH  11  14
ATOM     14  O   UNL     1       6.563  -5.914   1.705  0.00  0.00    -0.495 OA
ATOM     15  C   UNL     1       7.558  -6.468   0.842  0.00  0.00    +0.277 C 
ENDBRANCH  11  14
ENDBRANCH   5   8
BRANCH   1  16
ATOM     16  C   UNL     1       0.071  -4.786   1.251  0.00  0.00    +0.268 C 
BRANCH  16  17
ATOM     17  O   UNL     1       0.056  -4.129  -0.018  0.00  0.00    -0.489 OA
BRANCH  17  22
ATOM     18  C   UNL     1      -0.021   1.503   0.019  0.00  0.00    +0.044 C 
ATOM     19  C   UNL     1       0.000  -0.004   0.009  0.00  0.00    -0.050 A 
ATOM     20  C   UNL     1       0.004  -0.686  -1.193  0.00  0.00    +0.007 A 
ATOM     21  C   UNL     1       0.022  -2.068  -1.205  0.00  0.00    +0.046 A 
ATOM     22  C   UNL     1       0.038  -2.770  -0.009  0.00  0.00    +0.121 A 
ATOM     23  C   UNL     1       0.035  -2.083   1.196  0.00  0.00    +0.046 A 
ATOM     24  C   UNL     1       0.021  -0.702   1.203  0.00  0.00    +0.007 A 
ENDBRANCH  17  22
ENDBRANCH  16  17
ENDBRANCH   1  16
BRANCH   4  25
ATOM     25  S   UNL     1       1.823  -6.863  -2.388  0.00  0.00    -0.118 S 
BRANCH  25  26
ATOM     26  C   UNL     1       1.774  -5.050  -2.395  0.00  0.00    +0.119 C 
BRANCH  26  27
ATOM     27  C   UNL     1       2.621  -4.521  -3.554  0.00  0.00    +0.184 C 
ATOM     28  N   UNL     1       2.141  -5.081  -4.825  0.00  0.00    -0.363 N 
ATOM     29  C   UNL     1       3.121  -5.760  -5.347  0.00  0.00    +0.060 A 
ATOM     30  C   UNL     1       3.248  -6.535  -6.589  0.00  0.00    +0.027 A 
ATOM     31  C   UNL     1       4.415  -7.147  -6.875  0.00  0.00    +0.002 A 
ATOM     32  C   UNL     1       5.534  -7.079  -6.026  0.00  0.00    +0.002 A 
ATOM     33  C   UNL     1       5.524  -6.396  -4.864  0.00  0.00    +0.027 A 
ATOM     34  C   UNL     1       4.306  -5.688  -4.449  0.00  0.00    +0.060 A 
ATOM     35  N   UNL     1       4.013  -4.966  -3.406  0.00  0.00    -0.363 N 
ATOM     36  H   UNL     1       1.256  -4.965  -5.204  0.00  0.00    +0.162 HD
ATOM     37  H   UNL     1       4.605  -4.760  -2.666  0.00  0.00    +0.162 HD
ENDBRANCH  26  27
ENDBRANCH  25  26
ENDBRANCH   4  25
TORSDOF 8
