REMARK  Name = ZINC12498285
REMARK  9 active torsions:
REMARK  status: ('A' for Active; 'I' for Inactive)
REMARK    1  A    between atoms: C_1  and  C_2
REMARK    2  A    between atoms: C_5  and  O_9
REMARK    3  A    between atoms: O_9  and  C_10
REMARK    4  A    between atoms: C_10  and  C_11
REMARK    5  A    between atoms: N_13  and  C_14
REMARK    6  A    between atoms: C_14  and  N_16
REMARK    7  A    between atoms: N_16  and  C_17
REMARK    8  A    between atoms: C_19  and  N_24
REMARK    9  A    between atoms: C_22  and  O_23
REMARK                            x       y       z     vdW  Elec       q    Type
REMARK                         _______ _______ _______ _____ _____    ______ ____
ROOT
ATOM      1  C   UNL     1       0.347  -8.401  -2.057  0.00  0.00    +0.141 C 
ATOM      2  S   UNL     1       0.697  -9.039  -0.507  0.00  0.00    -0.018 S 
ENDROOT
BRANCH   1   5
ATOM      3  C   UNL     1       0.553  -6.235  -1.211  0.00  0.00    +0.256 C 
ATOM      4  O   UNL     1       0.801  -6.687  -0.113  0.00  0.00    -0.272 OA
ATOM      5  N   UNL     1       0.313  -7.066  -2.244  0.00  0.00    -0.265 N 
ATOM      6  H   UNL     1       0.115  -6.705  -3.122  0.00  0.00    +0.157 HD
BRANCH   3   7
ATOM      7  C   UNL     1       0.514  -4.743  -1.420  0.00  0.00    +0.325 C 
BRANCH   7   8
ATOM      8  O   UNL     1       0.800  -4.081  -0.186  0.00  0.00    -0.482 OA
BRANCH   8  13
ATOM      9  C   UNL     1       0.817   1.552  -0.248  0.00  0.00    +0.044 C 
ATOM     10  C   UNL     1       0.812   0.045  -0.231  0.00  0.00    -0.049 A 
ATOM     11  C   UNL     1       0.545  -0.658  -1.391  0.00  0.00    +0.007 A 
ATOM     12  C   UNL     1       0.540  -2.039  -1.379  0.00  0.00    +0.047 A 
ATOM     13  C   UNL     1       0.804  -2.722  -0.201  0.00  0.00    +0.135 A 
ATOM     14  C   UNL     1       1.073  -2.015   0.963  0.00  0.00    +0.060 A 
ATOM     15  C   UNL     1       1.082  -0.633   0.944  0.00  0.00    +0.022 A 
ATOM     16 BR   UNL     1       1.434  -2.941   2.572  0.00  0.00    -0.047 Br
ENDBRANCH   8  13
ENDBRANCH   7   8
ENDBRANCH   3   7
ENDBRANCH   1   5
BRANCH   1  17
ATOM     17  N   UNL     1       0.107  -9.232  -3.090  0.00  0.00    -0.294 N 
ATOM     18  H   UNL     1      -0.152  -8.872  -3.952  0.00  0.00    +0.154 HD
BRANCH  17  19
ATOM     19  C   UNL     1       0.232 -10.617  -2.918  0.00  0.00    +0.077 A 
ATOM     20  C   UNL     1      -0.345 -11.236  -1.819  0.00  0.00    +0.059 A 
ATOM     21  C   UNL     1      -0.222 -12.602  -1.651  0.00  0.00    +0.128 A 
ATOM     22  C   UNL     1       0.477 -13.355  -2.577  0.00  0.00    +0.036 A 
ATOM     23  C   UNL     1       1.055 -12.745  -3.675  0.00  0.00    +0.049 A 
ATOM     24  C   UNL     1       0.930 -11.377  -3.853  0.00  0.00    +0.138 A 
BRANCH  21  25
ATOM     25  N   UNL     1      -0.838 -13.261  -0.478  0.00  0.00    +0.056 N 
ATOM     26  O   UNL     1      -1.448 -12.604   0.333  0.00  0.00    -0.126 OA
ATOM     27  O   UNL     1      -0.731 -14.456  -0.330  0.00  0.00    -0.126 OA
ENDBRANCH  21  25
BRANCH  24  28
ATOM     28  O   UNL     1       1.493 -10.776  -4.936  0.00  0.00    -0.505 OA
ATOM     29  H   UNL     1       2.402 -10.479  -4.792  0.00  0.00    +0.292 HD
ENDBRANCH  24  28
ENDBRANCH  17  19
ENDBRANCH   1  17
TORSDOF 8
