REMARK  Name = ZINC33058556
REMARK  10 active torsions:
REMARK  status: ('A' for Active; 'I' for Inactive)
REMARK    1  A    between atoms: C_1  and  C_2
REMARK    2  A    between atoms: C_2  and  C_3
REMARK    3  A    between atoms: C_3  and  N_4
REMARK    4  A    between atoms: C_5  and  C_7
REMARK    5  A    between atoms: C_10  and  C_13
REMARK    6  A    between atoms: C_13  and  N_14
REMARK    7  A    between atoms: C_24  and  S_25
REMARK    8  A    between atoms: S_25  and  C_26
REMARK    9  A    between atoms: C_26  and  C_27
REMARK   10  A    between atoms: N_29  and  C_30
REMARK                            x       y       z     vdW  Elec       q    Type
REMARK                         _______ _______ _______ _____ _____    ______ ____
ROOT
ATOM      1  N   UNL     1       0.036  -2.769   0.034  0.00  0.00    -0.283 N 
ATOM      2  C   UNL     1       1.240  -2.149   0.036  0.00  0.00    +0.263 A 
ATOM      3  O   UNL     1       2.277  -2.785   0.029  0.00  0.00    -0.267 OA
ATOM      4  C   UNL     1       1.246  -0.680   0.045  0.00  0.00    +0.065 A 
ATOM      5  C   UNL     1       2.433   0.051   0.048  0.00  0.00    +0.015 A 
ATOM      6  C   UNL     1       2.382   1.418   0.058  0.00  0.00    +0.001 A 
ATOM      7  C   UNL     1       1.163   2.083   0.065  0.00  0.00    +0.002 A 
ATOM      8  C   UNL     1      -0.016   1.391   0.062  0.00  0.00    +0.028 A 
ATOM      9  C   UNL     1       0.003  -0.007   0.052  0.00  0.00    +0.079 A 
ATOM     10  N   UNL     1      -1.136  -0.729   0.050  0.00  0.00    -0.223 NA
ATOM     11  C   UNL     1      -1.118  -2.039   0.041  0.00  0.00    +0.173 A 
ENDROOT
BRANCH   1  12
ATOM     12  C   UNL     1      -0.028  -4.232   0.024  0.00  0.00    +0.162 C 
BRANCH  12  16
ATOM     13  C   UNL     1      -0.099  -5.629  -4.017  0.00  0.00    +0.037 A 
ATOM     14  C   UNL     1       1.118  -5.453  -3.358  0.00  0.00    +0.013 A 
ATOM     15  C   UNL     1       1.134  -5.002  -2.054  0.00  0.00    +0.006 A 
ATOM     16  C   UNL     1      -0.053  -4.724  -1.400  0.00  0.00    -0.028 A 
ATOM     17  C   UNL     1      -1.264  -4.902  -2.047  0.00  0.00    +0.006 A 
ATOM     18  C   UNL     1      -1.294  -5.348  -3.352  0.00  0.00    +0.013 A 
BRANCH  13  20
ATOM     19  N   UNL     1      -1.301  -6.281  -6.048  0.00  0.00    -0.311 N 
ATOM     20  C   UNL     1      -0.124  -6.112  -5.414  0.00  0.00    +0.244 C 
ATOM     21  O   UNL     1       0.918  -6.356  -5.992  0.00  0.00    -0.270 OA
ATOM     22  H   UNL     1      -2.244  -6.060  -5.526  0.00  0.00    +0.149 HD
BRANCH  19  23
ATOM     23  C   UNL     1      -1.325  -6.759  -7.433  0.00  0.00    +0.104 C 
BRANCH  23  25
ATOM     24  C   UNL     1      -2.800  -7.362  -9.357  0.00  0.00    +0.005 C 
ATOM     25  C   UNL     1      -2.775  -6.863  -7.912  0.00  0.00    +0.015 C 
ENDBRANCH  23  25
ENDBRANCH  19  23
ENDBRANCH  13  20
ENDBRANCH  12  16
ENDBRANCH   1  12
BRANCH  11  26
ATOM     26  S   UNL     1      -2.656  -2.899   0.037  0.00  0.00    -0.078 S 
BRANCH  26  27
ATOM     27  C   UNL     1      -3.800  -1.498   0.049  0.00  0.00    +0.173 C 
BRANCH  27  28
ATOM     28  C   UNL     1      -5.219  -2.007   0.048  0.00  0.00    +0.228 C 
ATOM     29  O   UNL     1      -5.434  -3.201   0.040  0.00  0.00    -0.275 OA
ATOM     30  N   UNL     1      -6.248  -1.137   0.055  0.00  0.00    -0.284 N 
ATOM     31  H   UNL     1      -6.054  -0.057   0.137  0.00  0.00    +0.155 HD
BRANCH  30  32
ATOM     32  C   UNL     1      -7.563  -1.606  -0.041  0.00  0.00    +0.052 A 
ATOM     33  C   UNL     1      -7.915  -2.814   0.548  0.00  0.00    +0.025 A 
ATOM     34  C   UNL     1      -9.214  -3.272   0.457  0.00  0.00    +0.002 A 
ATOM     35  C   UNL     1     -10.163  -2.535  -0.230  0.00  0.00    +0.002 A 
ATOM     36  C   UNL     1      -9.815  -1.335  -0.822  0.00  0.00    +0.022 A 
ATOM     37  C   UNL     1      -8.517  -0.868  -0.730  0.00  0.00    +0.062 A 
ATOM     38 CL   UNL     1      -8.081   0.638  -1.474  0.00  0.00    -0.082 Cl
ENDBRANCH  30  32
ENDBRANCH  27  28
ENDBRANCH  26  27
ENDBRANCH  11  26
TORSDOF 9
