REMARK  Name = ZINC03224387
REMARK  12 active torsions:
REMARK  status: ('A' for Active; 'I' for Inactive)
REMARK    1  A    between atoms: C_1  and  C_2
REMARK    2  A    between atoms: C_4  and  C_38
REMARK    3  A    between atoms: C_6  and  N_8
REMARK    4  A    between atoms: C_9  and  C_11
REMARK    5  A    between atoms: C_11  and  C_13
REMARK    6  A    between atoms: C_11  and  O_19
REMARK    7  A    between atoms: O_19  and  C_20
REMARK    8  A    between atoms: C_20  and  C_22
REMARK    9  A    between atoms: C_25  and  S_31
REMARK   10  A    between atoms: C_26  and  N_28
REMARK   11  A    between atoms: S_31  and  C_32
REMARK   12  A    between atoms: N_36  and  C_37
REMARK                            x       y       z     vdW  Elec       q    Type
REMARK                         _______ _______ _______ _____ _____    ______ ____
ROOT
ATOM      1  C   UNL     1      -1.262   3.502   0.047  0.00  0.00    +0.292 C 
ENDROOT
BRANCH   1   2
ATOM      2  C   UNL     1      -0.802   3.777  -1.362  0.00  0.00    +0.002 A 
ATOM      3  C   UNL     1      -1.691   3.662  -2.414  0.00  0.00    +0.008 A 
ATOM      4  C   UNL     1      -1.270   3.918  -3.706  0.00  0.00    +0.000 A 
ATOM      5  C   UNL     1       0.043   4.279  -3.946  0.00  0.00    +0.000 A 
ATOM      6  C   UNL     1       0.933   4.389  -2.894  0.00  0.00    +0.000 A 
ATOM      7  C   UNL     1       0.511   4.138  -1.602  0.00  0.00    +0.008 A 
ENDBRANCH   1   2
BRANCH   1   9
ATOM      8  N   UNL     1       0.015   1.403   0.335  0.00  0.00    -0.282 N 
ATOM      9  C   UNL     1      -1.182   2.023   0.322  0.00  0.00    +0.263 C 
ATOM     10  O   UNL     1      -2.195   1.389   0.532  0.00  0.00    -0.271 OA
ATOM     11  H   UNL     1       0.829   1.920   0.231  0.00  0.00    +0.155 HD
BRANCH   8  17
ATOM     12  C   UNL     1       2.189  -2.877  -0.726  0.00  0.00    +0.044 C 
ATOM     13  C   UNL     1       1.126  -2.085  -0.009  0.00  0.00    -0.048 A 
ATOM     14  C   UNL     1       0.216  -2.731   0.807  0.00  0.00    +0.006 A 
ATOM     15  C   UNL     1      -0.761  -2.008   1.467  0.00  0.00    -0.048 A 
ATOM     16  C   UNL     1      -0.830  -0.637   1.313  0.00  0.00    +0.026 A 
ATOM     17  C   UNL     1       0.082   0.015   0.494  0.00  0.00    +0.034 A 
ATOM     18  C   UNL     1       1.058  -0.715  -0.172  0.00  0.00    +0.026 A 
ATOM     19  C   UNL     1      -1.751  -2.716   2.356  0.00  0.00    +0.044 C 
ENDBRANCH   8  17
ENDBRANCH   1   9
BRANCH   1  20
ATOM     20  O   UNL     1      -2.634   3.950   0.204  0.00  0.00    -0.444 OA
BRANCH  20  21
ATOM     21  C   UNL     1      -2.820   5.222   0.609  0.00  0.00    +0.340 C 
ATOM     22  O   UNL     1      -1.861   5.937   0.825  0.00  0.00    -0.245 OA
BRANCH  21  23
ATOM     23  C   UNL     1      -4.185   5.746   0.790  0.00  0.00    +0.061 A 
ATOM     24  C   UNL     1      -5.290   4.926   0.536  0.00  0.00    +0.016 A 
ATOM     25  C   UNL     1      -6.554   5.413   0.710  0.00  0.00    +0.018 A 
ATOM     26  C   UNL     1      -6.744   6.728   1.129  0.00  0.00    +0.046 A 
ATOM     27  C   UNL     1      -5.647   7.548   1.377  0.00  0.00    +0.141 A 
ATOM     28  C   UNL     1      -4.380   7.066   1.210  0.00  0.00    +0.048 A 
BRANCH  27  29
ATOM     29  N   UNL     1      -5.853   8.945   1.822  0.00  0.00    +0.058 N 
ATOM     30  O   UNL     1      -4.894   9.663   2.039  0.00  0.00    -0.126 OA
ATOM     31  O   UNL     1      -6.983   9.376   1.971  0.00  0.00    -0.126 OA
ENDBRANCH  27  29
BRANCH  26  32
ATOM     32  S   UNL     1      -8.377   7.354   1.344  0.00  0.00    -0.048 S 
BRANCH  32  33
ATOM     33  C   UNL     1      -8.498   7.294   3.101  0.00  0.00    +0.196 A 
ATOM     34  N   UNL     1      -7.612   6.790   3.928  0.00  0.00    -0.122 NA
ATOM     35  N   UNL     1      -8.023   6.918   5.139  0.00  0.00    -0.137 NA
ATOM     36  C   UNL     1      -9.189   7.498   5.157  0.00  0.00    +0.225 A 
ATOM     37  N   UNL     1      -9.534   7.759   3.860  0.00  0.00    -0.311 N 
ATOM     38  C   UNL     1     -10.760   8.403   3.383  0.00  0.00    +0.152 C 
ENDBRANCH  32  33
ENDBRANCH  26  32
ENDBRANCH  21  23
ENDBRANCH  20  21
ENDBRANCH   1  20
TORSDOF 9
