REMARK  Name = ZINC39687836
REMARK  8 active torsions:
REMARK  status: ('A' for Active; 'I' for Inactive)
REMARK    1  A    between atoms: C_1  and  C_2
REMARK    2  A    between atoms: C_2  and  C_3
REMARK    3  A    between atoms: C_3  and  C_4
REMARK    4  A    between atoms: C_4  and  C_5
REMARK    5  A    between atoms: C_5  and  C_7
REMARK    6  A    between atoms: C_5  and  C_8
REMARK    7  A    between atoms: C_12  and  C_21
REMARK    8  A    between atoms: N_23  and  C_24
REMARK                            x       y       z     vdW  Elec       q    Type
REMARK                         _______ _______ _______ _____ _____    ______ ____
ROOT
ATOM      1  C   UNL     1      -2.951  -4.309   0.344  0.00  0.00    +0.218 C 
ATOM      2  O   UNL     1      -1.942  -4.950   0.546  0.00  0.00    -0.275 OA
ATOM      3  N   UNL     1      -4.136  -4.939   0.221  0.00  0.00    -0.300 N 
ATOM      4  C   UNL     1      -5.450  -4.345  -0.121  0.00  0.00    +0.121 C 
ATOM      5  C   UNL     1      -6.114  -5.379  -1.058  0.00  0.00    +0.100 C 
ATOM      6  C   UNL     1      -5.435  -6.715  -0.712  0.00  0.00    -0.004 C 
ATOM      7  C   UNL     1      -4.419  -6.385   0.391  0.00  0.00    +0.115 C 
ATOM      8  C   UNL     1      -4.715  -7.274  -1.935  0.00  0.00    -0.010 C 
ATOM      9  C   UNL     1      -4.096  -8.630  -1.581  0.00  0.00    -0.082 C 
ATOM     10  N   UNL     1      -5.152  -9.553  -1.145  0.00  0.00    +0.379 N 
ATOM     11  C   UNL     1      -5.777  -9.053   0.085  0.00  0.00    -0.082 C 
ATOM     12  C   UNL     1      -6.467  -7.715  -0.198  0.00  0.00    -0.010 C 
ATOM     13  H   UNL     1      -5.850  -9.629  -1.869  0.00  0.00    -0.086 HD
ATOM     14  H   UNL     1      -4.751 -10.462  -0.971  0.00  0.00    -0.086 HD
ENDROOT
BRANCH   5  15
ATOM     15  C   UNL     1      -7.595  -5.455  -0.789  0.00  0.00    +0.218 C 
ATOM     16  O   UNL     1      -8.021  -5.238   0.325  0.00  0.00    -0.275 OA
ATOM     17  N   UNL     1      -8.446  -5.765  -1.788  0.00  0.00    -0.312 N 
ATOM     18  H   UNL     1      -8.105  -5.939  -2.679  0.00  0.00    +0.149 HD
BRANCH  17  19
ATOM     19  C   UNL     1      -9.885  -5.839  -1.527  0.00  0.00    +0.076 C 
ATOM     20  C   UNL     1     -10.236  -7.230  -0.992  0.00  0.00    +0.041 C 
ATOM     21  C   UNL     1     -11.736  -7.292  -0.688  0.00  0.00    +0.108 C 
ATOM     22  N   UNL     1     -12.480  -6.905  -1.894  0.00  0.00    -0.314 N 
ATOM     23  C   UNL     1     -12.158  -5.626  -2.542  0.00  0.00    +0.108 C 
ATOM     24  C   UNL     1     -10.653  -5.582  -2.826  0.00  0.00    +0.041 C 
ATOM     25  C   UNL     1     -13.469  -7.733  -2.413  0.00  0.00    +0.140 A 
ATOM     26  C   UNL     1     -14.798  -7.532  -2.048  0.00  0.00    +0.081 A 
ATOM     27  C   UNL     1     -15.772  -8.363  -2.572  0.00  0.00    +0.025 A 
ATOM     28  C   UNL     1     -15.384  -9.370  -3.446  0.00  0.00    +0.021 A 
ATOM     29  C   UNL     1     -14.048  -9.512  -3.764  0.00  0.00    +0.113 A 
ATOM     30  N   UNL     1     -13.141  -8.701  -3.253  0.00  0.00    -0.239 NA
ATOM     31 CL   UNL     1     -15.227  -6.257  -0.950  0.00  0.00    -0.080 Cl
ENDBRANCH  17  19
ENDBRANCH   5  15
BRANCH   1  32
ATOM     32  C   UNL     1      -2.881  -2.808   0.232  0.00  0.00    +0.072 C 
ATOM     33  C   UNL     1      -2.656  -2.416  -1.230  0.00  0.00    +0.017 C 
BRANCH  32  34
ATOM     34  C   UNL     1      -1.723  -2.286   1.084  0.00  0.00    +0.012 C 
BRANCH  34  35
ATOM     35  C   UNL     1      -1.727  -0.756   1.070  0.00  0.00    +0.000 C 
BRANCH  35  37
ATOM     36  C   UNL     1      -0.574   1.295   1.908  0.00  0.00    +0.004 C 
ATOM     37  C   UNL     1      -0.569  -0.235   1.922  0.00  0.00    -0.003 C 
ENDBRANCH  35  37
ENDBRANCH  34  35
ENDBRANCH  32  34
ENDBRANCH   1  32
TORSDOF 6
