REMARK  Name = ZINC11563445
REMARK  7 active torsions:
REMARK  status: ('A' for Active; 'I' for Inactive)
REMARK    1  A    between atoms: C_5  and  C_7
REMARK    2  A    between atoms: C_7  and  C_9
REMARK    3  A    between atoms: C_7  and  N_62
REMARK    4  A    between atoms: C_9  and  N_10
REMARK    5  A    between atoms: C_11  and  C_13
REMARK    6  A    between atoms: C_13  and  C_14
REMARK    7  A    between atoms: C_14  and  C_15
REMARK                            x       y       z     vdW  Elec       q    Type
REMARK                         _______ _______ _______ _____ _____    ______ ____
ROOT
ATOM      1  N   UNL     1      -0.815   0.400  -0.361  0.00  0.00    -0.317 N 
ATOM      2  C   UNL     1      -2.135   0.188  -0.532  0.00  0.00    +0.213 C 
ATOM      3  O   UNL     1      -2.886   1.129  -0.677  0.00  0.00    -0.276 OA
ATOM      4  H   UNL     1      -0.214  -0.353  -0.245  0.00  0.00    +0.149 HD
ENDROOT
BRANCH   1   5
ATOM      5  C   UNL     1      -0.288   1.766  -0.351  0.00  0.00    +0.093 C 
BRANCH   5   6
ATOM      6  C   UNL     1       1.241   1.723  -0.307  0.00  0.00    -0.019 C 
BRANCH   6  11
ATOM      7  C   UNL     1       2.585   5.116  -1.273  0.00  0.00    +0.000 A 
ATOM      8  C   UNL     1       2.773   5.702  -0.035  0.00  0.00    +0.001 A 
ATOM      9  C   UNL     1       2.465   5.001   1.116  0.00  0.00    +0.020 A 
ATOM     10  C   UNL     1       1.969   3.712   1.028  0.00  0.00    +0.043 A 
ATOM     11  C   UNL     1       1.781   3.127  -0.211  0.00  0.00    -0.041 A 
ATOM     12  C   UNL     1       2.094   3.827  -1.361  0.00  0.00    +0.003 A 
ATOM     13 CL   UNL     1       1.582   2.831   2.473  0.00  0.00    -0.083 Cl
ENDBRANCH   6  11
BRANCH   6  18
ATOM     14  C   UNL     1       3.227   1.198  -1.615  0.00  0.00    -0.078 C 
ATOM     15  C   UNL     1       3.611   0.074  -2.609  0.00  0.00    -0.020 C 
ATOM     16  C   UNL     1       2.628  -1.062  -2.244  0.00  0.00    -0.020 C 
ATOM     17  C   UNL     1       1.453  -0.363  -1.534  0.00  0.00    -0.078 C 
ATOM     18  N   UNL     1       1.763   1.067  -1.544  0.00  0.00    +0.385 N 
ATOM     19  H   UNL     1       1.334   1.509  -2.365  0.00  0.00    -0.081 HD
ENDBRANCH   6  18
ENDBRANCH   5   6
ENDBRANCH   1   5
BRANCH   2  20
ATOM     20  C   UNL     1      -2.677  -1.218  -0.543  0.00  0.00    +0.103 C 
BRANCH  20  21
ATOM     21  C   UNL     1      -4.193  -1.179  -0.751  0.00  0.00    +0.083 C 
BRANCH  21  22
ATOM     22  C   UNL     1      -4.735  -2.584  -0.762  0.00  0.00    +0.111 A 
ATOM     23  N   UNL     1      -6.067  -2.784  -0.935  0.00  0.00    -0.310 N 
ATOM     24  H   UNL     1      -6.651  -2.018  -1.049  0.00  0.00    +0.170 HD
ATOM     25  C   UNL     1      -6.593  -4.023  -0.951  0.00  0.00    +0.260 A 
ATOM     26  O   UNL     1      -7.791  -4.185  -1.107  0.00  0.00    -0.267 OA
ATOM     27  C   UNL     1      -5.721  -5.148  -0.782  0.00  0.00    +0.075 A 
ATOM     28  C   UNL     1      -6.065  -6.569  -0.764  0.00  0.00    -0.023 A 
ATOM     29  C   UNL     1      -5.052  -7.442  -0.586  0.00  0.00    -0.004 A 
ATOM     30  S   UNL     1      -3.600  -6.436  -0.434  0.00  0.00    -0.073 S 
ATOM     31  C   UNL     1      -4.362  -4.843  -0.610  0.00  0.00    +0.116 A 
ATOM     32  N   UNL     1      -3.915  -3.590  -0.610  0.00  0.00    -0.227 NA
ATOM     33  C   UNL     1      -5.140  -8.937  -0.530  0.00  0.00    +0.043 C 
ATOM     34  C   UNL     1      -6.612  -9.327  -0.334  0.00  0.00    +0.005 C 
ATOM     35  C   UNL     1      -7.466  -8.540  -1.333  0.00  0.00    +0.005 C 
ATOM     36  C   UNL     1      -7.499  -7.064  -0.937  0.00  0.00    +0.037 C 
ENDBRANCH  21  22
ENDBRANCH  20  21
ENDBRANCH   2  20
TORSDOF 7
