REMARK  Name = ZINC43666437
REMARK  3 active torsions:
REMARK  status: ('A' for Active; 'I' for Inactive)
REMARK    1  A    between atoms: C_2  and  C_11
REMARK    2  A    between atoms: C_11  and  N_12
REMARK    3  A    between atoms: C_13  and  N_18
REMARK                            x       y       z     vdW  Elec       q    Type
REMARK                         _______ _______ _______ _____ _____    ______ ____
ROOT
ATOM      1  C   UNL     1      -0.017   1.381   0.010  0.00  0.00    +0.055 A 
ATOM      2  C   UNL     1       1.171   2.090   0.002  0.00  0.00    -0.021 A 
ATOM      3  C   UNL     1       2.379   1.419  -0.013  0.00  0.00    +0.024 A 
ATOM      4  C   UNL     1       2.406   0.036  -0.021  0.00  0.00    +0.064 A 
ATOM      5  C   UNL     1       1.220  -0.680  -0.014  0.00  0.00    +0.180 A 
ATOM      6  C   UNL     1       0.002  -0.004   0.002  0.00  0.00    +0.168 A 
ATOM      7  O   UNL     1      -1.007  -0.923   0.006  0.00  0.00    -0.453 OA
ATOM      8  C   UNL     1      -0.404  -2.159  -0.419  0.00  0.00    +0.466 C 
ATOM      9  O   UNL     1       0.973  -2.023  -0.020  0.00  0.00    -0.451 OA
ATOM     10 BR   UNL     1       4.061  -0.877  -0.043  0.00  0.00    -0.046 Br
ENDROOT
BRANCH   2  11
ATOM     11  C   UNL     1       1.147   3.596   0.010  0.00  0.00    +0.180 C 
BRANCH  11  12
ATOM     12  N   UNL     1       1.153   4.077   1.394  0.00  0.00    -0.246 N 
ATOM     13  C   UNL     1       0.058   4.317   2.162  0.00  0.00    +0.129 A 
ATOM     14  C   UNL     1       0.498   4.750   3.377  0.00  0.00    +0.077 A 
ATOM     15  C   UNL     1       1.895   4.772   3.343  0.00  0.00    +0.151 A 
ATOM     16  N   UNL     1       2.287   4.365   2.163  0.00  0.00    -0.177 NA
ATOM     17 BR   UNL     1      -0.589   5.234   4.846  0.00  0.00    -0.045 Br
BRANCH  13  18
ATOM     18  N   UNL     1      -1.270   4.152   1.778  0.00  0.00    -0.342 N 
ATOM     19  H   UNL     1      -1.481   3.838   0.885  0.00  0.00    +0.144 HD
ATOM     20  H   UNL     1      -1.984   4.352   2.403  0.00  0.00    +0.144 HD
ENDBRANCH  13  18
ENDBRANCH  11  12
ENDBRANCH   2  11
TORSDOF 3
