REMARK  Name = ZINC06281291
REMARK  9 active torsions:
REMARK  status: ('A' for Active; 'I' for Inactive)
REMARK    1  A    between atoms: C_1  and  C_2
REMARK    2  A    between atoms: C_5  and  C_7
REMARK    3  A    between atoms: N_10  and  C_12
REMARK    4  A    between atoms: C_12  and  C_13
REMARK    5  A    between atoms: N_15  and  C_16
REMARK    6  A    between atoms: N_15  and  C_23
REMARK    7  A    between atoms: C_23  and  C_25
REMARK    8  A    between atoms: C_23  and  C_31
REMARK    9  A    between atoms: N_33  and  C_34
REMARK                            x       y       z     vdW  Elec       q    Type
REMARK                         _______ _______ _______ _____ _____    ______ ____
ROOT
ATOM      1  C   UNL     1       5.507  -4.572  -1.609  0.00  0.00    +0.244 C 
ATOM      2  O   UNL     1       4.653  -4.689  -2.462  0.00  0.00    -0.273 OA
ATOM      3  N   UNL     1       6.782  -4.917  -1.880  0.00  0.00    -0.254 N 
ENDROOT
BRANCH   3   4
ATOM      4  C   UNL     1       7.748  -4.880  -0.868  0.00  0.00    +0.038 A 
ATOM      5  C   UNL     1       8.748  -3.917  -0.895  0.00  0.00    +0.026 A 
ATOM      6  C   UNL     1       9.700  -3.882   0.104  0.00  0.00    +0.040 A 
ATOM      7  C   UNL     1       9.658  -4.807   1.134  0.00  0.00    +0.124 A 
ATOM      8  C   UNL     1       8.662  -5.768   1.164  0.00  0.00    +0.040 A 
ATOM      9  C   UNL     1       7.704  -5.802   0.169  0.00  0.00    +0.026 A 
ATOM     10  F   UNL     1      10.590  -4.771   2.111  0.00  0.00    -0.205 F 
ENDBRANCH   3   4
BRANCH   1  11
ATOM     11  C   UNL     1       5.144  -4.041  -0.246  0.00  0.00    +0.264 C 
BRANCH  11  15
ATOM     12  C   UNL     1       1.997  -2.452  -0.425  0.00  0.00    +0.239 A 
ATOM     13  N   UNL     1       1.653  -3.691  -0.042  0.00  0.00    -0.105 NA
ATOM     14  N   UNL     1       2.740  -4.377   0.059  0.00  0.00    -0.045 NA
ATOM     15  N   UNL     1       3.740  -3.624  -0.243  0.00  0.00    -0.154 N 
ATOM     16  N   UNL     1       3.312  -2.447  -0.547  0.00  0.00    -0.127 NA
BRANCH  12  21
ATOM     17  C   UNL     1       0.337   2.139  -1.596  0.00  0.00    +0.086 C 
ATOM     18  C   UNL     1       0.351   0.690  -1.180  0.00  0.00    +0.103 A 
ATOM     19  C   UNL     1      -0.731  -0.048  -0.868  0.00  0.00    +0.045 A 
ATOM     20  C   UNL     1      -0.270  -1.339  -0.538  0.00  0.00    +0.053 A 
ATOM     21  C   UNL     1       1.083  -1.316  -0.669  0.00  0.00    +0.175 A 
ATOM     22  O   UNL     1       1.445  -0.080  -1.065  0.00  0.00    -0.457 OA
ENDBRANCH  12  21
ENDBRANCH  11  15
ENDBRANCH   1  11
BRANCH   3  23
ATOM     23  C   UNL     1       7.156  -5.331  -3.235  0.00  0.00    +0.197 C 
BRANCH  23  24
ATOM     24  C   UNL     1       8.650  -5.516  -3.309  0.00  0.00    -0.015 A 
ATOM     25  C   UNL     1       9.298  -6.404  -2.465  0.00  0.00    +0.025 A 
ATOM     26  C   UNL     1      10.669  -6.547  -2.561  0.00  0.00    +0.111 A 
ATOM     27  N   UNL     1      11.359  -5.850  -3.443  0.00  0.00    -0.263 NA
ATOM     28  C   UNL     1      10.777  -4.996  -4.261  0.00  0.00    +0.111 A 
ATOM     29  C   UNL     1       9.408  -4.805  -4.227  0.00  0.00    +0.025 A 
ENDBRANCH  23  24
BRANCH  23  30
ATOM     30  C   UNL     1       6.472  -6.631  -3.570  0.00  0.00    +0.239 C 
ATOM     31  O   UNL     1       5.743  -7.160  -2.758  0.00  0.00    -0.273 OA
ATOM     32  N   UNL     1       6.670  -7.206  -4.773  0.00  0.00    -0.311 N 
ATOM     33  H   UNL     1       7.252  -6.783  -5.423  0.00  0.00    +0.149 HD
BRANCH  32  34
ATOM     34  C   UNL     1       6.004  -8.470  -5.099  0.00  0.00    +0.073 C 
ATOM     35  C   UNL     1       6.870  -9.658  -4.632  0.00  0.00    +0.022 C 
ATOM     36  C   UNL     1       6.676 -10.726  -5.737  0.00  0.00    +0.002 C 
ATOM     37  C   UNL     1       6.634  -9.876  -7.030  0.00  0.00    +0.002 C 
ATOM     38  C   UNL     1       5.854  -8.608  -6.624  0.00  0.00    +0.022 C 
ENDBRANCH  32  34
ENDBRANCH  23  30
ENDBRANCH   3  23
TORSDOF 8
