REMARK  Name = ZINC40043007
REMARK  10 active torsions:
REMARK  status: ('A' for Active; 'I' for Inactive)
REMARK    1  A    between atoms: C_1  and  C_2
REMARK    2  A    between atoms: C_2  and  C_3
REMARK    3  A    between atoms: N_16  and  C_28
REMARK    4  A    between atoms: C_17  and  C_19
REMARK    5  A    between atoms: C_22  and  C_25
REMARK    6  A    between atoms: C_25  and  C_26
REMARK    7  A    between atoms: C_25  and  C_27
REMARK    8  A    between atoms: C_28  and  C_29
REMARK    9  A    between atoms: C_29  and  C_30
REMARK   10  A    between atoms: C_30  and  O_31
REMARK                            x       y       z     vdW  Elec       q    Type
REMARK                         _______ _______ _______ _____ _____    ______ ____
ROOT
ATOM      1  C   UNL     1       0.731  -0.503   1.223  0.00  0.00    -0.047 A 
ATOM      2  C   UNL     1       2.103  -0.710   1.173  0.00  0.00    +0.007 A 
ATOM      3  C   UNL     1       2.787  -1.168   2.276  0.00  0.00    +0.047 A 
ATOM      4  C   UNL     1       2.104  -1.430   3.464  0.00  0.00    +0.139 A 
ATOM      5  C   UNL     1       0.717  -1.212   3.504  0.00  0.00    +0.065 A 
ATOM      6  C   UNL     1       0.040  -0.746   2.377  0.00  0.00    +0.019 A 
ATOM      7  C   UNL     1      -0.017  -1.473   4.768  0.00  0.00    +0.199 A 
ATOM      8  O   UNL     1      -1.232  -1.474   4.846  0.00  0.00    -0.287 OA
ATOM      9  C   UNL     1       0.862  -1.732   5.914  0.00  0.00    +0.072 A 
ATOM     10  C   UNL     1       2.204  -1.919   5.744  0.00  0.00    +0.199 A 
ATOM     11  O   UNL     1       2.795  -1.887   4.533  0.00  0.00    -0.450 OA
ATOM     12  C   UNL     1       2.811  -2.146   7.067  0.00  0.00    +0.283 C 
ATOM     13  O   UNL     1       3.993  -2.343   7.266  0.00  0.00    -0.267 OA
ATOM     14  N   UNL     1       1.862  -2.104   8.025  0.00  0.00    -0.284 N 
ATOM     15  C   UNL     1       0.568  -1.843   7.374  0.00  0.00    +0.144 C 
ENDROOT
BRANCH  15  16
ATOM     16  C   UNL     1      -0.021  -0.553   7.885  0.00  0.00    -0.022 A 
ATOM     17  C   UNL     1       0.802   0.528   8.143  0.00  0.00    +0.006 A 
ATOM     18  C   UNL     1       0.262   1.711   8.612  0.00  0.00    +0.004 A 
ATOM     19  C   UNL     1      -1.100   1.813   8.822  0.00  0.00    -0.045 A 
ATOM     20  C   UNL     1      -1.923   0.733   8.564  0.00  0.00    +0.004 A 
ATOM     21  C   UNL     1      -1.383  -0.449   8.091  0.00  0.00    +0.006 A 
BRANCH  19  22
ATOM     22  C   UNL     1      -1.689   3.102   9.335  0.00  0.00    +0.013 C 
ATOM     23  C   UNL     1      -2.698   3.642   8.319  0.00  0.00    +0.012 C 
ATOM     24  C   UNL     1      -2.394   2.847  10.668  0.00  0.00    +0.012 C 
ENDBRANCH  19  22
ENDBRANCH  15  16
BRANCH   1  26
ATOM     25  C   UNL     1      -0.019   1.526   0.010  0.00  0.00    +0.009 C 
ATOM     26  C   UNL     1       0.002  -0.004   0.002  0.00  0.00    +0.032 C 
ENDBRANCH   1  26
BRANCH  14  27
ATOM     27  C   UNL     1       2.081  -2.286   9.462  0.00  0.00    +0.111 C 
BRANCH  27  28
ATOM     28  C   UNL     1       2.369  -0.930  10.110  0.00  0.00    +0.047 C 
BRANCH  28  29
ATOM     29  C   UNL     1       2.598  -1.121  11.611  0.00  0.00    +0.157 C 
BRANCH  29  30
ATOM     30  O   UNL     1       2.868   0.145  12.216  0.00  0.00    -0.395 OA
ATOM     31  H   UNL     1       3.023   0.101  13.169  0.00  0.00    +0.209 HD
ENDBRANCH  29  30
ENDBRANCH  28  29
ENDBRANCH  27  28
ENDBRANCH  14  27
TORSDOF 7
