REMARK  Name = ZINC04230310
REMARK  10 active torsions:
REMARK  status: ('A' for Active; 'I' for Inactive)
REMARK    1  A    between atoms: C_1  and  C_2
REMARK    2  A    between atoms: C_2  and  O_3
REMARK    3  A    between atoms: O_3  and  C_4
REMARK    4  A    between atoms: C_4  and  C_6
REMARK    5  A    between atoms: C_10  and  N_11
REMARK    6  A    between atoms: C_12  and  C_14
REMARK    7  A    between atoms: N_16  and  N_17
REMARK    8  A    between atoms: C_18  and  C_19
REMARK    9  A    between atoms: C_23  and  N_25
REMARK   10  A    between atoms: C_30  and  C_34
REMARK                            x       y       z     vdW  Elec       q    Type
REMARK                         _______ _______ _______ _____ _____    ______ ____
ROOT
ATOM      1  N   UNL     1      -2.446  -4.179   0.003  0.00  0.00    -0.271 N 
ATOM      2  C   UNL     1      -2.464  -2.831   0.010  0.00  0.00    +0.305 C 
ATOM      3  O   UNL     1      -3.523  -2.239   0.024  0.00  0.00    -0.265 OA
ATOM      4  H   UNL     1      -1.599  -4.652  -0.008  0.00  0.00    +0.156 HD
ENDROOT
BRANCH   1   9
ATOM      5  C   UNL     1      -3.819  -6.264   0.005  0.00  0.00    +0.091 A 
ATOM      6  C   UNL     1      -5.185  -6.758   0.015  0.00  0.00    -0.021 A 
ATOM      7  C   UNL     1      -6.142  -5.803   0.029  0.00  0.00    -0.004 A 
ATOM      8  S   UNL     1      -5.254  -4.272   0.037  0.00  0.00    -0.077 S 
ATOM      9  C   UNL     1      -3.634  -4.887   0.011  0.00  0.00    +0.087 A 
ATOM     10  C   UNL     1      -7.625  -6.011   0.041  0.00  0.00    +0.046 C 
ATOM     11  C   UNL     1      -7.912  -7.470  -0.344  0.00  0.00    -0.009 C 
ATOM     12  C   UNL     1      -7.001  -8.385   0.480  0.00  0.00    +0.008 C 
ATOM     13  C   UNL     1      -5.552  -8.236   0.011  0.00  0.00    +0.037 C 
ATOM     14  C   UNL     1      -9.376  -7.800  -0.049  0.00  0.00    +0.008 C 
BRANCH   5  15
ATOM     15  C   UNL     1      -2.679  -7.184  -0.010  0.00  0.00    +0.342 C 
ATOM     16  O   UNL     1      -2.196  -7.571   1.037  0.00  0.00    -0.245 OA
BRANCH  15  17
ATOM     17  O   UNL     1      -2.165  -7.601  -1.185  0.00  0.00    -0.461 OA
BRANCH  17  19
ATOM     18  C   UNL     1      -0.594  -8.872  -2.544  0.00  0.00    +0.048 C 
ATOM     19  C   UNL     1      -1.036  -8.512  -1.125  0.00  0.00    +0.229 C 
ENDBRANCH  17  19
ENDBRANCH  15  17
ENDBRANCH   5  15
ENDBRANCH   1   9
BRANCH   2  20
ATOM     20  C   UNL     1      -1.183  -2.069   0.002  0.00  0.00    +0.318 C 
ATOM     21  O   UNL     1      -0.123  -2.662  -0.011  0.00  0.00    -0.263 OA
ATOM     22  N   UNL     1      -1.202  -0.721   0.010  0.00  0.00    -0.199 N 
ATOM     23  H   UNL     1      -2.048  -0.247   0.020  0.00  0.00    +0.178 HD
BRANCH  22  24
ATOM     24  N   UNL     1       0.002  -0.004   0.002  0.00  0.00    -0.187 NA
ATOM     25  C   UNL     1      -0.015   1.295   0.009  0.00  0.00    +0.138 C 
BRANCH  25  26
ATOM     26  C   UNL     1       1.251   2.049   0.001  0.00  0.00    -0.003 A 
ATOM     27  C   UNL     1       2.472   1.370  -0.008  0.00  0.00    +0.011 A 
ATOM     28  C   UNL     1       3.653   2.082  -0.022  0.00  0.00    +0.023 A 
ATOM     29  C   UNL     1       3.631   3.467  -0.015  0.00  0.00    +0.071 A 
ATOM     30  C   UNL     1       2.424   4.146   0.001  0.00  0.00    +0.145 A 
ATOM     31  C   UNL     1       1.235   3.446   0.009  0.00  0.00    +0.043 A 
ATOM     32 CL   UNL     1       5.122   4.355  -0.025  0.00  0.00    -0.081 Cl
BRANCH  30  33
ATOM     33  N   UNL     1       2.409   5.626   0.009  0.00  0.00    +0.058 N 
ATOM     34  O   UNL     1       1.349   6.224   0.023  0.00  0.00    -0.126 OA
ATOM     35  O   UNL     1       3.458   6.245   0.003  0.00  0.00    -0.126 OA
ENDBRANCH  30  33
ENDBRANCH  25  26
ENDBRANCH  22  24
ENDBRANCH   2  20
TORSDOF 8
