REMARK  Name = ZINC43262323
REMARK  9 active torsions:
REMARK  status: ('A' for Active; 'I' for Inactive)
REMARK    1  A    between atoms: C_1  and  C_2
REMARK    2  A    between atoms: C_2  and  C_4
REMARK    3  A    between atoms: C_2  and  N_22
REMARK    4  A    between atoms: C_4  and  C_6
REMARK    5  A    between atoms: C_4  and  N_12
REMARK    6  A    between atoms: C_15  and  C_18
REMARK    7  A    between atoms: C_18  and  N_19
REMARK    8  A    between atoms: N_19  and  C_20
REMARK    9  A    between atoms: N_19  and  C_21
REMARK                            x       y       z     vdW  Elec       q    Type
REMARK                         _______ _______ _______ _____ _____    ______ ____
ROOT
ATOM      1  C   UNL     1       1.084  -0.927   1.154  0.00  0.00    +0.079 C 
ENDROOT
BRANCH   1   2
ATOM      2  C   UNL     1       1.362  -2.401   1.302  0.00  0.00    +0.006 A 
ATOM      3  C   UNL     1       0.654  -3.339   1.977  0.00  0.00    +0.014 A 
ATOM      4  C   UNL     1       1.102  -4.647   1.977  0.00  0.00    +0.023 A 
ATOM      5  C   UNL     1       2.238  -4.952   1.301  0.00  0.00    +0.055 A 
ATOM      6  S   UNL     1       2.705  -3.365   0.629  0.00  0.00    -0.085 S 
ATOM      7 BR   UNL     1       3.099  -6.625   1.113  0.00  0.00    -0.043 Br
ENDBRANCH   1   2
BRANCH   1   8
ATOM      8  N   UNL     1       2.346  -0.180   1.235  0.00  0.00    -0.296 NA
ATOM      9  C   UNL     1       2.111   1.264   1.116  0.00  0.00    +0.085 C 
ATOM     10  C   UNL     1       3.453   1.998   1.058  0.00  0.00    +0.017 C 
ATOM     11  C   UNL     1       4.250   1.694   2.330  0.00  0.00    -0.025 C 
ATOM     12  C   UNL     1       4.439   0.180   2.455  0.00  0.00    +0.017 C 
ATOM     13  C   UNL     1       3.068  -0.501   2.473  0.00  0.00    +0.085 C 
BRANCH  11  14
ATOM     14  C   UNL     1       5.618   2.376   2.251  0.00  0.00    -0.076 C 
BRANCH  14  15
ATOM     15  N   UNL     1       6.349   2.152   3.505  0.00  0.00    +0.376 N 
ATOM     16  C   UNL     1       7.715   2.675   3.375  0.00  0.00    -0.097 C 
ATOM     17  C   UNL     1       5.662   2.845   4.604  0.00  0.00    -0.097 C 
ATOM     18  H   UNL     1       6.385   1.163   3.702  0.00  0.00    -0.083 HD
ENDBRANCH  14  15
ENDBRANCH  11  14
ENDBRANCH   1   8
BRANCH   1  20
ATOM     19  C   UNL     1      -0.909  -1.416  -0.272  0.00  0.00    -0.012 C 
ATOM     20  C   UNL     1       0.423  -0.667  -0.202  0.00  0.00    -0.056 C 
BRANCH  20  21
ATOM     21  N   UNL     1       1.307  -1.139  -1.276  0.00  0.00    +0.381 N 
ATOM     22  H   UNL     1       0.872  -0.967  -2.170  0.00  0.00    -0.090 HD
ATOM     23  H   UNL     1       2.186  -0.645  -1.229  0.00  0.00    -0.090 HD
ATOM     24  H   UNL     1       1.471  -2.128  -1.166  0.00  0.00    -0.090 HD
ENDBRANCH  20  21
ENDBRANCH   1  20
TORSDOF 6
