REMARK  Name = ZINC08781482
REMARK  7 active torsions:
REMARK  status: ('A' for Active; 'I' for Inactive)
REMARK    1  A    between atoms: C_6  and  C_7
REMARK    2  A    between atoms: N_9  and  N_10
REMARK    3  A    between atoms: C_11  and  C_13
REMARK    4  A    between atoms: C_16  and  C_19
REMARK    5  A    between atoms: C_19  and  N_20
REMARK    6  A    between atoms: N_20  and  C_21
REMARK    7  A    between atoms: C_24  and  C_26
REMARK                            x       y       z     vdW  Elec       q    Type
REMARK                         _______ _______ _______ _____ _____    ______ ____
ROOT
ATOM      1  C   UNL     1       2.113   0.523   0.592  0.00  0.00    +0.146 C 
ATOM      2  N   UNL     1       1.231  -0.418   0.566  0.00  0.00    -0.084 NA
ATOM      3  O   UNL     1       0.002  -0.004   0.002  0.00  0.00    -0.388 OA
ATOM      4  C   UNL     1      -0.018   1.438   0.010  0.00  0.00    +0.227 C 
ATOM      5  C   UNL     1       1.493   1.773  -0.003  0.00  0.00    +0.113 C 
ENDROOT
BRANCH   1   7
ATOM      6  N   UNL     1       3.920  -0.770   1.616  0.00  0.00    -0.229 N 
ATOM      7  C   UNL     1       3.490   0.404   1.111  0.00  0.00    +0.278 C 
ATOM      8  O   UNL     1       4.235   1.363   1.083  0.00  0.00    -0.267 OA
ATOM      9  H   UNL     1       3.325  -1.535   1.639  0.00  0.00    +0.173 HD
BRANCH   6  12
ATOM     10  C   UNL     1       5.657  -2.056   2.614  0.00  0.00    +0.260 C 
ATOM     11  O   UNL     1       4.911  -3.016   2.642  0.00  0.00    -0.269 OA
ATOM     12  N   UNL     1       5.226  -0.883   2.109  0.00  0.00    -0.230 N 
ATOM     13  H   UNL     1       5.821  -0.117   2.087  0.00  0.00    +0.173 HD
BRANCH  10  19
ATOM     14  C   UNL     1       7.895  -1.077   3.098  0.00  0.00    +0.014 A 
ATOM     15  C   UNL     1       9.178  -1.193   3.589  0.00  0.00    +0.021 A 
ATOM     16  C   UNL     1       9.618  -2.400   4.108  0.00  0.00    +0.041 A 
ATOM     17  C   UNL     1       8.770  -3.495   4.141  0.00  0.00    +0.021 A 
ATOM     18  C   UNL     1       7.483  -3.390   3.658  0.00  0.00    +0.014 A 
ATOM     19  C   UNL     1       7.035  -2.176   3.134  0.00  0.00    +0.038 A 
ATOM     20 CL   UNL     1      11.237  -2.541   4.718  0.00  0.00    -0.084 Cl
ENDBRANCH  10  19
ENDBRANCH   6  12
ENDBRANCH   1   7
BRANCH   4  21
ATOM     21  C   UNL     1      -0.710   1.983  -1.241  0.00  0.00    +0.150 C 
BRANCH  21  22
ATOM     22  N   UNL     1      -2.130   1.623  -1.209  0.00  0.00    -0.326 N 
ATOM     23  H   UNL     1      -2.484   1.114  -0.464  0.00  0.00    +0.148 HD
BRANCH  22  24
ATOM     24  C   UNL     1      -2.969   2.012  -2.247  0.00  0.00    +0.115 A 
ATOM     25  C   UNL     1      -4.316   1.662  -2.213  0.00  0.00    +0.079 A 
ATOM     26  C   UNL     1      -5.141   2.061  -3.251  0.00  0.00    +0.037 A 
ATOM     27  C   UNL     1      -4.587   2.789  -4.295  0.00  0.00    +0.072 A 
ATOM     28  C   UNL     1      -3.241   3.096  -4.266  0.00  0.00    +0.096 A 
ATOM     29 CL   UNL     1      -4.954   0.744  -0.885  0.00  0.00    -0.080 Cl
ATOM     30  N   UNL     1      -2.402   2.726  -3.262  0.00  0.00    -0.348 N 
ATOM     31  H   UNL     1      -1.405   2.969  -3.267  0.00  0.00    +0.167 HD
BRANCH  27  32
ATOM     32  C   UNL     1      -5.445   3.239  -5.449  0.00  0.00    +0.419 C 
ATOM     33  F   UNL     1      -4.661   3.948  -6.365  0.00  0.00    -0.166 F 
ATOM     34  F   UNL     1      -6.002   2.121  -6.080  0.00  0.00    -0.166 F 
ATOM     35  F   UNL     1      -6.470   4.064  -4.974  0.00  0.00    -0.166 F 
ENDBRANCH  27  32
ENDBRANCH  22  24
ENDBRANCH  21  22
ENDBRANCH   4  21
TORSDOF 7
