REMARK  Name = ZINC22533125
REMARK  13 active torsions:
REMARK  status: ('A' for Active; 'I' for Inactive)
REMARK    1  A    between atoms: C_1  and  C_2
REMARK    2  A    between atoms: C_2  and  N_3
REMARK    3  A    between atoms: N_3  and  C_4
REMARK    4  A    between atoms: C_4  and  C_5
REMARK    5  A    between atoms: C_6  and  C_8
REMARK    6  A    between atoms: C_8  and  S_9
REMARK    7  A    between atoms: S_9  and  C_10
REMARK    8  A    between atoms: C_13  and  S_16
REMARK    9  A    between atoms: N_14  and  N_15
REMARK   10  A    between atoms: S_16  and  C_17
REMARK   11  A    between atoms: C_17  and  C_18
REMARK   12  A    between atoms: N_24  and  C_25
REMARK   13  A    between atoms: C_30  and  C_31
REMARK                            x       y       z     vdW  Elec       q    Type
REMARK                         _______ _______ _______ _____ _____    ______ ____
ROOT
ATOM      1  C   UNL     1       6.327   4.017  -0.036  0.00  0.00    +0.153 C 
ENDROOT
BRANCH   1   2
ATOM      2  C   UNL     1       7.373   5.102  -0.040  0.00  0.00    +0.146 A 
ATOM      3  N   UNL     1       7.819   5.582  -1.188  0.00  0.00    -0.199 NA
ATOM      4  C   UNL     1       8.739   6.545  -1.196  0.00  0.00    +0.217 A 
ATOM      5  N   UNL     1       9.216   7.014  -0.048  0.00  0.00    -0.181 NA
ATOM      6  C   UNL     1       8.769   6.525   1.103  0.00  0.00    +0.224 A 
ATOM      7  N   UNL     1       7.845   5.566   1.103  0.00  0.00    -0.198 NA
ATOM      8  N   UNL     1       9.262   7.010   2.299  0.00  0.00    -0.283 N 
ATOM      9  N   UNL     1       9.200   7.050  -2.394  0.00  0.00    -0.327 N 
ATOM     10  H   UNL     1       8.824   6.675   3.251  0.00  0.00    +0.155 HD
ATOM     11  H   UNL     1       9.960   7.845  -2.400  0.00  0.00    +0.145 HD
ATOM     12  H   UNL     1       8.807   6.657  -3.344  0.00  0.00    +0.145 HD
BRANCH   8  13
ATOM     13  C   UNL     1      10.318   7.927   2.299  0.00  0.00    +0.036 A 
ATOM     14  C   UNL     1      11.200   7.972   1.227  0.00  0.00    +0.023 A 
ATOM     15  C   UNL     1      12.239   8.883   1.228  0.00  0.00    +0.002 A 
ATOM     16  C   UNL     1      12.407   9.741   2.300  0.00  0.00    +0.000 A 
ATOM     17  C   UNL     1      11.534   9.694   3.371  0.00  0.00    +0.005 A 
ATOM     18  C   UNL     1      10.490   8.790   3.373  0.00  0.00    -0.029 A 
ATOM     19  C   UNL     1       9.539   8.739   4.541  0.00  0.00    +0.045 C 
ENDBRANCH   8  13
ENDBRANCH   1   2
BRANCH   1  20
ATOM     20  S   UNL     1       4.676   4.768  -0.008  0.00  0.00    -0.077 S 
BRANCH  20  24
ATOM     21  C   UNL     1       1.736   2.167   0.009  0.00  0.00    +0.209 A 
ATOM     22  N   UNL     1       2.763   1.352  -0.006  0.00  0.00    -0.120 NA
ATOM     23  N   UNL     1       3.930   2.126  -0.021  0.00  0.00    -0.120 NA
ATOM     24  C   UNL     1       3.580   3.389  -0.005  0.00  0.00    +0.209 A 
ATOM     25  N   UNL     1       2.214   3.448   0.014  0.00  0.00    -0.219 N 
BRANCH  25  26
ATOM     26  N   UNL     1       1.460   4.586   0.033  0.00  0.00    -0.294 N 
ATOM     27  H   UNL     1       1.950   5.571   0.035  0.00  0.00    +0.163 HD
ATOM     28  H   UNL     1       0.362   4.519   0.047  0.00  0.00    +0.163 HD
ENDBRANCH  25  26
BRANCH  21  29
ATOM     29  S   UNL     1       0.039   1.695   0.027  0.00  0.00    -0.075 S 
BRANCH  29  30
ATOM     30  C   UNL     1       0.087  -0.118   0.011  0.00  0.00    +0.173 C 
BRANCH  30  32
ATOM     31  N   UNL     1      -1.530  -1.990   0.016  0.00  0.00    -0.301 N 
ATOM     32  C   UNL     1      -1.319  -0.658   0.025  0.00  0.00    +0.226 C 
ATOM     33  O   UNL     1      -2.262   0.105   0.044  0.00  0.00    -0.275 OA
BRANCH  31  35
ATOM     34  C   UNL     1       0.024  -3.245   1.427  0.00  0.00    +0.024 C 
ATOM     35  C   UNL     1      -0.392  -2.911  -0.007  0.00  0.00    +0.104 C 
ENDBRANCH  31  35
BRANCH  31  36
ATOM     36  C   UNL     1      -2.898  -2.515   0.030  0.00  0.00    +0.104 C 
ATOM     37  C   UNL     1      -3.393  -2.685  -1.408  0.00  0.00    +0.024 C 
ENDBRANCH  31  36
ENDBRANCH  30  32
ENDBRANCH  29  30
ENDBRANCH  21  29
ENDBRANCH  20  24
ENDBRANCH   1  20
TORSDOF 10
