REMARK  Name = ZINC42855754
REMARK  15 active torsions:
REMARK  status: ('A' for Active; 'I' for Inactive)
REMARK    1  A    between atoms: C_1  and  C_2
REMARK    2  A    between atoms: C_2  and  C_3
REMARK    3  A    between atoms: C_3  and  C_4
REMARK    4  A    between atoms: C_3  and  C_5
REMARK    5  A    between atoms: C_3  and  N_6
REMARK    6  A    between atoms: C_7  and  C_9
REMARK    7  A    between atoms: C_9  and  C_11
REMARK    8  A    between atoms: C_9  and  S_14
REMARK    9  A    between atoms: C_11  and  C_12
REMARK   10  A    between atoms: C_11  and  C_13
REMARK   11  A    between atoms: S_14  and  C_15
REMARK   12  A    between atoms: C_18  and  C_21
REMARK   13  A    between atoms: N_19  and  N_20
REMARK   14  A    between atoms: C_26  and  O_27
REMARK   15  A    between atoms: O_27  and  C_28
REMARK                            x       y       z     vdW  Elec       q    Type
REMARK                         _______ _______ _______ _____ _____    ______ ____
ROOT
ATOM      1  C   UNL     1      -3.951  -4.554  -2.379  0.00  0.00    +0.209 A 
ATOM      2  N   UNL     1      -2.979  -3.908  -2.982  0.00  0.00    -0.121 NA
ATOM      3  N   UNL     1      -3.202  -3.856  -4.247  0.00  0.00    -0.127 NA
ATOM      4  C   UNL     1      -4.330  -4.467  -4.529  0.00  0.00    +0.185 A 
ATOM      5  N   UNL     1      -4.842  -4.937  -3.342  0.00  0.00    -0.224 N 
ENDROOT
BRANCH   4   6
ATOM      6  C   UNL     1      -4.933  -4.623  -5.869  0.00  0.00    +0.062 A 
ATOM      7  C   UNL     1      -6.287  -4.346  -6.065  0.00  0.00    +0.015 A 
ATOM      8  C   UNL     1      -6.844  -4.494  -7.319  0.00  0.00    +0.001 A 
ATOM      9  C   UNL     1      -6.066  -4.916  -8.383  0.00  0.00    +0.004 A 
ATOM     10  C   UNL     1      -4.724  -5.194  -8.200  0.00  0.00    +0.046 A 
ATOM     11  C   UNL     1      -4.148  -5.044  -6.949  0.00  0.00    +0.131 A 
BRANCH  11  12
ATOM     12  O   UNL     1      -2.828  -5.310  -6.770  0.00  0.00    -0.494 OA
ATOM     13  C   UNL     1      -2.091  -5.735  -7.918  0.00  0.00    +0.277 C 
ENDBRANCH  11  12
ENDBRANCH   4   6
BRANCH   5  14
ATOM     14  N   UNL     1      -6.000  -5.638  -3.163  0.00  0.00    -0.295 N 
ATOM     15  H   UNL     1      -6.791  -5.016  -3.087  0.00  0.00    +0.163 HD
ATOM     16  H   UNL     1      -6.136  -6.308  -3.905  0.00  0.00    +0.163 HD
ENDBRANCH   5  14
BRANCH   1  17
ATOM     17  S   UNL     1      -4.078  -4.874  -0.651  0.00  0.00    -0.071 S 
BRANCH  17  18
ATOM     18  C   UNL     1      -2.528  -4.225   0.031  0.00  0.00    +0.143 C 
BRANCH  18  20
ATOM     19  N   UNL     1      -1.329  -2.070  -0.161  0.00  0.00    -0.309 N 
ATOM     20  C   UNL     1      -2.506  -2.725  -0.112  0.00  0.00    +0.227 C 
ATOM     21  O   UNL     1      -3.547  -2.107  -0.182  0.00  0.00    -0.275 OA
ATOM     22  H   UNL     1      -0.496  -2.564  -0.104  0.00  0.00    +0.149 HD
BRANCH  19  23
ATOM     23  C   UNL     1      -1.307  -0.611  -0.299  0.00  0.00    +0.029 C 
ATOM     24  C   UNL     1      -2.035   0.024   0.887  0.00  0.00    +0.031 C 
ATOM     25  C   UNL     1      -2.007  -0.212  -1.600  0.00  0.00    +0.031 C 
BRANCH  23  27
ATOM     26  C   UNL     1       0.165   1.400  -0.474  0.00  0.00    +0.006 C 
ATOM     27  C   UNL     1       0.143  -0.123  -0.329  0.00  0.00    +0.022 C 
ENDBRANCH  23  27
ENDBRANCH  19  23
ENDBRANCH  18  20
BRANCH  18  28
ATOM     28  C   UNL     1      -2.425  -4.598   1.511  0.00  0.00    +0.005 C 
ATOM     29  C   UNL     1      -2.424  -6.121   1.654  0.00  0.00    +0.009 C 
ATOM     30  C   UNL     1      -1.129  -4.030   2.092  0.00  0.00    +0.009 C 
ENDBRANCH  18  28
ENDBRANCH  17  18
ENDBRANCH   1  17
TORSDOF 9
