REMARK  Name = ZINC59913754
REMARK  10 active torsions:
REMARK  status: ('A' for Active; 'I' for Inactive)
REMARK    1  A    between atoms: C_1  and  C_2
REMARK    2  A    between atoms: C_2  and  C_3
REMARK    3  A    between atoms: C_2  and  C_4
REMARK    4  A    between atoms: C_7  and  S_10
REMARK    5  A    between atoms: N_8  and  N_9
REMARK    6  A    between atoms: S_10  and  C_11
REMARK    7  A    between atoms: C_11  and  C_12
REMARK    8  A    between atoms: C_18  and  S_20
REMARK    9  A    between atoms: S_20  and  C_21
REMARK   10  A    between atoms: C_21  and  C_22
REMARK                            x       y       z     vdW  Elec       q    Type
REMARK                         _______ _______ _______ _____ _____    ______ ____
ROOT
ATOM      1  C   UNL     1       2.894  -3.068   6.573  0.00  0.00    +0.229 C 
ATOM      2  O   UNL     1       1.924  -3.678   6.970  0.00  0.00    -0.275 OA
ATOM      3  N   UNL     1       4.040  -3.088   7.282  0.00  0.00    -0.263 N 
ATOM      4  C   UNL     1       4.110  -3.811   8.471  0.00  0.00    +0.189 A 
ATOM      5  N   UNL     1       3.189  -4.542   9.077  0.00  0.00    -0.125 NA
ATOM      6  N   UNL     1       3.419  -5.139  10.164  0.00  0.00    -0.133 NA
ATOM      7  C   UNL     1       4.598  -5.072  10.765  0.00  0.00    +0.160 A 
ATOM      8  S   UNL     1       5.475  -4.021   9.610  0.00  0.00    -0.024 S 
ATOM      9  H   UNL     1       4.816  -2.601   6.964  0.00  0.00    +0.157 HD
ENDROOT
BRANCH   1  10
ATOM     10  C   UNL     1       2.818  -2.286   5.286  0.00  0.00    +0.173 C 
BRANCH  10  11
ATOM     11  S   UNL     1       1.159  -2.454   4.574  0.00  0.00    -0.075 S 
BRANCH  11  15
ATOM     12  C   UNL     1       0.731  -0.503   1.223  0.00  0.00    +0.154 A 
ATOM     13  N   UNL     1       1.968  -0.246   1.543  0.00  0.00    -0.132 NA
ATOM     14  N   UNL     1       2.268  -0.830   2.648  0.00  0.00    -0.121 NA
ATOM     15  C   UNL     1       1.230  -1.497   3.096  0.00  0.00    +0.209 A 
ATOM     16  N   UNL     1       0.215  -1.305   2.203  0.00  0.00    -0.228 N 
BRANCH  12  18
ATOM     17  C   UNL     1      -0.019   1.526   0.010  0.00  0.00    +0.015 C 
ATOM     18  C   UNL     1       0.002  -0.004   0.002  0.00  0.00    +0.052 C 
ATOM     19  C   UNL     1       0.718  -0.497  -1.257  0.00  0.00    +0.015 C 
ENDBRANCH  12  18
BRANCH  16  20
ATOM     20  N   UNL     1      -1.052  -1.811   2.273  0.00  0.00    -0.295 N 
ATOM     21  H   UNL     1      -1.109  -2.708   1.814  0.00  0.00    +0.163 HD
ATOM     22  H   UNL     1      -1.363  -1.875   3.231  0.00  0.00    +0.163 HD
ENDBRANCH  16  20
ENDBRANCH  11  15
ENDBRANCH  10  11
ENDBRANCH   1  10
BRANCH   7  23
ATOM     23  S   UNL     1       5.147  -5.810  12.268  0.00  0.00    -0.088 S 
BRANCH  23  24
ATOM     24  C   UNL     1       3.700  -6.731  12.859  0.00  0.00    +0.171 C 
BRANCH  24  25
ATOM     25  C   UNL     1       4.039  -7.419  14.156  0.00  0.00    +0.221 C 
ATOM     26  O   UNL     1       5.147  -7.300  14.634  0.00  0.00    -0.275 OA
ATOM     27  N   UNL     1       3.110  -8.166  14.784  0.00  0.00    -0.329 N 
ATOM     28  H   UNL     1       2.223  -8.261  14.402  0.00  0.00    +0.145 HD
ATOM     29  H   UNL     1       3.328  -8.610  15.619  0.00  0.00    +0.145 HD
ENDBRANCH  24  25
ENDBRANCH  23  24
ENDBRANCH   7  23
TORSDOF 8
