REMARK  Name = ZINC14263177
REMARK  9 active torsions:
REMARK  status: ('A' for Active; 'I' for Inactive)
REMARK    1  A    between atoms: C_1  and  N_58
REMARK    2  A    between atoms: C_2  and  N_58
REMARK    3  A    between atoms: C_3  and  C_5
REMARK    4  A    between atoms: C_3  and  C_26
REMARK    5  A    between atoms: C_3  and  N_58
REMARK    6  A    between atoms: C_5  and  N_6
REMARK    7  A    between atoms: C_7  and  C_9
REMARK    8  A    between atoms: N_14  and  S_16
REMARK    9  A    between atoms: S_16  and  C_19
REMARK                            x       y       z     vdW  Elec       q    Type
REMARK                         _______ _______ _______ _____ _____    ______ ____
ROOT
ATOM      1  N   UNL     1      -0.385   3.204   6.709  0.00  0.00    -0.316 N 
ATOM      2  C   UNL     1      -0.744   2.352   5.729  0.00  0.00    +0.217 C 
ATOM      3  O   UNL     1      -0.897   2.761   4.597  0.00  0.00    -0.275 OA
ATOM      4  H   UNL     1      -0.262   2.877   7.615  0.00  0.00    +0.149 HD
ENDROOT
BRANCH   2   5
ATOM      5  C   UNL     1      -0.955   0.893   6.038  0.00  0.00    +0.091 C 
ATOM      6  C   UNL     1      -2.067   0.747   7.079  0.00  0.00    +0.015 C 
ATOM      7  C   UNL     1      -2.260  -0.733   7.418  0.00  0.00    +0.018 C 
ATOM      8  C   UNL     1      -2.678  -1.492   6.155  0.00  0.00    +0.109 C 
ATOM      9  N   UNL     1      -1.686  -1.239   5.101  0.00  0.00    -0.176 NA
ATOM     10  C   UNL     1      -1.354   0.152   4.763  0.00  0.00    +0.122 C 
BRANCH   9  11
ATOM     11  S   UNL     1      -0.951  -2.497   4.315  0.00  0.00    +0.061 S 
ATOM     12  O   UNL     1      -1.019  -3.617   5.187  0.00  0.00    -0.153 OA
ATOM     13  O   UNL     1       0.281  -1.998   3.812  0.00  0.00    -0.153 OA
BRANCH  11  14
ATOM     14  C   UNL     1      -1.945  -2.888   2.914  0.00  0.00    +0.106 A 
ATOM     15  C   UNL     1      -2.957  -3.824   3.025  0.00  0.00    +0.029 A 
ATOM     16  C   UNL     1      -3.740  -4.128   1.927  0.00  0.00    +0.017 A 
ATOM     17  C   UNL     1      -3.505  -3.503   0.716  0.00  0.00    +0.018 A 
ATOM     18  C   UNL     1      -2.490  -2.571   0.604  0.00  0.00    +0.017 A 
ATOM     19  C   UNL     1      -1.710  -2.264   1.704  0.00  0.00    +0.029 A 
ATOM     20 BR   UNL     1      -4.573  -3.923  -0.788  0.00  0.00    -0.050 Br
ENDBRANCH  11  14
ENDBRANCH   9  11
ENDBRANCH   2   5
BRANCH   1  21
ATOM     21  C   UNL     1      -0.179   4.623   6.409  0.00  0.00    +0.093 C 
BRANCH  21  22
ATOM     22  C   UNL     1       0.103   5.384   7.706  0.00  0.00    -0.021 C 
BRANCH  22  23
ATOM     23  C   UNL     1       0.410   6.824   7.387  0.00  0.00    -0.059 A 
ATOM     24  C   UNL     1       1.313   7.133   6.387  0.00  0.00    +0.002 A 
ATOM     25  C   UNL     1       1.592   8.455   6.092  0.00  0.00    +0.000 A 
ATOM     26  C   UNL     1       0.973   9.467   6.802  0.00  0.00    +0.000 A 
ATOM     27  C   UNL     1       0.073   9.158   7.804  0.00  0.00    +0.000 A 
ATOM     28  C   UNL     1      -0.208   7.836   8.097  0.00  0.00    +0.002 A 
ENDBRANCH  22  23
BRANCH  22  31
ATOM     29  C   UNL     1       2.490   4.989   7.624  0.00  0.00    -0.096 C 
ATOM     30  C   UNL     1       1.386   5.294   9.757  0.00  0.00    -0.096 C 
ATOM     31  N   UNL     1       1.249   4.749   8.390  0.00  0.00    +0.382 N 
ATOM     32  H   UNL     1       1.084   3.738   8.449  0.00  0.00    -0.082 HD
ENDBRANCH  22  31
ENDBRANCH  21  22
ENDBRANCH   1  21
TORSDOF 7
