REMARK  Name = ZINC57572772
REMARK  7 active torsions:
REMARK  status: ('A' for Active; 'I' for Inactive)
REMARK    1  A    between atoms: C_1  and  C_2
REMARK    2  A    between atoms: C_4  and  C_19
REMARK    3  A    between atoms: C_5  and  C_9
REMARK    4  A    between atoms: C_6  and  C_8
REMARK    5  A    between atoms: C_10  and  C_15
REMARK    6  A    between atoms: C_15  and  O_17
REMARK    7  A    between atoms: O_17  and  C_18
REMARK                            x       y       z     vdW  Elec       q    Type
REMARK                         _______ _______ _______ _____ _____    ______ ____
ROOT
ATOM      1  C   UNL     1       0.927  -4.121  -0.359  0.00  0.00    +0.095 A 
ATOM      2  C   UNL     1       0.280  -5.210   0.239  0.00  0.00    +0.125 A 
ATOM      3  S   UNL     1       1.261  -6.562  -0.392  0.00  0.00    -0.046 S 
ATOM      4  C   UNL     1       2.347  -5.661  -1.308  0.00  0.00    +0.157 A 
ATOM      5  N   UNL     1       1.955  -4.415  -1.129  0.00  0.00    -0.224 NA
ATOM      6  N   UNL     1       3.397  -6.120  -2.074  0.00  0.00    -0.337 N 
ATOM      7  H   UNL     1       3.579  -7.071  -2.127  0.00  0.00    +0.144 HD
ATOM      8  H   UNL     1       3.954  -5.491  -2.559  0.00  0.00    +0.144 HD
ENDROOT
BRANCH   1  13
ATOM      9  C   UNL     1      -0.811   1.303   0.481  0.00  0.00    +0.044 C 
ATOM     10  C   UNL     1      -0.356  -0.117   0.261  0.00  0.00    -0.050 A 
ATOM     11  C   UNL     1      -0.622  -0.747  -0.942  0.00  0.00    +0.007 A 
ATOM     12  C   UNL     1      -0.208  -2.047  -1.149  0.00  0.00    -0.041 A 
ATOM     13  C   UNL     1       0.481  -2.725  -0.143  0.00  0.00    +0.008 A 
ATOM     14  C   UNL     1       0.746  -2.084   1.067  0.00  0.00    -0.041 A 
ATOM     15  C   UNL     1       0.332  -0.782   1.260  0.00  0.00    +0.007 A 
ATOM     16  C   UNL     1       1.489  -2.810   2.159  0.00  0.00    +0.044 C 
ATOM     17  C   UNL     1      -0.499  -2.733  -2.459  0.00  0.00    +0.044 C 
ENDBRANCH   1  13
BRANCH   2  18
ATOM     18  C   UNL     1      -0.840  -5.232   1.102  0.00  0.00    +0.348 C 
ATOM     19  O   UNL     1      -1.338  -4.188   1.480  0.00  0.00    -0.244 OA
BRANCH  18  20
ATOM     20  O   UNL     1      -1.356  -6.412   1.508  0.00  0.00    -0.464 OA
ATOM     21  C   UNL     1      -2.487  -6.359   2.380  0.00  0.00    +0.280 C 
ENDBRANCH  18  20
ENDBRANCH   2  18
TORSDOF 3
