REMARK  Name = ZINC09970699
REMARK  9 active torsions:
REMARK  status: ('A' for Active; 'I' for Inactive)
REMARK    1  A    between atoms: C_1  and  C_2
REMARK    2  A    between atoms: C_3  and  C_30
REMARK    3  A    between atoms: N_9  and  C_24
REMARK    4  A    between atoms: C_10  and  S_12
REMARK    5  A    between atoms: S_12  and  C_13
REMARK    6  A    between atoms: C_13  and  C_14
REMARK    7  A    between atoms: N_16  and  C_17
REMARK    8  A    between atoms: C_17  and  C_18
REMARK    9  A    between atoms: C_24  and  C_25
REMARK                            x       y       z     vdW  Elec       q    Type
REMARK                         _______ _______ _______ _____ _____    ______ ____
ROOT
ATOM      1  C   UNL     1      -2.795  13.234   3.159  0.00  0.00    +0.045 C 
ATOM      2  C   UNL     1      -2.256  12.108   2.315  0.00  0.00    -0.026 A 
ATOM      3  C   UNL     1      -1.688  12.363   1.127  0.00  0.00    -0.008 A 
ATOM      4  S   UNL     1      -1.225  10.746   0.534  0.00  0.00    -0.073 S 
ATOM      5  C   UNL     1      -1.809   9.774   1.900  0.00  0.00    +0.117 A 
ATOM      6  C   UNL     1      -2.348  10.734   2.778  0.00  0.00    +0.075 A 
ATOM      7  C   UNL     1      -2.903  10.223   3.993  0.00  0.00    +0.264 A 
ATOM      8  O   UNL     1      -3.392  10.980   4.815  0.00  0.00    -0.267 OA
ATOM      9  N   UNL     1      -2.885   8.896   4.215  0.00  0.00    -0.280 N 
ATOM     10  C   UNL     1      -2.337   8.034   3.309  0.00  0.00    +0.173 A 
ATOM     11  N   UNL     1      -1.818   8.478   2.182  0.00  0.00    -0.216 NA
ATOM     12  C   UNL     1      -1.488  13.696   0.454  0.00  0.00    +0.052 C 
ENDROOT
BRANCH  10  13
ATOM     13  S   UNL     1      -2.329   6.305   3.649  0.00  0.00    -0.078 S 
BRANCH  13  14
ATOM     14  C   UNL     1      -1.517   5.694   2.151  0.00  0.00    +0.173 C 
BRANCH  14  15
ATOM     15  C   UNL     1      -1.398   4.194   2.221  0.00  0.00    +0.223 C 
ATOM     16  O   UNL     1      -1.821   3.596   3.188  0.00  0.00    -0.275 OA
ATOM     17  N   UNL     1      -0.821   3.516   1.209  0.00  0.00    -0.312 N 
ATOM     18  H   UNL     1      -0.483   3.994   0.435  0.00  0.00    +0.149 HD
BRANCH  17  19
ATOM     19  C   UNL     1      -0.706   2.057   1.276  0.00  0.00    +0.135 C 
BRANCH  19  20
ATOM     20  C   UNL     1      -0.019   1.541   0.011  0.00  0.00    +0.135 C 
ATOM     21  C   UNL     1       0.002  -0.004   0.002  0.00  0.00    +0.035 C 
ATOM     22  C   UNL     1       1.371  -0.357  -0.622  0.00  0.00    +0.031 C 
ATOM     23  C   UNL     1       2.015   1.015  -0.917  0.00  0.00    +0.160 C 
ATOM     24  O   UNL     1       1.372   1.929  -0.001  0.00  0.00    -0.375 OA
ENDBRANCH  19  20
ENDBRANCH  17  19
ENDBRANCH  14  15
ENDBRANCH  13  14
ENDBRANCH  10  13
BRANCH   9  25
ATOM     25  C   UNL     1      -3.458   8.367   5.455  0.00  0.00    +0.201 C 
BRANCH  25  26
ATOM     26  C   UNL     1      -2.393   8.315   6.519  0.00  0.00    +0.125 A 
ATOM     27  C   UNL     1      -2.099   9.301   7.386  0.00  0.00    +0.046 A 
ATOM     28  C   UNL     1      -1.044   8.830   8.200  0.00  0.00    +0.041 A 
ATOM     29  C   UNL     1      -0.755   7.584   7.782  0.00  0.00    +0.195 A 
ATOM     30  O   UNL     1      -1.580   7.276   6.768  0.00  0.00    -0.466 OA
ENDBRANCH  25  26
ENDBRANCH   9  25
TORSDOF 7
