REMARK  Name = ZINC08767144
REMARK  13 active torsions:
REMARK  status: ('A' for Active; 'I' for Inactive)
REMARK    1  A    between atoms: C_1  and  C_2
REMARK    2  A    between atoms: C_2  and  C_3
REMARK    3  A    between atoms: C_3  and  C_4
REMARK    4  A    between atoms: C_5  and  C_39
REMARK    5  A    between atoms: C_6  and  C_27
REMARK    6  A    between atoms: C_12  and  C_13
REMARK    7  A    between atoms: C_16  and  N_18
REMARK    8  A    between atoms: C_23  and  N_79
REMARK    9  A    between atoms: C_36  and  O_37
REMARK   10  A    between atoms: O_37  and  C_38
REMARK   11  A    between atoms: C_39  and  O_41
REMARK   12  A    between atoms: O_41  and  C_42
REMARK   13  A    between atoms: C_42  and  C_43
REMARK                            x       y       z     vdW  Elec       q    Type
REMARK                         _______ _______ _______ _____ _____    ______ ____
ROOT
ATOM      1  C   UNL     1       2.423   1.577  -0.046  0.00  0.00    +0.056 C 
ATOM      2  C   UNL     1       1.281   2.277  -0.321  0.00  0.00    +0.085 C 
ATOM      3  C   UNL     1      -0.033   1.529  -0.301  0.00  0.00    +0.166 C 
ATOM      4  N   UNL     1       0.019   0.076   0.018  0.00  0.00    -0.275 N 
ATOM      5  C   UNL     1      -1.026  -0.760   0.084  0.00  0.00    +0.268 A 
ATOM      6  O   UNL     1      -2.160  -0.363  -0.123  0.00  0.00    -0.266 OA
ATOM      7  C   UNL     1      -0.777  -2.116   0.404  0.00  0.00    +0.084 A 
ATOM      8  C   UNL     1      -1.667  -3.162   0.534  0.00  0.00    +0.067 C 
ATOM      9  S   UNL     1       0.998  -2.110   0.595  0.00  0.00    -0.046 S 
ATOM     10  C   UNL     1       1.272  -0.433   0.263  0.00  0.00    +0.178 A 
ATOM     11  N   UNL     1       2.371   0.280   0.228  0.00  0.00    -0.227 NA
ENDROOT
BRANCH   3  12
ATOM     12  C   UNL     1      -0.930   2.194   0.710  0.00  0.00    +0.029 A 
ATOM     13  C   UNL     1      -1.889   3.133   0.294  0.00  0.00    -0.009 A 
ATOM     14  C   UNL     1      -2.044   3.464  -1.063  0.00  0.00    +0.009 A 
ATOM     15  C   UNL     1      -2.988   4.373  -1.431  0.00  0.00    +0.001 A 
ATOM     16  C   UNL     1      -3.809   4.978  -0.482  0.00  0.00    +0.001 A 
ATOM     17  C   UNL     1      -3.691   4.678   0.841  0.00  0.00    +0.008 A 
ATOM     18  C   UNL     1      -2.728   3.744   1.259  0.00  0.00    -0.017 A 
ATOM     19  C   UNL     1      -2.579   3.410   2.616  0.00  0.00    +0.012 A 
ATOM     20  C   UNL     1      -1.637   2.502   2.987  0.00  0.00    +0.046 A 
ATOM     21  C   UNL     1      -0.812   1.893   2.037  0.00  0.00    +0.126 A 
BRANCH  21  22
ATOM     22  O   UNL     1       0.119   0.988   2.438  0.00  0.00    -0.495 OA
ATOM     23  C   UNL     1       0.196   0.714   3.838  0.00  0.00    +0.277 C 
ENDBRANCH  21  22
ENDBRANCH   3  12
BRANCH   8  24
ATOM     24  C   UNL     1      -3.018  -2.983   0.188  0.00  0.00    +0.131 A 
ATOM     25  C   UNL     1      -3.993  -3.967   0.170  0.00  0.00    +0.051 A 
ATOM     26  C   UNL     1      -5.179  -3.349  -0.229  0.00  0.00    +0.066 A 
ATOM     27  C   UNL     1      -4.897  -2.029  -0.439  0.00  0.00    +0.189 A 
ATOM     28  O   UNL     1      -3.597  -1.818  -0.181  0.00  0.00    -0.442 OA
BRANCH  27  29
ATOM     29  N   UNL     1      -5.801  -1.069  -0.845  0.00  0.00    -0.305 N 
ATOM     30  C   UNL     1      -6.450  -1.456  -2.106  0.00  0.00    +0.089 C 
ATOM     31  C   UNL     1      -7.500  -0.407  -2.479  0.00  0.00    -0.060 C 
ATOM     32  C   UNL     1      -6.205   1.293  -1.344  0.00  0.00    -0.060 C 
ATOM     33  C   UNL     1      -5.155   0.244  -0.971  0.00  0.00    +0.089 C 
ATOM     34  C   UNL     1      -7.816   1.928  -3.037  0.00  0.00    -0.096 C 
ATOM     35  N   UNL     1      -6.833   0.904  -2.624  0.00  0.00    +0.380 N 
ATOM     36  H   UNL     1      -6.105   0.830  -3.345  0.00  0.00    -0.082 HD
ENDBRANCH  27  29
ENDBRANCH   8  24
BRANCH   2  37
ATOM     37  C   UNL     1       1.327   3.649  -0.612  0.00  0.00    +0.339 C 
ATOM     38  O   UNL     1       2.401   4.208  -0.745  0.00  0.00    -0.245 OA
BRANCH  37  39
ATOM     39  O   UNL     1       0.180   4.350  -0.746  0.00  0.00    -0.462 OA
BRANCH  39  40
ATOM     40  C   UNL     1       0.302   5.742  -1.043  0.00  0.00    +0.229 C 
ATOM     41  C   UNL     1      -1.092   6.363  -1.156  0.00  0.00    +0.048 C 
ENDBRANCH  39  40
ENDBRANCH  37  39
ENDBRANCH   2  37
BRANCH   1  42
ATOM     42  C   UNL     1       3.754   2.285  -0.056  0.00  0.00    +0.056 C 
BRANCH  42  44
ATOM     43  C   UNL     1       5.649   3.046  -1.494  0.00  0.00    +0.004 C 
ATOM     44  C   UNL     1       4.299   2.327  -1.485  0.00  0.00    +0.003 C 
ENDBRANCH  42  44
ENDBRANCH   1  42
TORSDOF 9
