REMARK  Name = ZINC35747360
REMARK  15 active torsions:
REMARK  status: ('A' for Active; 'I' for Inactive)
REMARK    1  A    between atoms: C_1  and  C_2
REMARK    2  A    between atoms: C_2  and  C_3
REMARK    3  A    between atoms: C_2  and  C_4
REMARK    4  A    between atoms: C_4  and  C_5
REMARK    5  A    between atoms: C_5  and  N_6
REMARK    6  A    between atoms: N_6  and  C_7
REMARK    7  A    between atoms: N_6  and  C_26
REMARK    8  A    between atoms: C_7  and  C_8
REMARK    9  A    between atoms: C_14  and  C_19
REMARK   10  A    between atoms: C_26  and  C_27
REMARK   11  A    between atoms: C_27  and  C_29
REMARK   12  A    between atoms: C_27  and  O_37
REMARK   13  A    between atoms: C_29  and  O_30
REMARK   14  A    between atoms: O_30  and  C_31
REMARK   15  A    between atoms: C_31  and  C_32
REMARK                            x       y       z     vdW  Elec       q    Type
REMARK                         _______ _______ _______ _____ _____    ______ ____
ROOT
ATOM      1  N   UNL     1      -2.900  -2.459  -0.133  0.00  0.00    +0.386 N 
ATOM      2  H   UNL     1      -3.380  -1.996   0.624  0.00  0.00    -0.081 HD
ENDROOT
BRANCH   1   3
ATOM      3  C   UNL     1      -1.464  -2.161  -0.059  0.00  0.00    -0.078 C 
BRANCH   3   4
ATOM      4  C   UNL     1      -0.752  -2.774  -1.266  0.00  0.00    -0.016 C 
BRANCH   4   6
ATOM      5  C   UNL     1       1.478  -3.304  -2.261  0.00  0.00    +0.007 C 
ATOM      6  C   UNL     1       0.759  -2.583  -1.119  0.00  0.00    -0.019 C 
ATOM      7  C   UNL     1       1.091  -1.090  -1.169  0.00  0.00    +0.007 C 
ENDBRANCH   4   6
ENDBRANCH   3   4
ENDBRANCH   1   3
BRANCH   1   8
ATOM      8  C   UNL     1      -3.104  -3.910  -0.028  0.00  0.00    -0.003 C 
BRANCH   8   9
ATOM      9  C   UNL     1      -2.669  -4.381   1.336  0.00  0.00    +0.094 A 
ATOM     10  N   UNL     1      -2.767  -5.698   1.650  0.00  0.00    -0.312 N 
ATOM     11  H   UNL     1      -3.115  -6.319   0.991  0.00  0.00    +0.170 HD
ATOM     12  C   UNL     1      -2.389  -6.160   2.856  0.00  0.00    +0.260 A 
ATOM     13  O   UNL     1      -2.482  -7.346   3.122  0.00  0.00    -0.267 OA
ATOM     14  C   UNL     1      -1.875  -5.237   3.822  0.00  0.00    +0.080 A 
ATOM     15  C   UNL     1      -1.405  -5.487   5.179  0.00  0.00    +0.004 A 
ATOM     16  C   UNL     1      -0.957  -4.443   5.917  0.00  0.00    +0.056 A 
ATOM     17  S   UNL     1      -1.143  -3.052   4.819  0.00  0.00    -0.076 S 
ATOM     18  C   UNL     1      -1.811  -3.896   3.409  0.00  0.00    +0.116 A 
ATOM     19  N   UNL     1      -2.200  -3.515   2.194  0.00  0.00    -0.229 NA
BRANCH  15  20
ATOM     20  C   UNL     1      -1.419  -6.859   5.742  0.00  0.00    -0.016 A 
ATOM     21  C   UNL     1      -2.572  -7.638   5.659  0.00  0.00    +0.010 A 
ATOM     22  C   UNL     1      -2.579  -8.914   6.184  0.00  0.00    +0.020 A 
ATOM     23  C   UNL     1      -1.443  -9.421   6.792  0.00  0.00    +0.041 A 
ATOM     24  C   UNL     1      -0.295  -8.652   6.877  0.00  0.00    +0.020 A 
ATOM     25  C   UNL     1      -0.276  -7.377   6.350  0.00  0.00    +0.010 A 
ATOM     26 CL   UNL     1      -1.458 -11.028   7.450  0.00  0.00    -0.084 Cl
ENDBRANCH  15  20
ENDBRANCH   8   9
ENDBRANCH   1   8
BRANCH   1  27
ATOM     27  C   UNL     1      -3.434  -1.982  -1.416  0.00  0.00    -0.044 C 
BRANCH  27  28
ATOM     28  C   UNL     1      -3.342  -0.456  -1.470  0.00  0.00    +0.124 C 
BRANCH  28  29
ATOM     29  O   UNL     1      -4.133   0.107  -0.421  0.00  0.00    -0.391 OA
ATOM     30  H   UNL     1      -5.071  -0.124  -0.469  0.00  0.00    +0.210 HD
ENDBRANCH  28  29
BRANCH  28  31
ATOM     31  C   UNL     1      -3.861   0.039  -2.821  0.00  0.00    +0.189 C 
BRANCH  31  32
ATOM     32  O   UNL     1      -3.667   1.452  -2.918  0.00  0.00    -0.370 OA
BRANCH  32  33
ATOM     33  C   UNL     1      -4.121   2.018  -4.149  0.00  0.00    +0.234 C 
BRANCH  33  34
ATOM     34  C   UNL     1      -3.869   3.504  -4.142  0.00  0.00    +0.130 A 
ATOM     35  C   UNL     1      -2.754   4.115  -4.582  0.00  0.00    +0.047 A 
ATOM     36  C   UNL     1      -2.945   5.502  -4.388  0.00  0.00    +0.041 A 
ATOM     37  C   UNL     1      -4.164   5.656  -3.842  0.00  0.00    +0.195 A 
ATOM     38  O   UNL     1      -4.722   4.442  -3.700  0.00  0.00    -0.465 OA
ENDBRANCH  33  34
ENDBRANCH  32  33
ENDBRANCH  31  32
ENDBRANCH  28  31
ENDBRANCH  27  28
ENDBRANCH   1  27
TORSDOF 13
