REMARK  Name = ZINC03670190
REMARK  5 active torsions:
REMARK  status: ('A' for Active; 'I' for Inactive)
REMARK    1  A    between atoms: C_7  and  C_19
REMARK    2  A    between atoms: C_7  and  O_28
REMARK    3  A    between atoms: N_8  and  C_12
REMARK    4  A    between atoms: N_21  and  C_22
REMARK    5  A    between atoms: C_22  and  C_23
REMARK                            x       y       z     vdW  Elec       q    Type
REMARK                         _______ _______ _______ _____ _____    ______ ____
ROOT
ATOM      1  C   UNL     1      -1.705   5.746  -1.027  0.00  0.00    +0.001 A 
ATOM      2  C   UNL     1      -2.754   5.095  -0.403  0.00  0.00    +0.002 A 
ATOM      3  C   UNL     1      -2.568   3.842   0.148  0.00  0.00    +0.024 A 
ATOM      4  C   UNL     1      -1.322   3.232   0.075  0.00  0.00    +0.043 A 
ATOM      5  C   UNL     1      -0.274   3.894  -0.555  0.00  0.00    +0.033 A 
ATOM      6  C   UNL     1      -0.462   5.142  -1.103  0.00  0.00    +0.010 A 
ATOM      7  C   UNL     1       1.068   3.203  -0.617  0.00  0.00    +0.247 C 
ATOM      8  N   UNL     1       1.159   1.869   0.001  0.00  0.00    -0.214 N 
ATOM      9  C   UNL     1       0.067   1.339   0.580  0.00  0.00    +0.314 C 
ATOM     10  O   UNL     1       0.157   0.237   1.086  0.00  0.00    -0.252 OA
ATOM     11  N   UNL     1      -1.116   1.965   0.621  0.00  0.00    -0.269 N 
ATOM     12  H   UNL     1      -1.861   1.520   1.052  0.00  0.00    +0.156 HD
ENDROOT
BRANCH   8  13
ATOM     13  C   UNL     1       2.368   1.162  -0.014  0.00  0.00    +0.041 A 
ATOM     14  C   UNL     1       2.608   0.217  -1.003  0.00  0.00    +0.025 A 
ATOM     15  C   UNL     1       3.803  -0.476  -1.019  0.00  0.00    +0.022 A 
ATOM     16  C   UNL     1       4.756  -0.236  -0.045  0.00  0.00    +0.041 A 
ATOM     17  C   UNL     1       4.516   0.701   0.945  0.00  0.00    +0.022 A 
ATOM     18  C   UNL     1       3.325   1.400   0.962  0.00  0.00    +0.025 A 
ATOM     19 CL   UNL     1       6.254  -1.113  -0.064  0.00  0.00    -0.084 Cl
ENDBRANCH   8  13
BRANCH   7  20
ATOM     20  C   UNL     1       1.456   3.070  -2.067  0.00  0.00    +0.269 C 
ATOM     21  O   UNL     1       2.403   3.692  -2.501  0.00  0.00    -0.270 OA
ATOM     22  N   UNL     1       0.752   2.261  -2.882  0.00  0.00    -0.307 N 
ATOM     23  H   UNL     1      -0.005   1.763  -2.536  0.00  0.00    +0.149 HD
BRANCH  22  24
ATOM     24  C   UNL     1       1.129   2.132  -4.292  0.00  0.00    +0.146 C 
BRANCH  24  25
ATOM     25  C   UNL     1       0.190   1.175  -4.979  0.00  0.00    +0.007 A 
ATOM     26  C   UNL     1      -0.981   1.433  -5.611  0.00  0.00    +0.013 A 
ATOM     27  C   UNL     1      -1.683   0.385  -6.176  0.00  0.00    +0.008 A 
ATOM     28  C   UNL     1      -1.181  -0.870  -6.080  0.00  0.00    +0.045 A 
ATOM     29  S   UNL     1       0.333  -0.594  -5.176  0.00  0.00    -0.100 S 
ENDBRANCH  24  25
ENDBRANCH  22  24
ENDBRANCH   7  20
BRANCH   7  30
ATOM     30  O   UNL     1       2.030   4.049   0.016  0.00  0.00    -0.360 OA
ATOM     31  H   UNL     1       2.044   4.953  -0.326  0.00  0.00    +0.213 HD
ENDBRANCH   7  30
TORSDOF 5
