REMARK  Name = ZINC13551191
REMARK  8 active torsions:
REMARK  status: ('A' for Active; 'I' for Inactive)
REMARK    1  A    between atoms: C_1  and  C_2
REMARK    2  A    between atoms: C_12  and  C_13
REMARK    3  A    between atoms: C_13  and  C_14
REMARK    4  A    between atoms: N_16  and  C_17
REMARK    5  A    between atoms: C_19  and  C_24
REMARK    6  A    between atoms: C_19  and  C_25
REMARK    7  A    between atoms: C_20  and  C_22
REMARK    8  A    between atoms: C_20  and  C_23
REMARK                            x       y       z     vdW  Elec       q    Type
REMARK                         _______ _______ _______ _____ _____    ______ ____
ROOT
ATOM      1  C   UNL     1      -0.480  -2.289  -7.236  0.00  0.00    +0.045 C 
ATOM      2  C   UNL     1      -0.535  -2.988  -5.902  0.00  0.00    -0.029 A 
ATOM      3  C   UNL     1      -0.967  -2.281  -4.693  0.00  0.00    +0.021 A 
ATOM      4  C   UNL     1      -1.338  -0.934  -4.742  0.00  0.00    +0.019 A 
ATOM      5  C   UNL     1      -1.737  -0.289  -3.603  0.00  0.00    -0.005 A 
ATOM      6  C   UNL     1      -1.779  -0.972  -2.391  0.00  0.00    +0.128 A 
ATOM      7  C   UNL     1      -1.412  -2.310  -2.327  0.00  0.00    +0.093 A 
ATOM      8  C   UNL     1      -1.003  -2.978  -3.472  0.00  0.00    +0.143 A 
ATOM      9  O   UNL     1      -0.645  -4.276  -3.412  0.00  0.00    -0.422 OA
ATOM     10  C   UNL     1      -0.249  -4.917  -4.516  0.00  0.00    +0.341 A 
ATOM     11  O   UNL     1       0.070  -6.089  -4.427  0.00  0.00    -0.245 OA
ATOM     12  C   UNL     1      -0.186  -4.295  -5.778  0.00  0.00    +0.049 A 
ATOM     13  O   UNL     1      -2.177  -0.362  -1.244  0.00  0.00    -0.485 OA
ATOM     14  C   UNL     1      -2.188   1.065  -1.219  0.00  0.00    +0.111 C 
ATOM     15  C   UNL     1      -0.753   1.593  -1.232  0.00  0.00    +0.048 C 
ATOM     16  C   UNL     1      -0.013   1.086   0.008  0.00  0.00    +0.004 C 
ATOM     17  C   UNL     1      -0.729   1.579   1.267  0.00  0.00    +0.000 C 
ATOM     18  C   UNL     1      -2.164   1.049   1.278  0.00  0.00    +0.004 C 
ATOM     19  C   UNL     1      -2.905   1.555   0.039  0.00  0.00    +0.048 C 
ATOM     20  C   UNL     1      -2.929   1.569  -2.462  0.00  0.00    +0.053 C 
ATOM     21  C   UNL     1      -2.123   1.166  -3.699  0.00  0.00    +0.043 C 
ENDROOT
BRANCH  12  22
ATOM     22  C   UNL     1       0.267  -5.076  -6.985  0.00  0.00    +0.138 C 
BRANCH  22  23
ATOM     23  C   UNL     1       1.762  -4.953  -7.131  0.00  0.00    +0.218 C 
ATOM     24  O   UNL     1       2.397  -4.296  -6.333  0.00  0.00    -0.275 OA
ATOM     25  N   UNL     1       2.394  -5.572  -8.147  0.00  0.00    -0.312 N 
ATOM     26  H   UNL     1       1.886  -6.098  -8.785  0.00  0.00    +0.149 HD
BRANCH  25  27
ATOM     27  C   UNL     1       3.850  -5.452  -8.289  0.00  0.00    +0.070 C 
ATOM     28  C   UNL     1       4.176  -4.190  -9.087  0.00  0.00    +0.009 C 
ATOM     29  C   UNL     1       5.686  -4.051  -9.270  0.00  0.00    -0.072 C 
ATOM     30  C   UNL     1       5.895  -6.554  -9.236  0.00  0.00    -0.072 C 
ATOM     31  C   UNL     1       4.383  -6.662  -9.056  0.00  0.00    +0.009 C 
ATOM     32  C   UNL     1       6.594  -6.873  -7.909  0.00  0.00    -0.010 C 
ATOM     33  C   UNL     1       6.322  -7.638 -10.250  0.00  0.00    -0.010 C 
ATOM     34  C   UNL     1       6.320  -3.584  -7.954  0.00  0.00    -0.010 C 
ATOM     35  C   UNL     1       5.927  -2.938 -10.314  0.00  0.00    -0.010 C 
ATOM     36  N   UNL     1       6.366  -5.261  -9.803  0.00  0.00    +0.386 N 
ATOM     37  H   UNL     1       7.370  -5.175  -9.605  0.00  0.00    -0.084 HD
ATOM     38  H   UNL     1       6.219  -5.287 -10.819  0.00  0.00    -0.084 HD
ENDBRANCH  25  27
ENDBRANCH  22  23
ENDBRANCH  12  22
TORSDOF 3
