REMARK  Name = ZINC63409327
REMARK  11 active torsions:
REMARK  status: ('A' for Active; 'I' for Inactive)
REMARK    1  A    between atoms: C_1  and  O_2
REMARK    2  A    between atoms: O_2  and  C_3
REMARK    3  A    between atoms: C_6  and  C_13
REMARK    4  A    between atoms: C_7  and  O_11
REMARK    5  A    between atoms: C_8  and  O_9
REMARK    6  A    between atoms: O_9  and  C_10
REMARK    7  A    between atoms: O_11  and  C_12
REMARK    8  A    between atoms: N_14  and  N_15
REMARK    9  A    between atoms: C_16  and  C_18
REMARK   10  A    between atoms: C_20  and  C_31
REMARK   11  A    between atoms: C_23  and  N_28
REMARK                            x       y       z     vdW  Elec       q    Type
REMARK                         _______ _______ _______ _____ _____    ______ ____
ROOT
ATOM      1  C   UNL     1      -7.668  -6.591   0.176  0.00  0.00    +0.199 C 
ATOM      2  C   UNL     1      -8.298  -6.737  -1.192  0.00  0.00    -0.000 C 
ATOM      3  C   UNL     1      -8.430  -8.100  -1.400  0.00  0.00    +0.006 A 
ATOM      4  C   UNL     1      -8.945  -8.857  -2.481  0.00  0.00    +0.043 A 
ATOM      5  C   UNL     1      -8.949 -10.210  -2.410  0.00  0.00    +0.127 A 
ATOM      6  C   UNL     1      -8.455 -10.889  -1.291  0.00  0.00    +0.035 A 
ATOM      7  C   UNL     1      -7.948 -10.232  -0.221  0.00  0.00    +0.028 A 
ATOM      8  C   UNL     1      -7.909  -8.812  -0.218  0.00  0.00    +0.044 A 
ATOM      9  N   UNL     1      -7.475  -7.954   0.681  0.00  0.00    -0.370 N 
ATOM     10  H   UNL     1      -7.089  -8.186   1.540  0.00  0.00    +0.161 HD
ENDROOT
BRANCH   2  11
ATOM     11  C   UNL     1      -8.687  -5.661  -2.106  0.00  0.00    -0.019 A 
ATOM     12  C   UNL     1      -8.780  -5.904  -3.484  0.00  0.00    +0.008 A 
ATOM     13  C   UNL     1      -9.147  -4.886  -4.335  0.00  0.00    +0.001 A 
ATOM     14  C   UNL     1      -9.425  -3.625  -3.834  0.00  0.00    +0.000 A 
ATOM     15  C   UNL     1      -9.336  -3.375  -2.475  0.00  0.00    +0.001 A 
ATOM     16  C   UNL     1      -8.976  -4.382  -1.607  0.00  0.00    +0.008 A 
ENDBRANCH   2  11
BRANCH   1  18
ATOM     17  N   UNL     1      -6.284  -4.542   0.137  0.00  0.00    -0.205 N 
ATOM     18  C   UNL     1      -6.341  -5.886   0.063  0.00  0.00    +0.259 C 
ATOM     19  O   UNL     1      -5.324  -6.529  -0.093  0.00  0.00    -0.271 OA
ATOM     20  H   UNL     1      -7.102  -4.024   0.201  0.00  0.00    +0.177 HD
BRANCH  17  22
ATOM     21  C   UNL     1      -4.988  -2.597   0.193  0.00  0.00    +0.142 C 
ATOM     22  N   UNL     1      -5.043  -3.892   0.122  0.00  0.00    -0.188 NA
BRANCH  21  26
ATOM     23  C   UNL     1      -1.226  -0.619   0.148  0.00  0.00    +0.165 A 
ATOM     24  C   UNL     1      -2.399   0.119   0.238  0.00  0.00    +0.050 A 
ATOM     25  C   UNL     1      -3.621  -0.519   0.253  0.00  0.00    +0.017 A 
ATOM     26  C   UNL     1      -3.683  -1.913   0.176  0.00  0.00    +0.040 A 
ATOM     27  C   UNL     1      -2.500  -2.658   0.085  0.00  0.00    +0.174 A 
ATOM     28  C   UNL     1      -1.276  -2.006   0.065  0.00  0.00    +0.204 A 
BRANCH  23  30
ATOM     29  C   UNL     1      -0.046   1.444   0.223  0.00  0.00    +0.277 C 
ATOM     30  O   UNL     1      -0.025   0.018   0.135  0.00  0.00    -0.491 OA
ENDBRANCH  23  30
BRANCH  28  31
ATOM     31  O   UNL     1      -0.123  -2.724  -0.029  0.00  0.00    -0.488 OA
ATOM     32  C   UNL     1       0.481  -3.144   1.196  0.00  0.00    +0.277 C 
ENDBRANCH  28  31
BRANCH  27  33
ATOM     33  O   UNL     1      -2.552  -4.014   0.011  0.00  0.00    -0.491 OA
ATOM     34  C   UNL     1      -2.630  -4.590  -1.295  0.00  0.00    +0.277 C 
ENDBRANCH  27  33
ENDBRANCH  21  26
ENDBRANCH  17  22
ENDBRANCH   1  18
BRANCH   5  35
ATOM     35  N   UNL     1      -9.490 -10.990  -3.547  0.00  0.00    +0.056 N 
ATOM     36  O   UNL     1      -9.920 -10.419  -4.522  0.00  0.00    -0.126 OA
ATOM     37  O   UNL     1      -9.501 -12.198  -3.501  0.00  0.00    -0.126 OA
ENDBRANCH   5  35
TORSDOF 8
