REMARK  Name = ZINC03947147
REMARK  6 active torsions:
REMARK  status: ('A' for Active; 'I' for Inactive)
REMARK    1  A    between atoms: C_1  and  C_2
REMARK    2  A    between atoms: C_3  and  N_10
REMARK    3  A    between atoms: N_10  and  N_11
REMARK    4  A    between atoms: C_12  and  C_13
REMARK    5  A    between atoms: C_12  and  C_14
REMARK    6  A    between atoms: C_17  and  C_20
REMARK                            x       y       z     vdW  Elec       q    Type
REMARK                         _______ _______ _______ _____ _____    ______ ____
ROOT
ATOM      1  N   UNL     1      -2.442   1.327   0.023  0.00  0.00    -0.186 NA
ATOM      2  C   UNL     1      -3.586   1.941   0.032  0.00  0.00    +0.063 C 
ATOM      3  C   UNL     1      -4.867   1.147   0.034  0.00  0.00    +0.068 C 
ENDROOT
BRANCH   2   4
ATOM      4  C   UNL     1      -3.632   3.414   0.041  0.00  0.00    -0.002 A 
ATOM      5  C   UNL     1      -4.864   4.075   0.058  0.00  0.00    +0.010 A 
ATOM      6  C   UNL     1      -4.905   5.451   0.067  0.00  0.00    +0.009 A 
ATOM      7  C   UNL     1      -3.719   6.185   0.060  0.00  0.00    -0.018 A 
ATOM      8  C   UNL     1      -2.489   5.527   0.044  0.00  0.00    +0.009 A 
ATOM      9  C   UNL     1      -2.444   4.151   0.040  0.00  0.00    +0.010 A 
BRANCH   7  10
ATOM     10  C   UNL     1      -3.765   7.667   0.069  0.00  0.00    -0.018 A 
ATOM     11  C   UNL     1      -4.992   8.329   0.091  0.00  0.00    +0.008 A 
ATOM     12  C   UNL     1      -5.029   9.708   0.100  0.00  0.00    +0.001 A 
ATOM     13  C   UNL     1      -3.852  10.435   0.087  0.00  0.00    +0.000 A 
ATOM     14  C   UNL     1      -2.632   9.784   0.066  0.00  0.00    +0.001 A 
ATOM     15  C   UNL     1      -2.582   8.405   0.062  0.00  0.00    +0.008 A 
ENDBRANCH   7  10
ENDBRANCH   2   4
BRANCH   1  16
ATOM     16  N   UNL     1      -2.398  -0.073   0.014  0.00  0.00    -0.221 N 
ATOM     17  H   UNL     1      -3.222  -0.584   0.015  0.00  0.00    +0.176 HD
BRANCH  16  20
ATOM     18  C   UNL     1      -0.018   1.503   0.010  0.00  0.00    +0.071 C 
ATOM     19  C   UNL     1       0.002  -0.004   0.002  0.00  0.00    +0.100 A 
ATOM     20  C   UNL     1      -1.191  -0.720   0.004  0.00  0.00    +0.143 A 
ATOM     21  N   UNL     1      -1.129  -2.087  -0.004  0.00  0.00    -0.291 N 
ATOM     22  H   UNL     1      -1.940  -2.619  -0.004  0.00  0.00    +0.172 HD
ATOM     23  C   UNL     1       0.084  -2.679  -0.014  0.00  0.00    +0.366 A 
ATOM     24  O   UNL     1       0.165  -3.896  -0.022  0.00  0.00    -0.243 OA
ATOM     25  N   UNL     1       1.196  -1.938  -0.015  0.00  0.00    -0.090 NA
ATOM     26  N   UNL     1       1.153  -0.653  -0.013  0.00  0.00    -0.146 NA
ENDBRANCH  16  20
ENDBRANCH   1  16
TORSDOF 4
