REMARK  Name = ZINC08735996
REMARK  8 active torsions:
REMARK  status: ('A' for Active; 'I' for Inactive)
REMARK    1  A    between atoms: C_1  and  C_2
REMARK    2  A    between atoms: C_2  and  C_3
REMARK    3  A    between atoms: C_3  and  C_4
REMARK    4  A    between atoms: C_3  and  C_6
REMARK    5  A    between atoms: C_4  and  C_5
REMARK    6  A    between atoms: N_8  and  C_9
REMARK    7  A    between atoms: C_10  and  C_21
REMARK    8  A    between atoms: C_16  and  C_20
REMARK                            x       y       z     vdW  Elec       q    Type
REMARK                         _______ _______ _______ _____ _____    ______ ____
ROOT
ATOM      1  C   UNL     1       0.223  -1.984   1.375  0.00  0.00    +0.120 A 
ATOM      2  C   UNL     1       0.763  -2.669   2.451  0.00  0.00    +0.067 A 
ATOM      3  N   UNL     1       0.559  -3.971   2.578  0.00  0.00    -0.232 NA
ATOM      4  C   UNL     1      -0.150  -4.653   1.681  0.00  0.00    +0.141 A 
ATOM      5  C   UNL     1      -0.336  -6.038   1.852  0.00  0.00    +0.047 A 
ATOM      6  C   UNL     1      -1.061  -6.735   0.934  0.00  0.00    +0.005 A 
ATOM      7  C   UNL     1      -1.612  -6.064  -0.168  0.00  0.00    +0.021 A 
ATOM      8  C   UNL     1      -1.425  -4.734  -0.316  0.00  0.00    +0.026 A 
ATOM      9  N   UNL     1      -0.700  -4.027   0.596  0.00  0.00    -0.264 N 
ATOM     10  C   UNL     1      -0.526  -2.699   0.425  0.00  0.00    +0.280 A 
ATOM     11  O   UNL     1      -1.012  -2.128  -0.539  0.00  0.00    -0.265 OA
ATOM     12  C   UNL     1      -2.023  -4.026  -1.504  0.00  0.00    +0.064 C 
ATOM     13  C   UNL     1       1.578  -1.931   3.482  0.00  0.00    +0.068 C 
ENDROOT
BRANCH   1  16
ATOM     14  C   UNL     1      -0.631   0.228   1.133  0.00  0.00    +0.220 C 
ATOM     15  O   UNL     1      -1.757  -0.207   1.255  0.00  0.00    -0.275 OA
ATOM     16  N   UNL     1       0.426  -0.602   1.232  0.00  0.00    -0.280 N 
ATOM     17  H   UNL     1       1.328  -0.244   1.205  0.00  0.00    +0.155 HD
BRANCH  14  18
ATOM     18  C   UNL     1      -0.415   1.696   0.870  0.00  0.00    +0.075 C 
BRANCH  18  20
ATOM     19  C   UNL     1      -0.467   1.181  -1.574  0.00  0.00    +0.004 C 
ATOM     20  C   UNL     1       0.321   1.873  -0.460  0.00  0.00    +0.009 C 
ENDBRANCH  18  20
BRANCH  18  21
ATOM     21  C   UNL     1      -1.768   2.407   0.804  0.00  0.00    +0.009 C 
ATOM     22  C   UNL     1      -1.546   3.917   0.699  0.00  0.00    +0.004 C 
ENDBRANCH  18  21
ENDBRANCH  14  18
ENDBRANCH   1  16
TORSDOF 4
