REMARK  Name = ZINC40982238
REMARK  14 active torsions:
REMARK  status: ('A' for Active; 'I' for Inactive)
REMARK    1  A    between atoms: C_1  and  C_2
REMARK    2  A    between atoms: C_2  and  C_3
REMARK    3  A    between atoms: C_3  and  O_4
REMARK    4  A    between atoms: O_4  and  C_5
REMARK    5  A    between atoms: C_10  and  C_11
REMARK    6  A    between atoms: C_13  and  C_26
REMARK    7  A    between atoms: C_14  and  C_25
REMARK    8  A    between atoms: C_19  and  S_21
REMARK    9  A    between atoms: S_21  and  C_22
REMARK   10  A    between atoms: C_22  and  C_23
REMARK   11  A    between atoms: C_23  and  C_24
REMARK   12  A    between atoms: N_28  and  C_29
REMARK   13  A    between atoms: C_34  and  O_35
REMARK   14  A    between atoms: O_35  and  C_36
REMARK                            x       y       z     vdW  Elec       q    Type
REMARK                         _______ _______ _______ _____ _____    ______ ____
ROOT
ATOM      1  C   UNL     1       0.281  -5.074  -1.312  0.00  0.00    +0.181 C 
ATOM      2  C   UNL     1      -0.610  -6.049  -2.034  0.00  0.00    +0.060 C 
ATOM      3  C   UNL     1      -0.325  -7.354  -2.151  0.00  0.00    +0.018 C 
ATOM      4  N   UNL     1       0.809  -7.906  -1.606  0.00  0.00    -0.287 N 
ATOM      5  C   UNL     1       1.526  -7.133  -0.703  0.00  0.00    +0.219 A 
ATOM      6  N   UNL     1       1.288  -5.807  -0.550  0.00  0.00    -0.220 N 
ATOM      7  N   UNL     1       2.169  -5.354   0.430  0.00  0.00    -0.141 NA
ATOM      8  C   UNL     1       2.882  -6.393   0.809  0.00  0.00    +0.210 A 
ATOM      9  N   UNL     1       2.485  -7.470   0.116  0.00  0.00    -0.187 NA
ATOM     10  C   UNL     1      -1.279  -8.244  -2.905  0.00  0.00    +0.061 C 
ATOM     11  H   UNL     1       1.097  -8.802  -1.842  0.00  0.00    +0.155 HD
ENDROOT
BRANCH   1  17
ATOM     12  C   UNL     1       0.828  -2.802  -2.221  0.00  0.00    +0.126 A 
ATOM     13  C   UNL     1       1.462  -1.981  -3.143  0.00  0.00    +0.046 A 
ATOM     14  C   UNL     1       2.220  -2.537  -4.155  0.00  0.00    +0.004 A 
ATOM     15  C   UNL     1       2.349  -3.911  -4.250  0.00  0.00    +0.001 A 
ATOM     16  C   UNL     1       1.718  -4.731  -3.332  0.00  0.00    +0.009 A 
ATOM     17  C   UNL     1       0.963  -4.179  -2.315  0.00  0.00    +0.023 A 
BRANCH  12  18
ATOM     18  O   UNL     1       0.082  -2.257  -1.225  0.00  0.00    -0.492 OA
BRANCH  18  19
ATOM     19  C   UNL     1       0.098  -0.833  -1.106  0.00  0.00    +0.229 C 
BRANCH  19  21
ATOM     20  C   UNL     1      -0.783   1.111   0.192  0.00  0.00    +0.007 C 
ATOM     21  C   UNL     1      -0.698  -0.416   0.132  0.00  0.00    +0.038 C 
ENDBRANCH  19  21
ENDBRANCH  18  19
ENDBRANCH  12  18
ENDBRANCH   1  17
BRANCH   2  22
ATOM     22  C   UNL     1      -1.806  -5.566  -2.615  0.00  0.00    +0.248 C 
ATOM     23  O   UNL     1      -2.772  -5.327  -1.913  0.00  0.00    -0.270 OA
ATOM     24  N   UNL     1      -1.877  -5.371  -3.947  0.00  0.00    -0.279 N 
ATOM     25  H   UNL     1      -1.133  -5.627  -4.515  0.00  0.00    +0.155 HD
BRANCH  24  26
ATOM     26  C   UNL     1      -3.024  -4.798  -4.511  0.00  0.00    +0.076 A 
ATOM     27  C   UNL     1      -3.908  -4.084  -3.716  0.00  0.00    +0.027 A 
ATOM     28  C   UNL     1      -5.038  -3.519  -4.275  0.00  0.00    +0.002 A 
ATOM     29  C   UNL     1      -5.293  -3.665  -5.626  0.00  0.00    +0.004 A 
ATOM     30  C   UNL     1      -4.417  -4.376  -6.425  0.00  0.00    +0.047 A 
ATOM     31  C   UNL     1      -3.278  -4.940  -5.874  0.00  0.00    +0.141 A 
BRANCH  31  32
ATOM     32  O   UNL     1      -2.413  -5.636  -6.659  0.00  0.00    -0.493 OA
ATOM     33  C   UNL     1      -2.680  -5.650  -8.063  0.00  0.00    +0.277 C 
ENDBRANCH  31  32
ENDBRANCH  24  26
ENDBRANCH   2  22
BRANCH   8  34
ATOM     34  S   UNL     1       4.151  -6.373   2.031  0.00  0.00    -0.084 S 
BRANCH  34  35
ATOM     35  C   UNL     1       4.733  -8.090   2.087  0.00  0.00    +0.077 C 
BRANCH  35  36
ATOM     36  C   UNL     1       5.853  -8.216   3.123  0.00  0.00    +0.008 C 
ATOM     37  C   UNL     1       6.344  -9.664   3.170  0.00  0.00    +0.004 C 
ENDBRANCH  35  36
ENDBRANCH  34  35
ENDBRANCH   8  34
TORSDOF 10
