REMARK  Name = ZINC03368012
REMARK  9 active torsions:
REMARK  status: ('A' for Active; 'I' for Inactive)
REMARK    1  A    between atoms: C_1  and  C_2
REMARK    2  A    between atoms: C_5  and  N_9
REMARK    3  A    between atoms: C_6  and  C_8
REMARK    4  A    between atoms: C_10  and  S_14
REMARK    5  A    between atoms: S_14  and  C_15
REMARK    6  A    between atoms: C_15  and  C_16
REMARK    7  A    between atoms: N_18  and  C_19
REMARK    8  A    between atoms: C_19  and  C_21
REMARK    9  A    between atoms: C_19  and  C_22
REMARK                            x       y       z     vdW  Elec       q    Type
REMARK                         _______ _______ _______ _____ _____    ______ ____
ROOT
ATOM      1  C   UNL     1       4.481   1.393   0.199  0.00  0.00    +0.173 C 
ENDROOT
BRANCH   1   2
ATOM      2  C   UNL     1       3.076   0.909   0.453  0.00  0.00    +0.224 C 
ATOM      3  O   UNL     1       2.653  -0.062  -0.139  0.00  0.00    -0.275 OA
ATOM      4  N   UNL     1       2.290   1.554   1.337  0.00  0.00    -0.308 N 
ATOM      5  H   UNL     1       2.674   2.435   1.874  0.00  0.00    +0.149 HD
BRANCH   4   6
ATOM      6  C   UNL     1       0.925   1.084   1.583  0.00  0.00    +0.102 C 
ATOM      7  C   UNL     1      -0.017   1.679   0.534  0.00  0.00    +0.033 C 
BRANCH   6   8
ATOM      8  C   UNL     1       0.484   1.518   2.958  0.00  0.00    -0.009 A 
ATOM      9  C   UNL     1       1.060   2.627   3.550  0.00  0.00    +0.008 A 
ATOM     10  C   UNL     1       0.656   3.025   4.810  0.00  0.00    +0.020 A 
ATOM     11  C   UNL     1      -0.324   2.314   5.480  0.00  0.00    +0.042 A 
ATOM     12  C   UNL     1      -0.900   1.205   4.888  0.00  0.00    +0.040 A 
ATOM     13  C   UNL     1      -0.500   0.810   3.624  0.00  0.00    +0.047 A 
ATOM     14 CL   UNL     1      -1.228  -0.578   2.877  0.00  0.00    -0.083 Cl
ATOM     15 CL   UNL     1      -0.830   2.815   7.064  0.00  0.00    -0.083 Cl
ENDBRANCH   6   8
ENDBRANCH   4   6
ENDBRANCH   1   2
BRANCH   1  16
ATOM     16  S   UNL     1       5.274   0.326  -1.029  0.00  0.00    -0.075 S 
BRANCH  16  18
ATOM     17  N   UNL     1       7.893   0.711  -1.913  0.00  0.00    -0.187 N 
ATOM     18  C   UNL     1       6.854   1.098  -1.130  0.00  0.00    +0.214 A 
ATOM     19  N   UNL     1       7.253   2.155  -0.456  0.00  0.00    -0.101 NA
ATOM     20  N   UNL     1       8.462   2.458  -0.766  0.00  0.00    -0.022 NA
ATOM     21  N   UNL     1       8.920   1.633  -1.645  0.00  0.00    -0.038 NA
BRANCH  17  26
ATOM     22  C   UNL     1       8.053  -3.680  -5.506  0.00  0.00    +0.044 C 
ATOM     23  C   UNL     1       8.010  -2.514  -4.552  0.00  0.00    -0.050 A 
ATOM     24  C   UNL     1       7.532  -2.691  -3.267  0.00  0.00    +0.005 A 
ATOM     25  C   UNL     1       7.497  -1.626  -2.388  0.00  0.00    +0.028 A 
ATOM     26  C   UNL     1       7.932  -0.373  -2.801  0.00  0.00    +0.073 A 
ATOM     27  C   UNL     1       8.411  -0.199  -4.092  0.00  0.00    -0.025 A 
ATOM     28  C   UNL     1       8.449  -1.269  -4.964  0.00  0.00    +0.008 A 
ATOM     29  C   UNL     1       8.891   1.158  -4.541  0.00  0.00    +0.046 C 
ENDBRANCH  17  26
ENDBRANCH  16  18
ENDBRANCH   1  16
TORSDOF 6
