REMARK  Name = ZINC58980029
REMARK  5 active torsions:
REMARK  status: ('A' for Active; 'I' for Inactive)
REMARK    1  A    between atoms: C_4  and  C_7
REMARK    2  A    between atoms: C_7  and  C_8
REMARK    3  A    between atoms: C_9  and  C_29
REMARK    4  A    between atoms: C_14  and  C_16
REMARK    5  A    between atoms: C_16  and  C_17
REMARK                            x       y       z     vdW  Elec       q    Type
REMARK                         _______ _______ _______ _____ _____    ______ ____
ROOT
ATOM      1  C   UNL     1       3.900  -0.817   1.483  0.00  0.00    +0.063 A 
ATOM      2  C   UNL     1       4.736   0.058   2.125  0.00  0.00    +0.044 A 
ATOM      3  S   UNL     1       5.058  -0.840   3.635  0.00  0.00    -0.052 S 
ATOM      4  C   UNL     1       4.122  -2.198   3.302  0.00  0.00    +0.165 A 
ATOM      5  N   UNL     1       3.616  -1.935   2.115  0.00  0.00    -0.229 NA
ATOM      6  N   UNL     1       3.926  -3.323   4.092  0.00  0.00    -0.264 N 
ATOM      7  C   UNL     1       4.528  -3.416   5.294  0.00  0.00    +0.225 C 
ATOM      8  O   UNL     1       5.241  -2.516   5.686  0.00  0.00    -0.275 OA
ATOM      9  H   UNL     1       3.356  -4.042   3.778  0.00  0.00    +0.157 HD
ENDROOT
BRANCH   2  10
ATOM     10  C   UNL     1       5.235   1.379   1.689  0.00  0.00    -0.009 A 
ATOM     11  C   UNL     1       4.943   1.851   0.408  0.00  0.00    +0.009 A 
ATOM     12  C   UNL     1       5.411   3.085   0.007  0.00  0.00    +0.001 A 
ATOM     13  C   UNL     1       6.168   3.856   0.872  0.00  0.00    +0.000 A 
ATOM     14  C   UNL     1       6.461   3.394   2.143  0.00  0.00    +0.001 A 
ATOM     15  C   UNL     1       5.995   2.164   2.558  0.00  0.00    +0.009 A 
ENDBRANCH   2  10
BRANCH   1  16
ATOM     16  C   UNL     1       3.330  -0.510   0.122  0.00  0.00    +0.091 C 
BRANCH  16  20
ATOM     17  C   UNL     1       0.663  -3.638  -1.042  0.00  0.00    +0.000 A 
ATOM     18  C   UNL     1       0.218  -2.621  -0.218  0.00  0.00    +0.000 A 
ATOM     19  C   UNL     1       1.081  -1.609   0.159  0.00  0.00    +0.004 A 
ATOM     20  C   UNL     1       2.389  -1.614  -0.288  0.00  0.00    -0.042 A 
ATOM     21  C   UNL     1       2.834  -2.631  -1.112  0.00  0.00    +0.004 A 
ATOM     22  C   UNL     1       1.971  -3.642  -1.490  0.00  0.00    +0.000 A 
ENDBRANCH  16  20
ENDBRANCH   1  16
BRANCH   7  23
ATOM     23  C   UNL     1       4.316  -4.637   6.151  0.00  0.00    +0.154 C 
BRANCH  23  24
ATOM     24  C   UNL     1       5.093  -4.492   7.434  0.00  0.00    +0.078 A 
ATOM     25  C   UNL     1       5.055  -5.556   8.437  0.00  0.00    +0.011 A 
ATOM     26  C   UNL     1       4.311  -6.722   8.246  0.00  0.00    +0.010 A 
ATOM     27  C   UNL     1       4.308  -7.688   9.213  0.00  0.00    +0.001 A 
ATOM     28  C   UNL     1       5.034  -7.527  10.385  0.00  0.00    +0.001 A 
ATOM     29  C   UNL     1       5.777  -6.387  10.601  0.00  0.00    +0.014 A 
ATOM     30  C   UNL     1       5.796  -5.388   9.629  0.00  0.00    +0.050 A 
ATOM     31  C   UNL     1       6.568  -4.151   9.799  0.00  0.00    +0.272 A 
ATOM     32  O   UNL     1       7.223  -3.962  10.809  0.00  0.00    -0.266 OA
ATOM     33  N   UNL     1       6.540  -3.228   8.815  0.00  0.00    -0.242 N 
ATOM     34  H   UNL     1       7.048  -2.409   8.921  0.00  0.00    +0.192 HD
ATOM     35  N   UNL     1       5.803  -3.424   7.646  0.00  0.00    -0.175 NA
ENDBRANCH  23  24
ENDBRANCH   7  23
TORSDOF 5
