REMARK  Name = ZINC44671335
REMARK  13 active torsions:
REMARK  status: ('A' for Active; 'I' for Inactive)
REMARK    1  A    between atoms: C_1  and  C_2
REMARK    2  A    between atoms: C_5  and  C_9
REMARK    3  A    between atoms: C_7  and  C_8
REMARK    4  A    between atoms: N_11  and  C_12
REMARK    5  A    between atoms: N_11  and  C_16
REMARK    6  A    between atoms: C_12  and  C_13
REMARK    7  A    between atoms: C_13  and  C_14
REMARK    8  A    between atoms: C_13  and  C_15
REMARK    9  A    between atoms: C_17  and  N_29
REMARK   10  A    between atoms: N_18  and  C_25
REMARK   11  A    between atoms: C_25  and  C_26
REMARK   12  A    between atoms: C_26  and  C_27
REMARK   13  A    between atoms: C_26  and  C_28
REMARK                            x       y       z     vdW  Elec       q    Type
REMARK                         _______ _______ _______ _____ _____    ______ ____
ROOT
ATOM      1  C   UNL     1      -0.232  -6.588  -1.058  0.00  0.00    +0.140 A 
ATOM      2  C   UNL     1      -1.345  -7.205  -0.522  0.00  0.00    +0.127 A 
ATOM      3  N   UNL     1      -1.413  -8.579  -0.517  0.00  0.00    -0.280 N 
ATOM      4  C   UNL     1      -0.408  -9.312  -1.027  0.00  0.00    +0.331 A 
ATOM      5  O   UNL     1      -0.488 -10.526  -1.013  0.00  0.00    -0.246 OA
ATOM      6  N   UNL     1       0.683  -8.729  -1.553  0.00  0.00    -0.273 N 
ATOM      7  H   UNL     1       1.395  -9.281  -1.915  0.00  0.00    +0.173 HD
ATOM      8  C   UNL     1       0.798  -7.387  -1.589  0.00  0.00    +0.277 A 
ATOM      9  O   UNL     1       1.790  -6.868  -2.072  0.00  0.00    -0.266 OA
ENDROOT
BRANCH   1  12
ATOM     10  C   UNL     1      -0.092  -4.492   0.078  0.00  0.00    +0.251 C 
ATOM     11  O   UNL     1      -0.079  -3.276   0.060  0.00  0.00    -0.270 OA
ATOM     12  N   UNL     1      -0.132  -5.181  -1.079  0.00  0.00    -0.260 N 
BRANCH  10  17
ATOM     13  C   UNL     1       0.020  -7.298   5.100  0.00  0.00    +0.044 C 
ATOM     14  C   UNL     1      -0.010  -6.563   3.785  0.00  0.00    -0.047 A 
ATOM     15  C   UNL     1       0.406  -7.201   2.630  0.00  0.00    +0.004 A 
ATOM     16  C   UNL     1       0.382  -6.534   1.423  0.00  0.00    +0.013 A 
ATOM     17  C   UNL     1      -0.064  -5.213   1.368  0.00  0.00    +0.038 A 
ATOM     18  C   UNL     1      -0.483  -4.575   2.537  0.00  0.00    +0.016 A 
ATOM     19  C   UNL     1      -0.459  -5.255   3.737  0.00  0.00    -0.047 A 
ATOM     20  C   UNL     1      -0.916  -4.571   4.999  0.00  0.00    +0.044 C 
ENDBRANCH  10  17
BRANCH  12  21
ATOM     21  C   UNL     1      -0.072  -4.471  -2.359  0.00  0.00    +0.117 C 
BRANCH  21  22
ATOM     22  C   UNL     1       1.388  -4.178  -2.711  0.00  0.00    +0.001 C 
ATOM     23  C   UNL     1       1.453  -3.472  -4.067  0.00  0.00    +0.009 C 
ATOM     24  C   UNL     1       2.001  -3.277  -1.637  0.00  0.00    +0.009 C 
ENDBRANCH  21  22
ENDBRANCH  12  21
ENDBRANCH   1  12
BRANCH   2  25
ATOM     25  N   UNL     1      -2.372  -6.455  -0.000  0.00  0.00    -0.343 N 
ATOM     26  H   UNL     1      -2.367  -5.490  -0.100  0.00  0.00    +0.144 HD
ATOM     27  H   UNL     1      -3.101  -6.891   0.468  0.00  0.00    +0.144 HD
ENDBRANCH   2  25
BRANCH   3  28
ATOM     28  C   UNL     1      -2.588  -9.246   0.049  0.00  0.00    +0.131 C 
BRANCH  28  29
ATOM     29  C   UNL     1      -3.635  -9.452  -1.048  0.00  0.00    +0.003 C 
ATOM     30  C   UNL     1      -4.808 -10.259  -0.488  0.00  0.00    +0.009 C 
ATOM     31  C   UNL     1      -4.138  -8.092  -1.535  0.00  0.00    +0.009 C 
ENDBRANCH  28  29
ENDBRANCH   3  28
TORSDOF 7
