REMARK  Name = ZINC18324525
REMARK  4 active torsions:
REMARK  status: ('A' for Active; 'I' for Inactive)
REMARK    1  A    between atoms: C_1  and  N_2
REMARK    2  A    between atoms: C_6  and  N_10
REMARK    3  A    between atoms: C_13  and  C_16
REMARK    4  A    between atoms: C_13  and  N_19
REMARK                            x       y       z     vdW  Elec       q    Type
REMARK                         _______ _______ _______ _____ _____    ______ ____
ROOT
ATOM      1  N   UNL     1       0.954  -3.134   1.230  0.00  0.00    -0.291 NA
ATOM      2  C   UNL     1       1.261  -4.470   0.704  0.00  0.00    +0.084 C 
ATOM      3  C   UNL     1       2.696  -4.849   1.078  0.00  0.00    +0.013 C 
ATOM      4  C   UNL     1       2.841  -4.834   2.602  0.00  0.00    +0.015 C 
ATOM      5  C   UNL     1       2.469  -3.445   3.129  0.00  0.00    +0.013 C 
ATOM      6  C   UNL     1       1.041  -3.107   2.695  0.00  0.00    +0.084 C 
ENDROOT
BRANCH   1  12
ATOM      7  C   UNL     1      -0.975   0.921  -0.043  0.00  0.00    +0.141 C 
ATOM      8  N   UNL     1      -0.748  -0.526  -0.025  0.00  0.00    -0.244 N 
ATOM      9  C   UNL     1      -0.695  -1.265  -1.140  0.00  0.00    +0.224 C 
ATOM     10  O   UNL     1      -0.824  -0.843  -2.269  0.00  0.00    -0.275 OA
ATOM     11  C   UNL     1      -0.448  -2.711  -0.768  0.00  0.00    +0.124 C 
ATOM     12  C   UNL     1      -0.366  -2.679   0.772  0.00  0.00    +0.152 C 
ATOM     13  C   UNL     1      -0.570  -1.218   1.108  0.00  0.00    +0.239 C 
ATOM     14  O   UNL     1      -0.575  -0.748   2.225  0.00  0.00    -0.273 OA
ENDBRANCH   1  12
BRANCH   4  15
ATOM     15  N   UNL     1       4.231  -5.140   2.966  0.00  0.00    +0.389 N 
ATOM     16  C   UNL     1       4.589  -6.467   2.451  0.00  0.00    -0.077 C 
ATOM     17  C   UNL     1       6.060  -6.758   2.757  0.00  0.00    -0.019 C 
ATOM     18  C   UNL     1       6.279  -6.720   4.272  0.00  0.00    -0.004 C 
ATOM     19  C   UNL     1       5.832  -5.356   4.808  0.00  0.00    -0.019 C 
ATOM     20  C   UNL     1       4.370  -5.118   4.427  0.00  0.00    -0.077 C 
ATOM     21  H   UNL     1       4.844  -4.448   2.561  0.00  0.00    -0.080 HD
ENDBRANCH   4  15
BRANCH   4  22
ATOM     22  C   UNL     1       1.923  -5.865   3.206  0.00  0.00    +0.200 C 
ATOM     23  O   UNL     1       1.416  -6.712   2.502  0.00  0.00    -0.278 OA
ATOM     24  N   UNL     1       1.665  -5.845   4.529  0.00  0.00    -0.330 N 
ATOM     25  H   UNL     1       2.007  -5.123   5.079  0.00  0.00    +0.145 HD
ATOM     26  H   UNL     1       1.136  -6.552   4.931  0.00  0.00    +0.145 HD
ENDBRANCH   4  22
TORSDOF 3
