REMARK  Name = ZINC60368986
REMARK  8 active torsions:
REMARK  status: ('A' for Active; 'I' for Inactive)
REMARK    1  A    between atoms: C_1  and  C_2
REMARK    2  A    between atoms: C_7  and  C_13
REMARK    3  A    between atoms: C_8  and  C_12
REMARK    4  A    between atoms: N_15  and  N_16
REMARK    5  A    between atoms: N_16  and  C_17
REMARK    6  A    between atoms: C_20  and  S_23
REMARK    7  A    between atoms: S_23  and  N_26
REMARK    8  A    between atoms: N_26  and  C_27
REMARK                            x       y       z     vdW  Elec       q    Type
REMARK                         _______ _______ _______ _____ _____    ______ ____
ROOT
ATOM      1  C   UNL     1       0.563  -6.256   1.364  0.00  0.00    +0.262 C 
ATOM      2  O   UNL     1       0.648  -6.764   2.465  0.00  0.00    -0.269 OA
ATOM      3  N   UNL     1       0.703  -7.014   0.259  0.00  0.00    -0.232 N 
ATOM      4  H   UNL     1       0.634  -6.609  -0.620  0.00  0.00    +0.173 HD
ENDROOT
BRANCH   1  11
ATOM      5  C   UNL     1      -0.692   1.389  -0.215  0.00  0.00    +0.044 C 
ATOM      6  C   UNL     1      -0.421  -0.092  -0.151  0.00  0.00    -0.048 A 
ATOM      7  C   UNL     1      -0.153  -0.790  -1.327  0.00  0.00    +0.004 A 
ATOM      8  C   UNL     1       0.096  -2.128  -1.302  0.00  0.00    +0.010 A 
ATOM      9  C   UNL     1       0.082  -2.815  -0.076  0.00  0.00    +0.001 A 
ATOM     10  C   UNL     1       0.335  -4.196  -0.011  0.00  0.00    +0.025 A 
ATOM     11  C   UNL     1       0.305  -4.806   1.237  0.00  0.00    +0.060 A 
ATOM     12  C   UNL     1       0.026  -4.034   2.378  0.00  0.00    +0.051 A 
ATOM     13  N   UNL     1      -0.207  -2.749   2.295  0.00  0.00    -0.251 NA
ATOM     14  C   UNL     1      -0.191  -2.106   1.121  0.00  0.00    +0.072 A 
ATOM     15  C   UNL     1      -0.438  -0.724   1.054  0.00  0.00    +0.031 A 
ATOM     16  C   UNL     1      -0.006  -4.701   3.729  0.00  0.00    +0.066 C 
ENDBRANCH   1  11
BRANCH   3  17
ATOM     17  N   UNL     1       0.948  -8.389   0.379  0.00  0.00    -0.264 N 
ATOM     18  H   UNL     1       1.016  -8.794   1.258  0.00  0.00    +0.170 HD
BRANCH  17  19
ATOM     19  C   UNL     1       1.093  -9.175  -0.766  0.00  0.00    +0.045 A 
ATOM     20  C   UNL     1       1.001  -8.595  -2.025  0.00  0.00    +0.026 A 
ATOM     21  C   UNL     1       1.145  -9.375  -3.155  0.00  0.00    +0.030 A 
ATOM     22  C   UNL     1       1.381 -10.732  -3.035  0.00  0.00    +0.105 A 
ATOM     23  C   UNL     1       1.472 -11.313  -1.783  0.00  0.00    +0.030 A 
ATOM     24  C   UNL     1       1.336 -10.537  -0.649  0.00  0.00    +0.026 A 
BRANCH  22  25
ATOM     25  S   UNL     1       1.563 -11.725  -4.479  0.00  0.00    +0.059 S 
ATOM     26  O   UNL     1       1.233 -13.054  -4.103  0.00  0.00    -0.153 OA
ATOM     27  O   UNL     1       0.892 -11.041  -5.529  0.00  0.00    -0.153 OA
BRANCH  25  28
ATOM     28  N   UNL     1       3.172 -11.729  -4.870  0.00  0.00    -0.187 NA
ATOM     29  H   UNL     1       3.471 -11.324  -5.699  0.00  0.00    +0.148 HD
BRANCH  28  30
ATOM     30  C   UNL     1       4.145 -12.345  -3.963  0.00  0.00    +0.077 C 
ATOM     31  C   UNL     1       5.536 -11.714  -3.885  0.00  0.00    +0.022 C 
ATOM     32  C   UNL     1       5.344 -13.057  -4.592  0.00  0.00    +0.022 C 
ENDBRANCH  28  30
ENDBRANCH  25  28
ENDBRANCH  22  25
ENDBRANCH  17  19
ENDBRANCH   3  17
TORSDOF 6
