REMARK  Name = ZINC07619071
REMARK  4 active torsions:
REMARK  status: ('A' for Active; 'I' for Inactive)
REMARK    1  A    between atoms: C_1  and  C_2
REMARK    2  A    between atoms: N_12  and  C_13
REMARK    3  A    between atoms: C_13  and  C_14
REMARK    4  A    between atoms: N_19  and  C_20
REMARK                            x       y       z     vdW  Elec       q    Type
REMARK                         _______ _______ _______ _____ _____    ______ ____
ROOT
ATOM      1  C   UNL     1      -0.872   1.269   0.430  0.00  0.00    +0.238 C 
ATOM      2  O   UNL     1      -1.005   2.472   0.356  0.00  0.00    -0.274 OA
ATOM      3  N   UNL     1       0.360   0.732   0.535  0.00  0.00    -0.239 N 
ATOM      4  C   UNL     1       1.444   1.532   0.553  0.00  0.00    +0.310 C 
ATOM      5  O   UNL     1       1.311   2.738   0.479  0.00  0.00    -0.252 OA
ATOM      6  N   UNL     1       2.676   0.995   0.652  0.00  0.00    -0.267 N 
ATOM      7  H   UNL     1       0.466  -0.230   0.594  0.00  0.00    +0.159 HD
ATOM      8  H   UNL     1       2.780   0.039   0.777  0.00  0.00    +0.156 HD
ENDROOT
BRANCH   6   9
ATOM      9  C   UNL     1       3.807   1.818   0.576  0.00  0.00    +0.070 A 
ATOM     10  C   UNL     1       3.732   3.143   0.982  0.00  0.00    +0.026 A 
ATOM     11  C   UNL     1       4.850   3.951   0.911  0.00  0.00    +0.002 A 
ATOM     12  C   UNL     1       6.042   3.445   0.426  0.00  0.00    +0.003 A 
ATOM     13  C   UNL     1       6.121   2.127   0.015  0.00  0.00    +0.040 A 
ATOM     14  C   UNL     1       5.007   1.311   0.089  0.00  0.00    +0.145 A 
ATOM     15  F   UNL     1       5.083   0.023  -0.312  0.00  0.00    -0.204 F 
ENDBRANCH   6   9
BRANCH   1  16
ATOM     16  C   UNL     1      -2.084   0.374   0.404  0.00  0.00    +0.201 C 
BRANCH  16  27
ATOM     17  C   UNL     1      -3.440   1.013   2.870  0.00  0.00    +0.028 C 
ATOM     18  C   UNL     1      -3.382   1.967   1.676  0.00  0.00    +0.071 C 
ATOM     19  C   UNL     1      -4.654   2.824   1.640  0.00  0.00    +0.027 C 
ATOM     20  C   UNL     1      -4.471   3.894   0.561  0.00  0.00    +0.039 C 
ATOM     21  C   UNL     1      -3.947   3.258  -0.701  0.00  0.00    -0.026 A 
ATOM     22  C   UNL     1      -4.019   3.986  -1.878  0.00  0.00    +0.005 A 
ATOM     23  C   UNL     1      -3.541   3.456  -3.060  0.00  0.00    +0.000 A 
ATOM     24  C   UNL     1      -2.986   2.190  -3.073  0.00  0.00    +0.002 A 
ATOM     25  C   UNL     1      -2.913   1.459  -1.907  0.00  0.00    +0.023 A 
ATOM     26  C   UNL     1      -3.397   1.988  -0.709  0.00  0.00    +0.034 A 
ATOM     27  N   UNL     1      -3.301   1.196   0.434  0.00  0.00    -0.318 N 
ENDBRANCH  16  27
ENDBRANCH   1  16
TORSDOF 3
