REMARK  Name = ZINC63819053
REMARK  9 active torsions:
REMARK  status: ('A' for Active; 'I' for Inactive)
REMARK    1  A    between atoms: C_1  and  C_2
REMARK    2  A    between atoms: N_8  and  S_9
REMARK    3  A    between atoms: S_9  and  C_12
REMARK    4  A    between atoms: C_14  and  C_20
REMARK    5  A    between atoms: C_17  and  O_18
REMARK    6  A    between atoms: O_18  and  C_19
REMARK    7  A    between atoms: N_22  and  C_23
REMARK    8  A    between atoms: C_23  and  C_24
REMARK    9  A    between atoms: C_24  and  C_25
REMARK                            x       y       z     vdW  Elec       q    Type
REMARK                         _______ _______ _______ _____ _____    ______ ____
ROOT
ATOM      1  C   UNL     1      -0.267   0.523   3.609  0.00  0.00    +0.148 A 
ATOM      2  C   UNL     1       0.062   0.181   4.902  0.00  0.00    +0.045 A 
ATOM      3  C   UNL     1      -0.936   0.104   5.877  0.00  0.00    +0.039 A 
ATOM      4  C   UNL     1      -2.264   0.376   5.536  0.00  0.00    +0.017 A 
ATOM      5  C   UNL     1      -2.584   0.717   4.241  0.00  0.00    +0.048 A 
ATOM      6  C   UNL     1      -1.587   0.798   3.275  0.00  0.00    +0.146 A 
ENDROOT
BRANCH   3   7
ATOM      7  C   UNL     1      -0.588  -0.263   7.264  0.00  0.00    +0.244 C 
ATOM      8  O   UNL     1       0.567  -0.499   7.559  0.00  0.00    -0.270 OA
ATOM      9  N   UNL     1      -1.552  -0.336   8.203  0.00  0.00    -0.311 N 
ATOM     10  H   UNL     1      -2.474  -0.148   7.968  0.00  0.00    +0.149 HD
BRANCH   9  11
ATOM     11  C   UNL     1      -1.207  -0.701   9.579  0.00  0.00    +0.109 C 
BRANCH  11  12
ATOM     12  C   UNL     1      -2.474  -0.711  10.437  0.00  0.00    +0.052 C 
BRANCH  12  13
ATOM     13  C   UNL     1      -2.119  -1.086  11.853  0.00  0.00    -0.040 C 
ATOM     14  C   UNL     1      -1.872  -0.241  12.880  0.00  0.00    -0.001 A 
ATOM     15  C   UNL     1      -1.859   1.223  12.982  0.00  0.00    +0.010 A 
ATOM     16  C   UNL     1      -1.567   1.794  14.173  0.00  0.00    +0.001 A 
ATOM     17  C   UNL     1      -1.279   1.026  15.309  0.00  0.00    +0.002 A 
ATOM     18  C   UNL     1      -1.272  -0.324  15.293  0.00  0.00    +0.026 A 
ATOM     19  C   UNL     1      -1.564  -1.030  14.094  0.00  0.00    +0.043 A 
ATOM     20  N   UNL     1      -1.619  -2.313  13.828  0.00  0.00    -0.380 N 
ATOM     21  C   UNL     1      -1.975  -2.483  12.414  0.00  0.00    +0.144 C 
ATOM     22  H   UNL     1      -1.456  -3.030  14.460  0.00  0.00    +0.160 HD
ENDBRANCH  12  13
ENDBRANCH  11  12
ENDBRANCH   9  11
ENDBRANCH   3   7
BRANCH   1  23
ATOM     23  S   UNL     1       0.991   0.620   2.378  0.00  0.00    +0.065 S 
ATOM     24  O   UNL     1       2.206   0.240   3.008  0.00  0.00    -0.153 OA
ATOM     25  O   UNL     1       0.829   1.874   1.730  0.00  0.00    -0.153 OA
BRANCH  23  32
ATOM     26  C   UNL     1       1.469  -2.111   2.948  0.00  0.00    +0.026 C 
ATOM     27  C   UNL     1       0.985  -1.952   1.505  0.00  0.00    +0.077 C 
ATOM     28  C   UNL     1      -0.273  -2.800   1.290  0.00  0.00    +0.020 C 
ATOM     29  C   UNL     1      -0.832  -2.530  -0.109  0.00  0.00    +0.003 C 
ATOM     30  C   UNL     1      -1.217  -1.054  -0.231  0.00  0.00    +0.017 C 
ATOM     31  C   UNL     1       0.031  -0.187  -0.033  0.00  0.00    +0.110 C 
ATOM     32  N   UNL     1       0.659  -0.543   1.247  0.00  0.00    -0.174 NA
ENDBRANCH  23  32
ENDBRANCH   1  23
BRANCH   6  33
ATOM     33  O   UNL     1      -1.906   1.141   2.001  0.00  0.00    -0.493 OA
ATOM     34  C   UNL     1      -3.282   1.410   1.726  0.00  0.00    +0.277 C 
ENDBRANCH   6  33
TORSDOF 7
