REMARK  Name = ZINC37425590
REMARK  10 active torsions:
REMARK  status: ('A' for Active; 'I' for Inactive)
REMARK    1  A    between atoms: C_1  and  N_2
REMARK    2  A    between atoms: C_5  and  C_7
REMARK    3  A    between atoms: C_13  and  C_29
REMARK    4  A    between atoms: N_19  and  C_20
REMARK    5  A    between atoms: C_20  and  C_21
REMARK    6  A    between atoms: N_23  and  C_24
REMARK    7  A    between atoms: C_24  and  C_25
REMARK    8  A    between atoms: C_25  and  N_26
REMARK    9  A    between atoms: N_26  and  C_27
REMARK   10  A    between atoms: N_26  and  C_28
REMARK                            x       y       z     vdW  Elec       q    Type
REMARK                         _______ _______ _______ _____ _____    ______ ____
ROOT
ATOM      1  C   UNL     1      -1.488   0.973  -0.786  0.00  0.00    +0.174 C 
ATOM      2  N   UNL     1      -0.747  -0.254  -0.479  0.00  0.00    -0.252 N 
ATOM      3  C   UNL     1       0.365  -0.694  -1.110  0.00  0.00    +0.131 A 
ATOM      4  C   UNL     1       0.743  -1.859  -0.540  0.00  0.00    +0.037 A 
ATOM      5  C   UNL     1      -0.167  -2.151   0.489  0.00  0.00    +0.099 A 
ATOM      6  N   UNL     1      -1.060  -1.181   0.527  0.00  0.00    -0.169 NA
ATOM      7  C   UNL     1       1.935  -2.679  -0.965  0.00  0.00    +0.115 C 
ATOM      8  S   UNL     1       3.455  -1.831  -0.402  0.00  0.00    -0.138 S 
ATOM      9  C   UNL     1       3.062  -0.084  -0.751  0.00  0.00    +0.166 C 
ATOM     10  C   UNL     1       2.379   0.050  -2.079  0.00  0.00    +0.231 C 
ATOM     11  O   UNL     1       3.034   0.283  -3.073  0.00  0.00    -0.274 OA
ATOM     12  N   UNL     1       1.053  -0.085  -2.171  0.00  0.00    -0.246 N 
ENDROOT
BRANCH   7  13
ATOM     13  C   UNL     1       1.855  -4.049  -0.341  0.00  0.00    +0.005 A 
ATOM     14  C   UNL     1       1.250  -5.085  -1.027  0.00  0.00    +0.010 A 
ATOM     15  C   UNL     1       1.177  -6.342  -0.457  0.00  0.00    +0.039 A 
ATOM     16  C   UNL     1       1.708  -6.564   0.802  0.00  0.00    +0.126 A 
ATOM     17  C   UNL     1       2.314  -5.527   1.490  0.00  0.00    +0.077 A 
ATOM     18  C   UNL     1       2.392  -4.269   0.915  0.00  0.00    +0.131 A 
ATOM     19  F   UNL     1       2.988  -3.257   1.583  0.00  0.00    -0.205 F 
ATOM     20  F   UNL     1       1.635  -7.792   1.360  0.00  0.00    -0.205 F 
ENDBRANCH   7  13
BRANCH   5  21
ATOM     21  C   UNL     1      -0.128  -3.338   1.379  0.00  0.00    +0.002 A 
ATOM     22  C   UNL     1       0.433  -3.239   2.651  0.00  0.00    +0.010 A 
ATOM     23  C   UNL     1       0.466  -4.346   3.475  0.00  0.00    +0.001 A 
ATOM     24  C   UNL     1      -0.056  -5.551   3.041  0.00  0.00    +0.000 A 
ATOM     25  C   UNL     1      -0.614  -5.654   1.780  0.00  0.00    +0.001 A 
ATOM     26  C   UNL     1      -0.657  -4.553   0.949  0.00  0.00    +0.010 A 
ENDBRANCH   5  21
BRANCH  12  27
ATOM     27  C   UNL     1       0.332   0.391  -3.355  0.00  0.00    +0.210 C 
BRANCH  27  28
ATOM     28  C   UNL     1       0.388  -0.660  -4.433  0.00  0.00    +0.231 C 
ATOM     29  O   UNL     1       0.971  -1.704  -4.233  0.00  0.00    -0.274 OA
ATOM     30  N   UNL     1      -0.212  -0.440  -5.620  0.00  0.00    -0.316 N 
ATOM     31  H   UNL     1      -0.679   0.395  -5.780  0.00  0.00    +0.149 HD
BRANCH  30  32
ATOM     32  C   UNL     1      -0.158  -1.462  -6.669  0.00  0.00    +0.085 C 
BRANCH  32  33
ATOM     33  C   UNL     1      -0.911  -0.964  -7.905  0.00  0.00    -0.061 C 
BRANCH  33  34
ATOM     34  N   UNL     1      -0.857  -1.989  -8.956  0.00  0.00    +0.377 N 
ATOM     35  C   UNL     1      -1.678  -1.563 -10.097  0.00  0.00    -0.097 C 
ATOM     36  C   UNL     1       0.534  -2.168  -9.394  0.00  0.00    -0.097 C 
ATOM     37  H   UNL     1      -1.210  -2.862  -8.594  0.00  0.00    -0.083 HD
ENDBRANCH  33  34
ENDBRANCH  32  33
ENDBRANCH  30  32
ENDBRANCH  27  28
ENDBRANCH  12  27
TORSDOF 7
