REMARK  Name = ZINC21233337
REMARK  11 active torsions:
REMARK  status: ('A' for Active; 'I' for Inactive)
REMARK    1  A    between atoms: C_1  and  O_2
REMARK    2  A    between atoms: O_2  and  C_3
REMARK    3  A    between atoms: C_6  and  C_10
REMARK    4  A    between atoms: C_8  and  O_9
REMARK    5  A    between atoms: C_15  and  C_20
REMARK    6  A    between atoms: C_22  and  O_30
REMARK    7  A    between atoms: C_23  and  O_28
REMARK    8  A    between atoms: C_24  and  O_26
REMARK    9  A    between atoms: O_26  and  C_27
REMARK   10  A    between atoms: O_28  and  C_29
REMARK   11  A    between atoms: O_30  and  C_31
REMARK                            x       y       z     vdW  Elec       q    Type
REMARK                         _______ _______ _______ _____ _____    ______ ____
ROOT
ATOM      1  C   UNL     1       1.634   9.307  -2.893  0.00  0.00    +0.136 C 
ATOM      2  C   UNL     1       0.908   8.356  -1.970  0.00  0.00    +0.036 C 
ATOM      3  C   UNL     1      -0.346   7.906  -2.131  0.00  0.00    +0.017 C 
ATOM      4  C   UNL     1      -0.963   6.971  -1.103  0.00  0.00    +0.059 C 
ATOM      5  C   UNL     1       0.117   6.072  -0.504  0.00  0.00    +0.032 C 
ATOM      6  C   UNL     1       1.161   6.975   0.164  0.00  0.00    +0.088 C 
ATOM      7  C   UNL     1       1.679   7.942  -0.859  0.00  0.00    +0.163 C 
ATOM      8  O   UNL     1       2.804   8.384  -0.728  0.00  0.00    -0.292 OA
ATOM      9  N   UNL     1      -1.162   8.216  -3.171  0.00  0.00    -0.316 N 
ATOM     10  C   UNL     1      -1.370   9.502  -3.660  0.00  0.00    +0.052 A 
ATOM     11  C   UNL     1      -2.611  10.112  -3.634  0.00  0.00    +0.025 A 
ATOM     12  C   UNL     1      -2.764  11.362  -4.210  0.00  0.00    +0.002 A 
ATOM     13  C   UNL     1      -1.686  11.993  -4.802  0.00  0.00    +0.002 A 
ATOM     14  C   UNL     1      -0.439  11.393  -4.808  0.00  0.00    +0.025 A 
ATOM     15  C   UNL     1      -0.277  10.149  -4.217  0.00  0.00    +0.049 A 
ATOM     16  N   UNL     1       0.969   9.531  -4.160  0.00  0.00    -0.331 N 
ATOM     17  H   UNL     1      -1.716   7.420  -3.691  0.00  0.00    +0.152 HD
ATOM     18  H   UNL     1       1.449   9.212  -5.097  0.00  0.00    +0.147 HD
ENDROOT
BRANCH   1  22
ATOM     19  C   UNL     1       2.072  13.067  -0.903  0.00  0.00    +0.161 A 
ATOM     20  C   UNL     1       3.192  12.329  -1.249  0.00  0.00    +0.050 A 
ATOM     21  C   UNL     1       3.047  11.111  -1.887  0.00  0.00    +0.009 A 
ATOM     22  C   UNL     1       1.786  10.633  -2.192  0.00  0.00    -0.019 A 
ATOM     23  C   UNL     1       0.664  11.364  -1.849  0.00  0.00    +0.055 A 
ATOM     24  C   UNL     1       0.802  12.583  -1.204  0.00  0.00    +0.159 A 
BRANCH  19  26
ATOM     25  C   UNL     1       3.545  14.697   0.008  0.00  0.00    +0.277 C 
ATOM     26  O   UNL     1       2.212  14.262  -0.269  0.00  0.00    -0.491 OA
ENDBRANCH  19  26
BRANCH  24  27
ATOM     27  O   UNL     1      -0.300  13.303  -0.866  0.00  0.00    -0.503 OA
ATOM     28  H   UNL     1      -1.303  12.919  -1.105  0.00  0.00    +0.292 HD
ENDBRANCH  24  27
ENDBRANCH   1  22
BRANCH   5  29
ATOM     29  C   UNL     1      -0.494   5.153   0.522  0.00  0.00    -0.036 A 
ATOM     30  C   UNL     1      -1.148   5.682   1.619  0.00  0.00    +0.053 A 
ATOM     31  C   UNL     1      -1.711   4.840   2.566  0.00  0.00    +0.165 A 
ATOM     32  C   UNL     1      -1.623   3.462   2.408  0.00  0.00    +0.204 A 
ATOM     33  C   UNL     1      -0.960   2.934   1.306  0.00  0.00    +0.165 A 
ATOM     34  C   UNL     1      -0.400   3.783   0.364  0.00  0.00    +0.053 A 
BRANCH  33  35
ATOM     35  O   UNL     1      -0.867   1.586   1.149  0.00  0.00    -0.491 OA
ATOM     36  C   UNL     1      -0.177   1.114  -0.010  0.00  0.00    +0.277 C 
ENDBRANCH  33  35
BRANCH  32  37
ATOM     37  O   UNL     1      -2.179   2.632   3.332  0.00  0.00    -0.488 OA
ATOM     38  C   UNL     1      -1.353   2.236   4.429  0.00  0.00    +0.277 C 
ENDBRANCH  32  37
BRANCH  31  39
ATOM     39  O   UNL     1      -2.353   5.362   3.645  0.00  0.00    -0.491 OA
ATOM     40  C   UNL     1      -2.410   6.786   3.740  0.00  0.00    +0.277 C 
ENDBRANCH  31  39
ENDBRANCH   5  29
TORSDOF 7
