REMARK  Name = ZINC36207172
REMARK  18 active torsions:
REMARK  status: ('A' for Active; 'I' for Inactive)
REMARK    1  A    between atoms: C_1  and  C_2
REMARK    2  A    between atoms: C_2  and  O_3
REMARK    3  A    between atoms: O_3  and  C_4
REMARK    4  A    between atoms: C_4  and  C_6
REMARK    5  A    between atoms: C_7  and  C_32
REMARK    6  A    between atoms: C_13  and  C_17
REMARK    7  A    between atoms: C_17  and  N_18
REMARK    8  A    between atoms: N_18  and  C_19
REMARK    9  A    between atoms: N_18  and  C_28
REMARK   10  A    between atoms: C_19  and  C_20
REMARK   11  A    between atoms: C_20  and  C_22
REMARK   12  A    between atoms: C_20  and  O_27
REMARK   13  A    between atoms: C_22  and  O_23
REMARK   14  A    between atoms: O_23  and  C_24
REMARK   15  A    between atoms: C_24  and  C_25
REMARK   16  A    between atoms: C_28  and  C_29
REMARK   17  A    between atoms: C_29  and  C_30
REMARK   18  A    between atoms: C_29  and  C_31
REMARK                            x       y       z     vdW  Elec       q    Type
REMARK                         _______ _______ _______ _____ _____    ______ ____
ROOT
ATOM      1  C   UNL     1      11.694  -4.269  -7.469  0.00  0.00    +0.102 A 
ATOM      2  C   UNL     1      10.932  -5.402  -7.499  0.00  0.00    -0.015 A 
ATOM      3  C   UNL     1       9.541  -5.301  -7.565  0.00  0.00    +0.076 A 
ATOM      4  C   UNL     1       8.526  -6.379  -7.607  0.00  0.00    +0.260 A 
ATOM      5  O   UNL     1       8.858  -7.551  -7.584  0.00  0.00    -0.267 OA
ATOM      6  N   UNL     1       7.226  -6.030  -7.671  0.00  0.00    -0.312 N 
ATOM      7  H   UNL     1       6.549  -6.724  -7.699  0.00  0.00    +0.170 HD
ATOM      8  C   UNL     1       6.846  -4.729  -7.696  0.00  0.00    +0.094 A 
ATOM      9  N   UNL     1       7.714  -3.755  -7.660  0.00  0.00    -0.229 NA
ATOM     10  C   UNL     1       9.018  -3.988  -7.597  0.00  0.00    +0.116 A 
ATOM     11  S   UNL     1      10.471  -2.970  -7.527  0.00  0.00    -0.062 S 
ATOM     12  C   UNL     1      11.591  -6.756  -7.460  0.00  0.00    +0.046 C 
ENDROOT
BRANCH   1  13
ATOM     13  C   UNL     1      13.151  -4.150  -7.401  0.00  0.00    +0.346 C 
ATOM     14  O   UNL     1      13.843  -5.150  -7.368  0.00  0.00    -0.244 OA
BRANCH  13  15
ATOM     15  O   UNL     1      13.728  -2.930  -7.375  0.00  0.00    -0.461 OA
BRANCH  15  17
ATOM     16  C   UNL     1      15.622  -1.432  -7.287  0.00  0.00    +0.048 C 
ATOM     17  C   UNL     1      15.155  -2.889  -7.308  0.00  0.00    +0.229 C 
ENDBRANCH  15  17
ENDBRANCH  13  15
ENDBRANCH   1  13
BRANCH   8  18
ATOM     18  C   UNL     1       5.377  -4.398  -7.768  0.00  0.00    -0.003 C 
BRANCH  18  19
ATOM     19  N   UNL     1       5.210  -2.948  -7.933  0.00  0.00    +0.386 N 
ATOM     20  H   UNL     1       5.721  -2.465  -7.209  0.00  0.00    -0.081 HD
BRANCH  19  21
ATOM     21  C   UNL     1       5.723  -2.543  -9.248  0.00  0.00    -0.044 C 
BRANCH  21  22
ATOM     22  C   UNL     1       5.716  -1.016  -9.351  0.00  0.00    +0.124 C 
BRANCH  22  23
ATOM     23  O   UNL     1       4.367  -0.549  -9.409  0.00  0.00    -0.391 OA
ATOM     24  H   UNL     1       3.866  -0.887 -10.163  0.00  0.00    +0.210 HD
ENDBRANCH  22  23
BRANCH  22  25
ATOM     25  C   UNL     1       6.460  -0.586 -10.617  0.00  0.00    +0.190 C 
BRANCH  25  26
ATOM     26  O   UNL     1       6.555   0.839 -10.653  0.00  0.00    -0.365 OA
BRANCH  26  27
ATOM     27  C   UNL     1       7.236   1.347 -11.802  0.00  0.00    +0.248 C 
BRANCH  27  28
ATOM     28  C   UNL     1       7.276   2.817 -11.738  0.00  0.00    -0.077 C 
ATOM     29  C   UNL     1       7.308   3.990 -11.687  0.00  0.00    +0.006 C 
ENDBRANCH  27  28
ENDBRANCH  26  27
ENDBRANCH  25  26
ENDBRANCH  22  25
ENDBRANCH  21  22
ENDBRANCH  19  21
BRANCH  19  30
ATOM     30  C   UNL     1       3.784  -2.605  -7.837  0.00  0.00    -0.075 C 
BRANCH  30  31
ATOM     31  C   UNL     1       3.262  -2.979  -6.449  0.00  0.00    -0.034 C 
ATOM     32  C   UNL     1       4.059  -2.224  -5.384  0.00  0.00    +0.005 C 
ATOM     33  C   UNL     1       1.783  -2.603  -6.342  0.00  0.00    +0.005 C 
ENDBRANCH  30  31
ENDBRANCH  19  30
ENDBRANCH  18  19
ENDBRANCH   8  18
TORSDOF 14
