REMARK  Name = ZINC09871693
REMARK  8 active torsions:
REMARK  status: ('A' for Active; 'I' for Inactive)
REMARK    1  A    between atoms: C_1  and  C_2
REMARK    2  A    between atoms: C_9  and  N_14
REMARK    3  A    between atoms: C_15  and  C_17
REMARK    4  A    between atoms: C_17  and  C_18
REMARK    5  A    between atoms: C_18  and  C_19
REMARK    6  A    between atoms: C_28  and  C_29
REMARK    7  A    between atoms: C_32  and  O_35
REMARK    8  A    between atoms: O_35  and  C_36
REMARK                            x       y       z     vdW  Elec       q    Type
REMARK                         _______ _______ _______ _____ _____    ______ ____
ROOT
ATOM      1  C   UNL     1       5.431  -6.464  -1.126  0.00  0.00    +0.047 C 
ENDROOT
BRANCH   1   2
ATOM      2  C   UNL     1       5.538  -7.895  -1.587  0.00  0.00    -0.014 A 
ATOM      3  C   UNL     1       5.715  -8.355  -2.963  0.00  0.00    +0.003 A 
ATOM      4  C   UNL     1       5.833  -7.703  -4.194  0.00  0.00    +0.010 A 
ATOM      5  C   UNL     1       5.993  -8.434  -5.337  0.00  0.00    +0.001 A 
ATOM      6  C   UNL     1       6.040  -9.821  -5.285  0.00  0.00    +0.002 A 
ATOM      7  C   UNL     1       5.925 -10.485  -4.083  0.00  0.00    +0.026 A 
ATOM      8  C   UNL     1       5.762  -9.761  -2.907  0.00  0.00    +0.047 A 
ATOM      9  N   UNL     1       5.622 -10.126  -1.585  0.00  0.00    -0.354 N 
ATOM     10  H   UNL     1       5.619 -11.038  -1.256  0.00  0.00    +0.166 HD
ATOM     11  C   UNL     1       5.495  -9.001  -0.803  0.00  0.00    +0.051 A 
BRANCH  11  12
ATOM     12  C   UNL     1       5.333  -8.999   0.667  0.00  0.00    -0.001 A 
ATOM     13  C   UNL     1       6.076  -8.115   1.452  0.00  0.00    +0.013 A 
ATOM     14  C   UNL     1       5.917  -8.112   2.821  0.00  0.00    +0.046 A 
ATOM     15  C   UNL     1       5.029  -8.995   3.421  0.00  0.00    +0.120 A 
ATOM     16  C   UNL     1       4.293  -9.880   2.644  0.00  0.00    +0.046 A 
ATOM     17  C   UNL     1       4.441  -9.885   1.274  0.00  0.00    +0.013 A 
BRANCH  15  18
ATOM     18  O   UNL     1       4.880  -8.993   4.771  0.00  0.00    -0.495 OA
ATOM     19  C   UNL     1       5.668  -8.057   5.510  0.00  0.00    +0.277 C 
ENDBRANCH  15  18
ENDBRANCH  11  12
ENDBRANCH   1   2
BRANCH   1  20
ATOM     20  C   UNL     1       3.962  -6.035  -1.135  0.00  0.00    +0.101 C 
BRANCH  20  22
ATOM     21  N   UNL     1       2.648  -4.008  -0.602  0.00  0.00    -0.285 N 
ATOM     22  C   UNL     1       3.854  -4.604  -0.674  0.00  0.00    +0.218 C 
ATOM     23  O   UNL     1       4.854  -3.989  -0.368  0.00  0.00    -0.275 OA
ATOM     24  H   UNL     1       1.842  -4.521  -0.772  0.00  0.00    +0.155 HD
BRANCH  21  32
ATOM     25  C   UNL     1       3.277   3.558   0.892  0.00  0.00    +0.062 C 
ATOM     26  C   UNL     1       3.522   2.048   0.894  0.00  0.00    +0.256 C 
ATOM     27  C   UNL     1       4.500   1.697  -0.198  0.00  0.00    +0.258 C 
ATOM     28  O   UNL     1       5.334   2.504  -0.551  0.00  0.00    -0.271 OA
ATOM     29  N   UNL     1       4.447   0.478  -0.778  0.00  0.00    -0.279 N 
ATOM     30  C   UNL     1       3.455  -0.426  -0.371  0.00  0.00    +0.077 A 
ATOM     31  C   UNL     1       3.550  -1.769  -0.692  0.00  0.00    +0.050 A 
ATOM     32  C   UNL     1       2.556  -2.648  -0.281  0.00  0.00    +0.035 A 
ATOM     33  C   UNL     1       1.472  -2.179   0.449  0.00  0.00    +0.027 A 
ATOM     34  C   UNL     1       1.377  -0.837   0.769  0.00  0.00    +0.049 A 
ATOM     35  C   UNL     1       2.366   0.042   0.361  0.00  0.00    +0.143 A 
ATOM     36  O   UNL     1       2.286   1.365   0.670  0.00  0.00    -0.478 OA
ATOM     37  H   UNL     1       5.086   0.232  -1.465  0.00  0.00    +0.155 HD
ENDBRANCH  21  32
ENDBRANCH  20  22
ENDBRANCH   1  20
TORSDOF 6
