REMARK  Name = ZINC02351461
REMARK  12 active torsions:
REMARK  status: ('A' for Active; 'I' for Inactive)
REMARK    1  A    between atoms: C_1  and  C_2
REMARK    2  A    between atoms: N_8  and  C_9
REMARK    3  A    between atoms: C_9  and  C_10
REMARK    4  A    between atoms: C_10  and  C_11
REMARK    5  A    between atoms: C_14  and  O_18
REMARK    6  A    between atoms: C_15  and  O_17
REMARK    7  A    between atoms: C_19  and  C_27
REMARK    8  A    between atoms: C_21  and  C_25
REMARK    9  A    between atoms: C_22  and  N_24
REMARK   10  A    between atoms: C_30  and  C_33
REMARK   11  A    between atoms: C_33  and  C_34
REMARK   12  A    between atoms: C_33  and  C_35
REMARK                            x       y       z     vdW  Elec       q    Type
REMARK                         _______ _______ _______ _____ _____    ______ ____
ROOT
ATOM      1  C   UNL     1       1.119   3.599   0.010  0.00  0.00    +0.064 C 
ATOM      2  C   UNL     1       1.146   2.093   0.002  0.00  0.00    +0.022 A 
ATOM      3  C   UNL     1      -0.017   1.406   0.010  0.00  0.00    +0.068 A 
ATOM      4  C   UNL     1       0.002  -0.004   0.002  0.00  0.00    +0.141 A 
ATOM      5  C   UNL     1       1.217  -0.655  -0.013  0.00  0.00    +0.072 A 
ATOM      6  C   UNL     1       2.398   0.099  -0.020  0.00  0.00    +0.259 A 
ATOM      7  O   UNL     1       3.481  -0.465  -0.034  0.00  0.00    -0.267 OA
ATOM      8  N   UNL     1       2.339   1.443  -0.013  0.00  0.00    -0.312 N 
ATOM      9  C   UNL     1       1.284  -2.158  -0.020  0.00  0.00    +0.103 C 
ATOM     10  C   UNL     1      -0.050  -2.734  -0.406  0.00  0.00    +0.098 C 
ATOM     11  C   UNL     1      -1.176  -1.982  -0.371  0.00  0.00    +0.199 C 
ATOM     12  O   UNL     1      -1.159  -0.693   0.010  0.00  0.00    -0.441 OA
ENDROOT
BRANCH   9  13
ATOM     13  C   UNL     1       1.661  -2.648   1.355  0.00  0.00    -0.034 A 
ATOM     14  C   UNL     1       0.857  -2.348   2.439  0.00  0.00    +0.005 A 
ATOM     15  C   UNL     1       1.200  -2.802   3.699  0.00  0.00    +0.004 A 
ATOM     16  C   UNL     1       2.351  -3.545   3.877  0.00  0.00    -0.045 A 
ATOM     17  C   UNL     1       3.157  -3.841   2.793  0.00  0.00    +0.004 A 
ATOM     18  C   UNL     1       2.812  -3.392   1.532  0.00  0.00    +0.005 A 
BRANCH  16  19
ATOM     19  C   UNL     1       2.728  -4.035   5.251  0.00  0.00    +0.013 C 
ATOM     20  C   UNL     1       2.914  -2.838   6.186  0.00  0.00    +0.012 C 
ATOM     21  C   UNL     1       1.617  -4.937   5.793  0.00  0.00    +0.012 C 
ENDBRANCH  16  19
ENDBRANCH   9  13
BRANCH  11  22
ATOM     22  N   UNL     1      -2.370  -2.554  -0.733  0.00  0.00    -0.328 N 
ATOM     23  H   UNL     1      -2.398  -3.484  -1.009  0.00  0.00    +0.145 HD
ATOM     24  H   UNL     1      -3.185  -2.029  -0.713  0.00  0.00    +0.145 HD
ENDBRANCH  11  22
BRANCH  10  25
ATOM     25  C   UNL     1      -0.131  -4.102  -0.820  0.00  0.00    +0.101 C 
ATOM     26  N   UNL     1      -0.196  -5.188  -1.148  0.00  0.00    -0.191 NA
ENDBRANCH  10  25
BRANCH   8  27
ATOM     27  C   UNL     1       3.582   2.219  -0.021  0.00  0.00    +0.130 C 
BRANCH  27  28
ATOM     28  C   UNL     1       4.000   2.497  -1.466  0.00  0.00    +0.057 C 
BRANCH  28  29
ATOM     29  C   UNL     1       5.279   3.295  -1.475  0.00  0.00    -0.042 A 
ATOM     30  C   UNL     1       5.229   4.677  -1.472  0.00  0.00    +0.007 A 
ATOM     31  C   UNL     1       6.399   5.413  -1.474  0.00  0.00    +0.049 A 
ATOM     32  C   UNL     1       7.624   4.767  -1.490  0.00  0.00    +0.158 A 
ATOM     33  C   UNL     1       7.674   3.377  -1.498  0.00  0.00    +0.158 A 
ATOM     34  C   UNL     1       6.498   2.644  -1.490  0.00  0.00    +0.052 A 
BRANCH  33  35
ATOM     35  O   UNL     1       8.875   2.738  -1.513  0.00  0.00    -0.503 OA
ATOM     36  H   UNL     1       9.213   2.557  -2.401  0.00  0.00    +0.292 HD
ENDBRANCH  33  35
BRANCH  32  37
ATOM     37  O   UNL     1       8.776   5.490  -1.498  0.00  0.00    -0.503 OA
ATOM     38  H   UNL     1       9.100   5.704  -2.384  0.00  0.00    +0.292 HD
ENDBRANCH  32  37
ENDBRANCH  28  29
ENDBRANCH  27  28
ENDBRANCH   8  27
TORSDOF 9
