REMARK  Name = ZINC32915858
REMARK  5 active torsions:
REMARK  status: ('A' for Active; 'I' for Inactive)
REMARK    1  A    between atoms: C_4  and  S_11
REMARK    2  A    between atoms: C_6  and  C_7
REMARK    3  A    between atoms: S_11  and  N_14
REMARK    4  A    between atoms: N_14  and  C_15
REMARK    5  A    between atoms: C_18  and  N_22
REMARK                            x       y       z     vdW  Elec       q    Type
REMARK                         _______ _______ _______ _____ _____    ______ ____
ROOT
ATOM      1  N   UNL     1       0.045   4.475   5.293  0.00  0.00    -0.216 N 
ATOM      2  H   UNL     1       0.863   5.179   5.079  0.00  0.00    +0.174 HD
ENDROOT
BRANCH   1   3
ATOM      3  C   UNL     1      -1.221   4.958   5.643  0.00  0.00    +0.050 A 
ATOM      4  C   UNL     1      -1.341   5.975   6.581  0.00  0.00    +0.026 A 
ATOM      5  C   UNL     1      -2.590   6.453   6.926  0.00  0.00    +0.026 A 
ATOM      6  C   UNL     1      -3.726   5.917   6.336  0.00  0.00    +0.049 A 
ATOM      7  C   UNL     1      -3.607   4.899   5.397  0.00  0.00    +0.064 A 
ATOM      8  C   UNL     1      -2.356   4.425   5.048  0.00  0.00    +0.046 A 
ATOM      9 CL   UNL     1      -5.027   4.228   4.659  0.00  0.00    -0.082 Cl
BRANCH   6  10
ATOM     10  N   UNL     1      -4.993   6.402   6.686  0.00  0.00    -0.318 N 
ATOM     11  C   UNL     1      -5.626   7.092   5.551  0.00  0.00    +0.124 C 
ATOM     12  C   UNL     1      -7.102   7.324   5.878  0.00  0.00    +0.123 C 
ATOM     13  N   UNL     1      -7.231   7.944   7.194  0.00  0.00    -0.313 N 
ATOM     14  C   UNL     1      -6.251   7.928   8.104  0.00  0.00    +0.230 C 
ATOM     15  O   UNL     1      -6.453   8.440   9.185  0.00  0.00    -0.274 OA
ATOM     16  C   UNL     1      -4.910   7.302   7.844  0.00  0.00    +0.200 C 
ATOM     17  H   UNL     1      -8.165   8.453   7.474  0.00  0.00    +0.149 HD
ENDBRANCH   6  10
ENDBRANCH   1   3
BRANCH   1  18
ATOM     18  S   UNL     1       0.312   2.843   5.201  0.00  0.00    +0.074 S 
ATOM     19  O   UNL     1       1.697   2.672   4.931  0.00  0.00    -0.150 OA
ATOM     20  O   UNL     1      -0.699   2.313   4.354  0.00  0.00    -0.150 OA
BRANCH  18  24
ATOM     21  C   UNL     1      -0.428   1.133   9.327  0.00  0.00    +0.014 A 
ATOM     22  C   UNL     1       0.619   2.013   9.122  0.00  0.00    +0.022 A 
ATOM     23  C   UNL     1       0.845   2.537   7.862  0.00  0.00    +0.068 A 
ATOM     24  C   UNL     1       0.025   2.176   6.806  0.00  0.00    +0.127 A 
ATOM     25  C   UNL     1      -1.018   1.294   7.012  0.00  0.00    +0.042 A 
ATOM     26  C   UNL     1      -1.243   0.770   8.271  0.00  0.00    +0.057 A 
ATOM     27 CL   UNL     1       2.155   3.645   7.604  0.00  0.00    -0.082 Cl
BRANCH  26  28
ATOM     28  C   UNL     1      -2.380  -0.193   8.495  0.00  0.00    +0.417 C 
ATOM     29  F   UNL     1      -1.931  -1.502   8.287  0.00  0.00    -0.166 F 
ATOM     30  F   UNL     1      -3.416   0.092   7.599  0.00  0.00    -0.166 F 
ATOM     31  F   UNL     1      -2.849  -0.064   9.806  0.00  0.00    -0.166 F 
ENDBRANCH  26  28
ENDBRANCH  18  24
ENDBRANCH   1  18
TORSDOF 5
