REMARK  Name = ZINC14544261
REMARK  6 active torsions:
REMARK  status: ('A' for Active; 'I' for Inactive)
REMARK    1  A    between atoms: C_1  and  O_2
REMARK    2  A    between atoms: O_2  and  C_3
REMARK    3  A    between atoms: C_12  and  C_13
REMARK    4  A    between atoms: C_26  and  C_29
REMARK    5  A    between atoms: N_31  and  C_32
REMARK    6  A    between atoms: C_32  and  C_33
REMARK                            x       y       z     vdW  Elec       q    Type
REMARK                         _______ _______ _______ _____ _____    ______ ____
ROOT
ATOM      1  C   UNL     1      -1.184  -2.129  -0.054  0.00  0.00    +0.109 C 
ATOM      2  C   UNL     1      -0.357  -3.034   0.835  0.00  0.00    +0.029 C 
ATOM      3  C   UNL     1      -0.616  -4.543   0.763  0.00  0.00    +0.033 C 
ATOM      4  C   UNL     1       0.763  -5.107   1.114  0.00  0.00    -0.030 C 
ATOM      5  C   UNL     1       1.707  -4.228   0.791  0.00  0.00    -0.023 C 
ATOM      6  C   UNL     1       1.058  -3.045   0.176  0.00  0.00    +0.049 C 
ATOM      7  C   UNL     1       1.599  -1.675   0.304  0.00  0.00    -0.019 A 
ATOM      8  C   UNL     1       2.947  -1.439   0.465  0.00  0.00    +0.006 A 
ATOM      9  C   UNL     1       3.436  -0.147   0.563  0.00  0.00    +0.001 A 
ATOM     10  C   UNL     1       2.568   0.921   0.499  0.00  0.00    +0.015 A 
ATOM     11  C   UNL     1       1.201   0.702   0.343  0.00  0.00    +0.058 A 
ATOM     12  C   UNL     1       0.694  -0.611   0.251  0.00  0.00    +0.044 A 
ATOM     13  N   UNL     1      -0.678  -0.760   0.131  0.00  0.00    -0.336 N 
ATOM     14  H   UNL     1      -1.159  -0.295   0.886  0.00  0.00    +0.147 HD
ENDROOT
BRANCH   1  24
ATOM     15  C   UNL     1      -0.193  -1.852  -2.322  0.00  0.00    +0.126 A 
ATOM     16  C   UNL     1      -0.039  -2.225  -3.661  0.00  0.00    +0.046 A 
ATOM     17  C   UNL     1      -0.719  -3.285  -4.174  0.00  0.00    +0.012 A 
ATOM     18  C   UNL     1      -1.589  -4.020  -3.351  0.00  0.00    -0.017 A 
ATOM     19  C   UNL     1      -2.307  -5.120  -3.848  0.00  0.00    +0.008 A 
ATOM     20  C   UNL     1      -3.142  -5.809  -3.023  0.00  0.00    +0.001 A 
ATOM     21  C   UNL     1      -3.297  -5.440  -1.688  0.00  0.00    +0.001 A 
ATOM     22  C   UNL     1      -2.619  -4.379  -1.171  0.00  0.00    +0.009 A 
ATOM     23  C   UNL     1      -1.743  -3.647  -1.992  0.00  0.00    -0.009 A 
ATOM     24  C   UNL     1      -1.030  -2.544  -1.494  0.00  0.00    +0.022 A 
BRANCH  15  26
ATOM     25  C   UNL     1       1.360  -0.104  -2.752  0.00  0.00    +0.277 C 
ATOM     26  O   UNL     1       0.500  -0.788  -1.839  0.00  0.00    -0.495 OA
ENDBRANCH  15  26
ENDBRANCH   1  24
BRANCH  11  27
ATOM     27  C   UNL     1       0.280   1.851   0.267  0.00  0.00    +0.246 C 
ATOM     28  O   UNL     1      -0.913   1.664   0.126  0.00  0.00    -0.270 OA
ATOM     29  N   UNL     1       0.760   3.107   0.355  0.00  0.00    -0.309 N 
ATOM     30  H   UNL     1       1.712   3.256   0.467  0.00  0.00    +0.149 HD
BRANCH  29  31
ATOM     31  C   UNL     1      -0.156   4.248   0.280  0.00  0.00    +0.136 C 
BRANCH  31  32
ATOM     32  C   UNL     1       0.639   5.549   0.404  0.00  0.00    +0.135 C 
ATOM     33  C   UNL     1      -0.317   6.761   0.453  0.00  0.00    +0.035 C 
ATOM     34  C   UNL     1       0.422   7.856  -0.348  0.00  0.00    +0.031 C 
ATOM     35  C   UNL     1       1.738   7.176  -0.786  0.00  0.00    +0.160 C 
ATOM     36  O   UNL     1       1.444   5.762  -0.776  0.00  0.00    -0.375 OA
ENDBRANCH  31  32
ENDBRANCH  29  31
ENDBRANCH  11  27
TORSDOF 5
