REMARK  Name = ZINC44720534
REMARK  5 active torsions:
REMARK  status: ('A' for Active; 'I' for Inactive)
REMARK    1  A    between atoms: C_1  and  C_2
REMARK    2  A    between atoms: C_5  and  O_9
REMARK    3  A    between atoms: O_9  and  C_10
REMARK    4  A    between atoms: C_10  and  C_12
REMARK    5  A    between atoms: C_15  and  C_18
REMARK                            x       y       z     vdW  Elec       q    Type
REMARK                         _______ _______ _______ _____ _____    ______ ____
ROOT
ATOM      1  C   UNL     1      -0.044  -4.756  -1.210  0.00  0.00    +0.344 C 
ATOM      2  O   UNL     1      -0.056  -4.110  -2.239  0.00  0.00    -0.245 OA
ENDROOT
BRANCH   1   3
ATOM      3  C   UNL     1      -0.140  -6.231  -1.263  0.00  0.00    +0.059 A 
ATOM      4  C   UNL     1      -0.132  -6.974  -0.081  0.00  0.00    +0.016 A 
ATOM      5  C   UNL     1      -0.222  -8.348  -0.129  0.00  0.00    +0.014 A 
ATOM      6  C   UNL     1      -0.321  -8.998  -1.361  0.00  0.00    +0.037 A 
ATOM      7  C   UNL     1      -0.328  -8.256  -2.543  0.00  0.00    +0.014 A 
ATOM      8  C   UNL     1      -0.245  -6.881  -2.494  0.00  0.00    +0.016 A 
BRANCH   6   9
ATOM      9  C   UNL     1      -0.417 -10.474  -1.413  0.00  0.00    +0.242 C 
ATOM     10  O   UNL     1      -0.410 -11.120  -0.384  0.00  0.00    -0.270 OA
ATOM     11  N   UNL     1      -0.512 -11.102  -2.602  0.00  0.00    -0.325 N 
ATOM     12  H   UNL     1      -0.518 -10.586  -3.423  0.00  0.00    +0.145 HD
ATOM     13  H   UNL     1      -0.575 -12.069  -2.636  0.00  0.00    +0.145 HD
ENDBRANCH   6   9
ENDBRANCH   1   3
BRANCH   1  14
ATOM     14  O   UNL     1       0.058  -4.130  -0.022  0.00  0.00    -0.421 OA
BRANCH  14  19
ATOM     15  C   UNL     1      -0.065   1.502   0.014  0.00  0.00    +0.044 C 
ATOM     16  C   UNL     1      -0.033  -0.005   0.005  0.00  0.00    -0.049 A 
ATOM     17  C   UNL     1       1.179  -0.669   0.050  0.00  0.00    +0.007 A 
ATOM     18  C   UNL     1       1.212  -2.050   0.041  0.00  0.00    +0.048 A 
ATOM     19  C   UNL     1       0.028  -2.771  -0.013  0.00  0.00    +0.146 A 
ATOM     20  C   UNL     1      -1.188  -2.102  -0.059  0.00  0.00    +0.060 A 
ATOM     21  C   UNL     1      -1.215  -0.720  -0.044  0.00  0.00    +0.022 A 
ATOM     22 BR   UNL     1      -2.804  -3.080  -0.134  0.00  0.00    -0.046 Br
ENDBRANCH  14  19
ENDBRANCH   1  14
TORSDOF 4
