REMARK  Name = ZINC03483147
REMARK  10 active torsions:
REMARK  status: ('A' for Active; 'I' for Inactive)
REMARK    1  A    between atoms: C_1  and  C_2
REMARK    2  A    between atoms: C_4  and  C_29
REMARK    3  A    between atoms: C_5  and  C_9
REMARK    4  A    between atoms: C_7  and  C_8
REMARK    5  A    between atoms: C_9  and  C_11
REMARK    6  A    between atoms: C_11  and  O_12
REMARK    7  A    between atoms: O_12  and  C_13
REMARK    8  A    between atoms: C_13  and  C_15
REMARK    9  A    between atoms: C_20  and  N_21
REMARK   10  A    between atoms: C_22  and  C_24
REMARK                            x       y       z     vdW  Elec       q    Type
REMARK                         _______ _______ _______ _____ _____    ______ ____
ROOT
ATOM      1  C   UNL     1       1.869  -0.552  -1.264  0.00  0.00    +0.341 C 
ATOM      2  O   UNL     1       1.024  -1.425  -1.253  0.00  0.00    -0.245 OA
ENDROOT
BRANCH   1   3
ATOM      3  C   UNL     1       3.269  -0.885  -1.581  0.00  0.00    +0.080 A 
ATOM      4  C   UNL     1       4.264   0.090  -1.478  0.00  0.00    +0.017 A 
ATOM      5  C   UNL     1       5.572  -0.229  -1.772  0.00  0.00    +0.001 A 
ATOM      6  C   UNL     1       5.905  -1.511  -2.180  0.00  0.00    +0.002 A 
ATOM      7  C   UNL     1       4.933  -2.484  -2.292  0.00  0.00    +0.024 A 
ATOM      8  C   UNL     1       3.610  -2.182  -1.995  0.00  0.00    +0.048 A 
BRANCH   8   9
ATOM      9  N   UNL     1       2.627  -3.161  -2.108  0.00  0.00    -0.278 N 
ATOM     10  C   UNL     1       2.908  -4.439  -1.783  0.00  0.00    +0.284 C 
ATOM     11  O   UNL     1       4.042  -4.752  -1.471  0.00  0.00    -0.266 OA
ATOM     12  H   UNL     1       1.740  -2.924  -2.420  0.00  0.00    +0.155 HD
BRANCH  10  13
ATOM     13  C   UNL     1       1.848  -5.451  -1.806  0.00  0.00    +0.189 A 
ATOM     14  C   UNL     1       1.996  -6.774  -1.501  0.00  0.00    +0.054 A 
ATOM     15  C   UNL     1       0.733  -7.367  -1.655  0.00  0.00    +0.042 A 
ATOM     16  C   UNL     1      -0.120  -6.392  -2.042  0.00  0.00    +0.196 A 
ATOM     17  O   UNL     1       0.555  -5.238  -2.126  0.00  0.00    -0.458 OA
ENDBRANCH  10  13
ENDBRANCH   8   9
ENDBRANCH   1   3
BRANCH   1  18
ATOM     18  O   UNL     1       1.526   0.721  -0.986  0.00  0.00    -0.453 OA
BRANCH  18  19
ATOM     19  C   UNL     1       0.129   0.976  -0.682  0.00  0.00    +0.311 C 
BRANCH  19  20
ATOM     20  C   UNL     1      -0.064   2.443  -0.400  0.00  0.00    +0.201 C 
ATOM     21  O   UNL     1       0.882   3.200  -0.449  0.00  0.00    -0.288 OA
BRANCH  20  26
ATOM     22  C   UNL     1      -5.291   4.459   0.893  0.00  0.00    +0.044 C 
ATOM     23  C   UNL     1      -3.921   3.930   0.554  0.00  0.00    -0.047 A 
ATOM     24  C   UNL     1      -2.823   4.771   0.621  0.00  0.00    +0.007 A 
ATOM     25  C   UNL     1      -1.565   4.294   0.318  0.00  0.00    -0.040 A 
ATOM     26  C   UNL     1      -1.402   2.959  -0.069  0.00  0.00    +0.024 A 
ATOM     27  C   UNL     1      -2.516   2.117  -0.135  0.00  0.00    +0.015 A 
ATOM     28  C   UNL     1      -3.767   2.608   0.176  0.00  0.00    -0.047 A 
ATOM     29  C   UNL     1      -4.969   1.702   0.106  0.00  0.00    +0.044 C 
ATOM     30  C   UNL     1      -0.370   5.208   0.399  0.00  0.00    +0.044 C 
ENDBRANCH  20  26
ENDBRANCH  19  20
ENDBRANCH  18  19
ENDBRANCH   1  18
TORSDOF 7
