REMARK  Name = ZINC05651672
REMARK  7 active torsions:
REMARK  status: ('A' for Active; 'I' for Inactive)
REMARK    1  A    between atoms: C_1  and  C_2
REMARK    2  A    between atoms: C_2  and  C_3
REMARK    3  A    between atoms: C_14  and  C_15
REMARK    4  A    between atoms: C_14  and  O_17
REMARK    5  A    between atoms: O_17  and  C_18
REMARK    6  A    between atoms: C_18  and  C_20
REMARK    7  A    between atoms: N_26  and  O_27
REMARK                            x       y       z     vdW  Elec       q    Type
REMARK                         _______ _______ _______ _____ _____    ______ ____
ROOT
ATOM      1  C   UNL     1       0.605  -0.498  -1.312  0.00  0.00    +0.025 C 
ATOM      2  C   UNL     1      -0.046   0.155  -2.502  0.00  0.00    +0.012 C 
ATOM      3  C   UNL     1      -1.417  -0.462  -2.802  0.00  0.00    +0.005 C 
ATOM      4  C   UNL     1      -1.871  -1.462  -1.756  0.00  0.00    -0.000 C 
ATOM      5  C   UNL     1      -0.842  -2.566  -1.520  0.00  0.00    -0.003 C 
ATOM      6  C   UNL     1       0.554  -2.033  -1.461  0.00  0.00    +0.004 C 
ATOM      7  C   UNL     1       1.447  -2.496  -0.301  0.00  0.00    +0.009 C 
ATOM      8  C   UNL     1       2.607  -1.462  -0.319  0.00  0.00    +0.062 C 
ATOM      9  C   UNL     1       2.130  -0.282  -1.203  0.00  0.00    +0.179 C 
ATOM     10  C   UNL     1      -1.247  -3.359  -0.277  0.00  0.00    +0.008 C 
ATOM     11  C   UNL     1      -2.559  -4.091  -0.587  0.00  0.00    +0.031 C 
ATOM     12  C   UNL     1      -3.585  -3.099  -1.102  0.00  0.00    -0.064 C 
ATOM     13  C   UNL     1      -4.790  -3.120  -0.547  0.00  0.00    +0.026 C 
ATOM     14  C   UNL     1      -5.849  -2.212  -1.015  0.00  0.00    +0.080 C 
ATOM     15  N   UNL     1      -6.913  -1.983  -0.311  0.00  0.00    -0.092 NA
ATOM     16  C   UNL     1      -5.651  -1.580  -2.379  0.00  0.00    +0.059 C 
ATOM     17  C   UNL     1      -4.221  -1.053  -2.454  0.00  0.00    +0.014 C 
ATOM     18  C   UNL     1      -3.192  -2.134  -2.184  0.00  0.00    +0.019 C 
ENDROOT
BRANCH   1  20
ATOM     19  C   UNL     1      -0.273   1.498  -0.096  0.00  0.00    +0.004 C 
ATOM     20  C   UNL     1       0.002  -0.004   0.002  0.00  0.00    +0.009 C 
ENDBRANCH   1  20
BRANCH   9  21
ATOM     21  C   UNL     1       2.408   1.002  -0.548  0.00  0.00    -0.058 C 
ATOM     22  C   UNL     1       2.630   2.029  -0.024  0.00  0.00    +0.008 C 
ENDBRANCH   9  21
BRANCH  15  23
ATOM     23  O   UNL     1      -7.908  -1.102  -0.798  0.00  0.00    -0.409 OA
ATOM     24  H   UNL     1      -8.663  -0.995  -0.204  0.00  0.00    +0.328 HD
ENDBRANCH  15  23
BRANCH   9  25
ATOM     25  O   UNL     1       2.732  -0.343  -2.492  0.00  0.00    -0.445 OA
BRANCH  25  26
ATOM     26  C   UNL     1       4.062  -0.172  -2.552  0.00  0.00    +0.305 C 
ATOM     27  O   UNL     1       4.692   0.023  -1.540  0.00  0.00    -0.251 OA
ATOM     28  C   UNL     1       4.769  -0.224  -3.882  0.00  0.00    +0.136 C 
ENDBRANCH  25  26
ENDBRANCH   9  25
TORSDOF 5
