REMARK  Name = ZINC08442457
REMARK  12 active torsions:
REMARK  status: ('A' for Active; 'I' for Inactive)
REMARK    1  A    between atoms: C_1  and  C_2
REMARK    2  A    between atoms: C_2  and  C_3
REMARK    3  A    between atoms: C_2  and  C_4
REMARK    4  A    between atoms: C_2  and  C_5
REMARK    5  A    between atoms: C_5  and  C_7
REMARK    6  A    between atoms: C_5  and  N_22
REMARK    7  A    between atoms: C_7  and  N_9
REMARK    8  A    between atoms: C_7  and  O_14
REMARK    9  A    between atoms: O_14  and  C_15
REMARK   10  A    between atoms: C_23  and  C_27
REMARK   11  A    between atoms: C_27  and  C_29
REMARK   12  A    between atoms: C_27  and  N_70
REMARK                            x       y       z     vdW  Elec       q    Type
REMARK                         _______ _______ _______ _____ _____    ______ ____
ROOT
ATOM      1  C   UNL     1       1.472  -2.553   1.219  0.00  0.00    +0.179 C 
ENDROOT
BRANCH   1   2
ATOM      2  N   UNL     1       1.604  -1.644   2.361  0.00  0.00    -0.221 N 
ATOM      3  C   UNL     1       0.661  -1.378   3.283  0.00  0.00    +0.143 A 
ATOM      4  N   UNL     1       1.188  -0.521   4.124  0.00  0.00    -0.115 NA
ATOM      5  N   UNL     1       2.389  -0.268   3.732  0.00  0.00    -0.023 NA
ATOM      6  N   UNL     1       2.644  -0.945   2.668  0.00  0.00    -0.043 NA
BRANCH   3   7
ATOM      7  C   UNL     1      -0.730  -1.955   3.341  0.00  0.00    +0.033 C 
BRANCH   7  13
ATOM      8  C   UNL     1      -3.011  -1.499   4.010  0.00  0.00    -0.077 C 
ATOM      9  C   UNL     1      -3.911  -0.482   4.715  0.00  0.00    -0.019 C 
ATOM     10  C   UNL     1      -3.935   0.818   3.906  0.00  0.00    -0.004 C 
ATOM     11  C   UNL     1      -2.504   1.341   3.752  0.00  0.00    -0.019 C 
ATOM     12  C   UNL     1      -1.645   0.270   3.075  0.00  0.00    -0.077 C 
ATOM     13  N   UNL     1      -1.644  -0.946   3.916  0.00  0.00    +0.389 N 
ATOM     14  H   UNL     1      -1.318  -0.700   4.858  0.00  0.00    -0.080 HD
ENDBRANCH   7  13
BRANCH   7  15
ATOM     15  C   UNL     1      -0.731  -3.175   4.226  0.00  0.00    -0.054 A 
ATOM     16  C   UNL     1      -0.613  -3.035   5.596  0.00  0.00    +0.002 A 
ATOM     17  C   UNL     1      -0.619  -4.154   6.408  0.00  0.00    +0.000 A 
ATOM     18  C   UNL     1      -0.732  -5.413   5.849  0.00  0.00    +0.000 A 
ATOM     19  C   UNL     1      -0.845  -5.553   4.479  0.00  0.00    +0.000 A 
ATOM     20  C   UNL     1      -0.844  -4.434   3.667  0.00  0.00    +0.002 A 
ENDBRANCH   7  15
ENDBRANCH   3   7
ENDBRANCH   1   2
BRANCH   1  22
ATOM     21  C   UNL     1       3.921  -3.044   1.167  0.00  0.00    +0.013 C 
ATOM     22  C   UNL     1       2.528  -3.656   1.321  0.00  0.00    -0.010 C 
ATOM     23  C   UNL     1       2.419  -4.341   2.685  0.00  0.00    +0.013 C 
ATOM     24  C   UNL     1       2.298  -4.686   0.213  0.00  0.00    +0.013 C 
ENDBRANCH   1  22
BRANCH   1  25
ATOM     25  C   UNL     1       1.675  -1.772  -0.081  0.00  0.00    +0.319 C 
BRANCH  25  26
ATOM     26  N   UNL     1       0.749  -0.637  -0.117  0.00  0.00    -0.211 N 
ATOM     27  C   UNL     1       1.068   0.658  -0.290  0.00  0.00    +0.223 A 
ATOM     28  N   UNL     1      -0.038   1.356  -0.261  0.00  0.00    -0.223 NA
ATOM     29  C   UNL     1      -1.079   0.546  -0.072  0.00  0.00    +0.245 A 
ATOM     30  N   UNL     1      -0.647  -0.685   0.022  0.00  0.00    -0.155 NA
ENDBRANCH  25  26
BRANCH  25  31
ATOM     31  O   UNL     1       1.422  -2.629  -1.196  0.00  0.00    -0.465 OA
BRANCH  31  32
ATOM     32  C   UNL     1       2.006  -2.293  -2.377  0.00  0.00    +0.124 A 
ATOM     33  C   UNL     1       1.771  -3.058  -3.510  0.00  0.00    +0.047 A 
ATOM     34  C   UNL     1       2.361  -2.713  -4.710  0.00  0.00    +0.023 A 
ATOM     35  C   UNL     1       3.194  -1.610  -4.780  0.00  0.00    +0.041 A 
ATOM     36  C   UNL     1       3.434  -0.849  -3.650  0.00  0.00    +0.023 A 
ATOM     37  C   UNL     1       2.841  -1.188  -2.449  0.00  0.00    +0.047 A 
ATOM     38 CL   UNL     1       3.939  -1.181  -6.288  0.00  0.00    -0.084 Cl
ENDBRANCH  31  32
ENDBRANCH  25  31
ENDBRANCH   1  25
TORSDOF 9
