REMARK  Name = ZINC36600604
REMARK  20 active torsions:
REMARK  status: ('A' for Active; 'I' for Inactive)
REMARK    1  A    between atoms: C_1  and  C_2
REMARK    2  A    between atoms: C_2  and  C_3
REMARK    3  A    between atoms: C_3  and  C_4
REMARK    4  A    between atoms: C_4  and  C_5
REMARK    5  A    between atoms: C_5  and  C_6
REMARK    6  A    between atoms: N_8  and  C_9
REMARK    7  A    between atoms: N_8  and  C_16
REMARK    8  A    between atoms: C_9  and  C_10
REMARK    9  A    between atoms: C_13  and  C_15
REMARK   10  A    between atoms: C_16  and  C_18
REMARK   11  A    between atoms: C_16  and  C_25
REMARK   12  A    between atoms: C_22  and  O_24
REMARK   13  A    between atoms: N_27  and  C_28
REMARK   14  A    between atoms: C_28  and  C_29
REMARK   15  A    between atoms: C_28  and  C_30
REMARK   16  A    between atoms: C_28  and  C_31
REMARK   17  A    between atoms: C_31  and  C_32
REMARK   18  A    between atoms: C_32  and  C_33
REMARK   19  A    between atoms: C_32  and  C_34
REMARK   20  A    between atoms: C_32  and  C_35
REMARK                            x       y       z     vdW  Elec       q    Type
REMARK                         _______ _______ _______ _____ _____    ______ ____
ROOT
ATOM      1  C   UNL     1      -2.979  -6.976  -0.172  0.00  0.00    +0.193 C 
ENDROOT
BRANCH   1   2
ATOM      2  C   UNL     1      -3.348  -7.460   1.207  0.00  0.00    -0.015 A 
ATOM      3  C   UNL     1      -4.178  -6.696   2.008  0.00  0.00    +0.006 A 
ATOM      4  C   UNL     1      -4.518  -7.137   3.273  0.00  0.00    +0.004 A 
ATOM      5  C   UNL     1      -4.029  -8.341   3.741  0.00  0.00    +0.045 A 
ATOM      6  C   UNL     1      -3.196  -9.109   2.940  0.00  0.00    +0.117 A 
ATOM      7  C   UNL     1      -2.861  -8.667   1.668  0.00  0.00    +0.051 A 
BRANCH   6   8
ATOM      8  O   UNL     1      -2.714 -10.294   3.398  0.00  0.00    -0.507 OA
ATOM      9  H   UNL     1      -3.279 -11.053   3.197  0.00  0.00    +0.292 HD
ENDBRANCH   6   8
ENDBRANCH   1   2
BRANCH   1  10
ATOM     10  C   UNL     1      -4.094  -7.301  -1.132  0.00  0.00    +0.239 C 
ATOM     11  O   UNL     1      -4.377  -6.522  -2.018  0.00  0.00    -0.273 OA
ATOM     12  N   UNL     1      -4.776  -8.456  -1.008  0.00  0.00    -0.308 N 
ATOM     13  H   UNL     1      -4.590  -9.052  -0.265  0.00  0.00    +0.149 HD
BRANCH  12  14
ATOM     14  C   UNL     1      -5.799  -8.813  -1.994  0.00  0.00    +0.030 C 
ATOM     15  C   UNL     1      -7.063  -7.989  -1.739  0.00  0.00    +0.031 C 
ATOM     16  C   UNL     1      -5.275  -8.521  -3.401  0.00  0.00    +0.031 C 
BRANCH  14  17
ATOM     17  C   UNL     1      -6.128 -10.303  -1.871  0.00  0.00    +0.031 C 
BRANCH  17  18
ATOM     18  C   UNL     1      -4.837 -11.093  -1.646  0.00  0.00    -0.036 C 
ATOM     19  C   UNL     1      -4.509 -11.117  -0.152  0.00  0.00    +0.010 C 
ATOM     20  C   UNL     1      -5.022 -12.525  -2.151  0.00  0.00    +0.010 C 
ATOM     21  C   UNL     1      -3.691 -10.427  -2.409  0.00  0.00    +0.010 C 
ENDBRANCH  17  18
ENDBRANCH  14  17
ENDBRANCH  12  14
ENDBRANCH   1  10
BRANCH   1  24
ATOM     22  C   UNL     1      -1.553  -5.030   0.168  0.00  0.00    +0.217 C 
ATOM     23  O   UNL     1      -0.636  -5.782   0.419  0.00  0.00    -0.276 OA
ATOM     24  N   UNL     1      -2.768  -5.527  -0.141  0.00  0.00    -0.279 N 
BRANCH  22  25
ATOM     25  C   UNL     1      -1.336  -3.539   0.200  0.00  0.00    +0.096 C 
BRANCH  25  26
ATOM     26  C   UNL     1       0.118  -3.244   0.574  0.00  0.00    +0.009 C 
BRANCH  26  27
ATOM     27  C   UNL     1       0.339  -1.730   0.606  0.00  0.00    +0.000 C 
BRANCH  27  29
ATOM     28  C   UNL     1       2.014   0.079   1.012  0.00  0.00    +0.004 C 
ATOM     29  C   UNL     1       1.793  -1.435   0.980  0.00  0.00    -0.003 C 
ENDBRANCH  27  29
ENDBRANCH  26  27
ENDBRANCH  25  26
ENDBRANCH  22  25
BRANCH  24  30
ATOM     30  C   UNL     1      -3.876  -4.618  -0.445  0.00  0.00    +0.183 C 
BRANCH  30  31
ATOM     31  C   UNL     1      -3.669  -4.013  -1.809  0.00  0.00    +0.122 A 
ATOM     32  C   UNL     1      -4.380  -4.300  -2.914  0.00  0.00    +0.046 A 
ATOM     33  C   UNL     1      -3.852  -3.509  -3.959  0.00  0.00    +0.045 A 
ATOM     34  C   UNL     1      -2.849  -2.784  -3.431  0.00  0.00    +0.102 A 
ATOM     35  O   UNL     1      -2.746  -3.089  -2.127  0.00  0.00    -0.463 OA
ATOM     36  C   UNL     1      -1.990  -1.794  -4.174  0.00  0.00    +0.086 C 
ENDBRANCH  30  31
ENDBRANCH  24  30
ENDBRANCH   1  24
TORSDOF 13
