REMARK  Name = ZINC31576825
REMARK  9 active torsions:
REMARK  status: ('A' for Active; 'I' for Inactive)
REMARK    1  A    between atoms: C_1  and  C_2
REMARK    2  A    between atoms: N_5  and  S_8
REMARK    3  A    between atoms: S_8  and  C_11
REMARK    4  A    between atoms: C_14  and  N_20
REMARK    5  A    between atoms: C_15  and  N_17
REMARK    6  A    between atoms: N_20  and  C_21
REMARK    7  A    between atoms: C_21  and  C_22
REMARK    8  A    between atoms: C_22  and  N_23
REMARK    9  A    between atoms: N_26  and  C_29
REMARK                            x       y       z     vdW  Elec       q    Type
REMARK                         _______ _______ _______ _____ _____    ______ ____
ROOT
ATOM      1  C   UNL     1       2.048   4.315  -3.398  0.00  0.00    +0.108 A 
ATOM      2  C   UNL     1       3.370   3.914  -3.463  0.00  0.00    +0.030 A 
ATOM      3  C   UNL     1       3.820   3.186  -4.547  0.00  0.00    +0.027 A 
ATOM      4  C   UNL     1       2.946   2.866  -5.578  0.00  0.00    +0.058 A 
ATOM      5  C   UNL     1       1.620   3.275  -5.512  0.00  0.00    +0.149 A 
ATOM      6  C   UNL     1       1.175   3.998  -4.422  0.00  0.00    +0.063 A 
ENDROOT
BRANCH   1   7
ATOM      7  S   UNL     1       1.477   5.237  -2.010  0.00  0.00    +0.061 S 
ATOM      8  O   UNL     1       0.337   5.965  -2.447  0.00  0.00    -0.153 OA
ATOM      9  O   UNL     1       2.616   5.873  -1.447  0.00  0.00    -0.153 OA
BRANCH   7  14
ATOM     10  C   UNL     1       0.289   0.090   0.222  0.00  0.00    +0.007 C 
ATOM     11  C   UNL     1       0.345   1.619   0.235  0.00  0.00    -0.012 C 
ATOM     12  C   UNL     1      -0.491   2.170  -0.922  0.00  0.00    +0.020 C 
ATOM     13  C   UNL     1      -0.461   3.701  -0.884  0.00  0.00    +0.110 C 
ATOM     14  N   UNL     1       0.939   4.147  -0.885  0.00  0.00    -0.177 NA
ATOM     15  C   UNL     1       1.853   3.608   0.131  0.00  0.00    +0.110 C 
ATOM     16  C   UNL     1       1.797   2.078   0.082  0.00  0.00    +0.020 C 
ENDBRANCH   7  14
ENDBRANCH   1   7
BRANCH   5  17
ATOM     17  N   UNL     1       0.685   2.936  -6.608  0.00  0.00    +0.058 N 
ATOM     18  O   UNL     1      -0.500   3.196  -6.500  0.00  0.00    -0.126 OA
ATOM     19  O   UNL     1       1.101   2.396  -7.618  0.00  0.00    -0.126 OA
ENDBRANCH   5  17
BRANCH   4  20
ATOM     20  N   UNL     1       3.399   2.134  -6.678  0.00  0.00    -0.344 N 
ATOM     21  H   UNL     1       2.733   1.962  -7.536  0.00  0.00    +0.146 HD
BRANCH  20  22
ATOM     22  C   UNL     1       4.761   1.595  -6.688  0.00  0.00    +0.083 C 
BRANCH  22  23
ATOM     23  C   UNL     1       5.001   0.841  -7.998  0.00  0.00    -0.060 C 
BRANCH  23  24
ATOM     24  N   UNL     1       6.367   0.301  -8.009  0.00  0.00    +0.383 N 
ATOM     25  C   UNL     1       7.361   1.383  -8.044  0.00  0.00    -0.060 C 
ATOM     26  C   UNL     1       8.768   0.782  -7.974  0.00  0.00    +0.086 C 
ATOM     27  N   UNL     1       8.959  -0.142  -9.100  0.00  0.00    -0.333 N 
ATOM     28  C   UNL     1       7.965  -1.224  -9.064  0.00  0.00    +0.086 C 
ATOM     29  C   UNL     1       6.559  -0.624  -9.134  0.00  0.00    -0.060 C 
ATOM     30  H   UNL     1       6.513  -0.264  -7.076  0.00  0.00    -0.082 HD
BRANCH  27  31
ATOM     31  C   UNL     1      10.258  -0.656  -9.110  0.00  0.00    +0.030 A 
ATOM     32  C   UNL     1      10.463  -2.030  -9.081  0.00  0.00    +0.023 A 
ATOM     33  C   UNL     1      11.749  -2.534  -9.096  0.00  0.00    +0.002 A 
ATOM     34  C   UNL     1      12.831  -1.674  -9.129  0.00  0.00    +0.000 A 
ATOM     35  C   UNL     1      12.630  -0.306  -9.153  0.00  0.00    +0.002 A 
ATOM     36  C   UNL     1      11.347   0.205  -9.143  0.00  0.00    +0.023 A 
ENDBRANCH  27  31
ENDBRANCH  23  24
ENDBRANCH  22  23
ENDBRANCH  20  22
ENDBRANCH   4  20
TORSDOF 8
