REMARK  Name = ZINC07238116
REMARK  9 active torsions:
REMARK  status: ('A' for Active; 'I' for Inactive)
REMARK    1  A    between atoms: C_1  and  C_2
REMARK    2  A    between atoms: C_2  and  C_4
REMARK    3  A    between atoms: C_2  and  S_11
REMARK    4  A    between atoms: S_11  and  C_12
REMARK    5  A    between atoms: N_22  and  C_23
REMARK    6  A    between atoms: C_23  and  C_24
REMARK    7  A    between atoms: C_24  and  C_25
REMARK    8  A    between atoms: C_25  and  C_26
REMARK    9  A    between atoms: C_25  and  C_27
REMARK                            x       y       z     vdW  Elec       q    Type
REMARK                         _______ _______ _______ _____ _____    ______ ____
ROOT
ATOM      1  C   UNL     1      -2.365  -0.093  -1.525  0.00  0.00    +0.173 A 
ATOM      2  N   UNL     1      -1.593   0.592  -2.333  0.00  0.00    -0.223 NA
ATOM      3  C   UNL     1      -2.040   1.035  -3.531  0.00  0.00    +0.080 A 
ATOM      4  C   UNL     1      -1.219   1.766  -4.395  0.00  0.00    +0.048 A 
ATOM      5  C   UNL     1      -1.718   2.196  -5.605  0.00  0.00    +0.043 A 
ATOM      6  C   UNL     1      -3.027   1.913  -5.976  0.00  0.00    +0.021 A 
ATOM      7  C   UNL     1      -3.849   1.200  -5.149  0.00  0.00    +0.017 A 
ATOM      8  C   UNL     1      -3.370   0.752  -3.918  0.00  0.00    +0.065 A 
ATOM      9  C   UNL     1      -4.212  -0.018  -2.993  0.00  0.00    +0.262 A 
ATOM     10  O   UNL     1      -5.365  -0.293  -3.270  0.00  0.00    -0.267 OA
ATOM     11  N   UNL     1      -3.658  -0.414  -1.824  0.00  0.00    -0.287 N 
ATOM     12 CL   UNL     1      -0.699   3.104  -6.678  0.00  0.00    -0.083 Cl
ENDROOT
BRANCH   1  13
ATOM     13  S   UNL     1      -1.700  -0.632   0.015  0.00  0.00    -0.075 S 
BRANCH  13  15
ATOM     14  C   UNL     1      -0.019   1.526   0.010  0.00  0.00    +0.029 C 
ATOM     15  C   UNL     1       0.002  -0.004   0.002  0.00  0.00    +0.137 C 
BRANCH  15  16
ATOM     16  C   UNL     1       0.731  -0.503   1.223  0.00  0.00    +0.229 C 
ATOM     17  O   UNL     1       0.105  -0.891   2.187  0.00  0.00    -0.274 OA
ATOM     18  N   UNL     1       2.079  -0.519   1.244  0.00  0.00    -0.301 N 
ATOM     19  C   UNL     1       2.958  -0.073   0.153  0.00  0.00    +0.108 C 
ATOM     20  C   UNL     1       4.412  -0.300   0.615  0.00  0.00    +0.020 C 
ATOM     21  C   UNL     1       4.263  -1.384   1.715  0.00  0.00    +0.020 C 
ATOM     22  C   UNL     1       2.915  -0.979   2.367  0.00  0.00    +0.108 C 
ENDBRANCH  15  16
ENDBRANCH  13  15
ENDBRANCH   1  13
BRANCH  11  23
ATOM     23  C   UNL     1      -4.453  -1.189  -0.869  0.00  0.00    +0.127 C 
BRANCH  23  24
ATOM     24  C   UNL     1      -5.177  -0.236   0.084  0.00  0.00    +0.025 C 
BRANCH  24  25
ATOM     25  C   UNL     1      -6.008  -1.045   1.082  0.00  0.00    -0.016 C 
ATOM     26  C   UNL     1      -5.076  -1.873   1.968  0.00  0.00    +0.007 C 
ATOM     27  C   UNL     1      -6.828  -0.092   1.954  0.00  0.00    +0.007 C 
ENDBRANCH  24  25
ENDBRANCH  23  24
ENDBRANCH  11  23
TORSDOF 6
