REMARK  Name = ZINC05130782
REMARK  4 active torsions:
REMARK  status: ('A' for Active; 'I' for Inactive)
REMARK    1  A    between atoms: C_1  and  C_2
REMARK    2  A    between atoms: C_2  and  C_3
REMARK    3  A    between atoms: C_2  and  C_4
REMARK    4  A    between atoms: C_2  and  C_5
REMARK                            x       y       z     vdW  Elec       q    Type
REMARK                         _______ _______ _______ _____ _____    ______ ____
ROOT
ATOM      1  C   UNL     1       0.718  -0.497  -1.257  0.00  0.00    -0.000 C 
ATOM      2  C   UNL     1       0.748  -2.029  -1.264  0.00  0.00    +0.009 C 
ATOM      3  C   UNL     1       1.239  -2.533  -2.620  0.00  0.00    +0.037 C 
ATOM      4  C   UNL     1       2.560  -1.847  -2.959  0.00  0.00    -0.023 A 
ATOM      5  C   UNL     1       2.925  -0.709  -2.326  0.00  0.00    -0.004 A 
ATOM      6  S   UNL     1       4.499  -0.273  -3.021  0.00  0.00    -0.075 S 
ATOM      7  C   UNL     1       4.665  -1.615  -4.156  0.00  0.00    +0.092 A 
ATOM      8  C   UNL     1       3.483  -2.363  -3.956  0.00  0.00    +0.073 A 
ATOM      9  C   UNL     1       3.314  -3.546  -4.748  0.00  0.00    +0.261 A 
ATOM     10  O   UNL     1       2.329  -4.256  -4.648  0.00  0.00    -0.267 OA
ATOM     11  N   UNL     1       4.316  -3.824  -5.615  0.00  0.00    -0.302 N 
ATOM     12  H   UNL     1       4.256  -4.715  -6.257  0.00  0.00    +0.171 HD
ATOM     13  C   UNL     1       5.424  -3.043  -5.744  0.00  0.00    +0.159 A 
ATOM     14  N   UNL     1       5.612  -1.943  -5.026  0.00  0.00    -0.329 N 
ATOM     15  S   UNL     1       6.658  -3.512  -6.910  0.00  0.00    -0.013 S 
ATOM     16  C   UNL     1       2.162   0.025  -1.267  0.00  0.00    +0.046 C 
ATOM     17  H   UNL     1       6.507  -1.312  -5.130  0.00  0.00    +0.168 HD
ENDROOT
BRANCH   1  19
ATOM     18  C   UNL     1      -0.019   1.526   0.010  0.00  0.00    +0.011 C 
ATOM     19  C   UNL     1       0.002  -0.004   0.002  0.00  0.00    -0.035 C 
ATOM     20  C   UNL     1       0.742  -0.511   1.242  0.00  0.00    +0.011 C 
ATOM     21  C   UNL     1      -1.433  -0.534   0.013  0.00  0.00    +0.011 C 
ENDBRANCH   1  19
TORSDOF 1
