REMARK  Name = ZINC36153067
REMARK  5 active torsions:
REMARK  status: ('A' for Active; 'I' for Inactive)
REMARK    1  A    between atoms: C_1  and  C_2
REMARK    2  A    between atoms: C_2  and  C_3
REMARK    3  A    between atoms: C_2  and  C_4
REMARK    4  A    between atoms: C_2  and  C_5
REMARK    5  A    between atoms: C_11  and  C_15
REMARK                            x       y       z     vdW  Elec       q    Type
REMARK                         _______ _______ _______ _____ _____    ______ ____
ROOT
ATOM      1  C   UNL     1       0.597  -0.491  -1.294  0.00  0.00    +0.157 A 
ATOM      2  N   UNL     1      -0.023  -1.167  -2.224  0.00  0.00    -0.131 NA
ATOM      3  N   UNL     1       0.779  -1.415  -3.203  0.00  0.00    -0.121 NA
ATOM      4  C   UNL     1       1.945  -0.907  -2.942  0.00  0.00    +0.209 A 
ATOM      5  N   UNL     1       1.881  -0.303  -1.715  0.00  0.00    -0.224 N 
ATOM      6  N   UNL     1       2.895   0.324  -1.068  0.00  0.00    -0.273 N 
ATOM      7  C   UNL     1       3.948   0.847  -1.936  0.00  0.00    +0.128 C 
ATOM      8  C   UNL     1       4.631  -0.288  -2.715  0.00  0.00    +0.106 C 
ATOM      9  S   UNL     1       3.417  -0.921  -3.922  0.00  0.00    -0.082 S 
ATOM     10  H   UNL     1       2.542   1.044  -0.454  0.00  0.00    +0.167 HD
ENDROOT
BRANCH   7  11
ATOM     11  C   UNL     1       4.977   1.557  -1.095  0.00  0.00    -0.025 A 
ATOM     12  C   UNL     1       5.362   1.025   0.122  0.00  0.00    +0.008 A 
ATOM     13  C   UNL     1       6.305   1.675   0.894  0.00  0.00    +0.038 A 
ATOM     14  C   UNL     1       6.866   2.860   0.449  0.00  0.00    +0.123 A 
ATOM     15  C   UNL     1       6.480   3.393  -0.770  0.00  0.00    +0.038 A 
ATOM     16  C   UNL     1       5.540   2.738  -1.543  0.00  0.00    +0.008 A 
ATOM     17  F   UNL     1       7.788   3.497   1.203  0.00  0.00    -0.205 F 
ENDBRANCH   7  11
BRANCH   1  19
ATOM     18  C   UNL     1      -0.036   1.526   0.003  0.00  0.00    +0.019 C 
ATOM     19  C   UNL     1       0.002  -0.004   0.002  0.00  0.00    +0.024 C 
ATOM     20  C   UNL     1       0.858  -0.493   1.172  0.00  0.00    +0.019 C 
ATOM     21  C   UNL     1      -1.420  -0.550   0.147  0.00  0.00    +0.019 C 
ENDBRANCH   1  19
TORSDOF 2
