REMARK  Name = ZINC66671550
REMARK  9 active torsions:
REMARK  status: ('A' for Active; 'I' for Inactive)
REMARK    1  A    between atoms: C_1  and  C_2
REMARK    2  A    between atoms: C_4  and  S_20
REMARK    3  A    between atoms: C_7  and  N_8
REMARK    4  A    between atoms: N_11  and  C_12
REMARK    5  A    between atoms: C_12  and  C_13
REMARK    6  A    between atoms: C_14  and  C_19
REMARK    7  A    between atoms: C_17  and  C_18
REMARK    8  A    between atoms: S_20  and  C_21
REMARK    9  A    between atoms: C_23  and  C_26
REMARK                            x       y       z     vdW  Elec       q    Type
REMARK                         _______ _______ _______ _____ _____    ______ ____
ROOT
ATOM      1  C   UNL     1      -0.044   1.494   0.006  0.00  0.00    +0.046 C 
ATOM      2  C   UNL     1       0.013  -0.012   0.003  0.00  0.00    -0.028 A 
ATOM      3  C   UNL     1       0.038  -0.699  -1.195  0.00  0.00    +0.020 A 
ATOM      4  C   UNL     1       0.091  -2.087  -1.198  0.00  0.00    +0.015 A 
ATOM      5  C   UNL     1       0.119  -2.783   0.004  0.00  0.00    +0.017 A 
ATOM      6  C   UNL     1       0.094  -2.096   1.201  0.00  0.00    +0.025 A 
ATOM      7  C   UNL     1       0.047  -0.708   1.204  0.00  0.00    +0.038 A 
ENDROOT
BRANCH   7   8
ATOM      8  N   UNL     1       0.027  -0.010   2.419  0.00  0.00    -0.269 N 
ATOM      9  C   UNL     1      -0.453  -0.604   3.529  0.00  0.00    +0.304 C 
ATOM     10  O   UNL     1      -0.801  -1.768   3.494  0.00  0.00    -0.252 OA
ATOM     11  N   UNL     1      -0.546   0.092   4.679  0.00  0.00    -0.295 N 
ATOM     12  H   UNL     1       0.359   0.901   2.461  0.00  0.00    +0.156 HD
ATOM     13  H   UNL     1      -0.269   1.022   4.708  0.00  0.00    +0.151 HD
BRANCH  11  14
ATOM     14  C   UNL     1      -1.068  -0.553   5.887  0.00  0.00    +0.146 C 
BRANCH  14  15
ATOM     15  C   UNL     1      -1.068   0.435   7.024  0.00  0.00    +0.034 A 
ATOM     16  C   UNL     1      -0.012   0.656   7.926  0.00  0.00    +0.085 A 
ATOM     17  N   UNL     1      -0.384   1.582   8.764  0.00  0.00    -0.083 NA
ATOM     18  O   UNL     1      -1.698   1.981   8.419  0.00  0.00    -0.359 OA
ATOM     19  C   UNL     1      -2.079   1.263   7.351  0.00  0.00    +0.139 A 
ATOM     20  C   UNL     1      -3.406   1.364   6.644  0.00  0.00    +0.089 C 
ATOM     21  C   UNL     1       1.317  -0.053   7.923  0.00  0.00    +0.069 C 
ENDBRANCH  14  15
ENDBRANCH  11  14
ENDBRANCH   7   8
BRANCH   4  22
ATOM     22  S   UNL     1       0.122  -2.964  -2.726  0.00  0.00    -0.063 S 
BRANCH  22  23
ATOM     23  C   UNL     1       1.826  -2.982  -3.172  0.00  0.00    +0.139 A 
ATOM     24  N   UNL     1       2.399  -3.589  -4.191  0.00  0.00    -0.238 NA
ATOM     25  C   UNL     1       3.702  -3.505  -4.390  0.00  0.00    +0.047 A 
ATOM     26  C   UNL     1       4.415  -2.771  -3.501  0.00  0.00    +0.070 A 
ATOM     27  S   UNL     1       3.117  -2.224  -2.403  0.00  0.00    -0.069 S 
ATOM     28  C   UNL     1       4.367  -4.195  -5.553  0.00  0.00    +0.066 C 
ENDBRANCH  22  23
ENDBRANCH   4  22
TORSDOF 5
