REMARK  Name = ZINC54836451
REMARK  7 active torsions:
REMARK  status: ('A' for Active; 'I' for Inactive)
REMARK    1  A    between atoms: C_1  and  C_2
REMARK    2  A    between atoms: C_3  and  C_16
REMARK    3  A    between atoms: C_4  and  C_15
REMARK    4  A    between atoms: C_6  and  C_8
REMARK    5  A    between atoms: C_16  and  C_17
REMARK    6  A    between atoms: C_17  and  C_18
REMARK    7  A    between atoms: C_18  and  N_19
REMARK                            x       y       z     vdW  Elec       q    Type
REMARK                         _______ _______ _______ _____ _____    ______ ____
ROOT
ATOM      1  C   UNL     1      -0.018   1.503   0.010  0.00  0.00    +0.066 C 
ATOM      2  C   UNL     1       0.002  -0.004   0.002  0.00  0.00    +0.045 A 
ATOM      3  C   UNL     1       0.006  -0.699  -1.198  0.00  0.00    -0.005 A 
ATOM      4  C   UNL     1       0.025  -2.086  -1.161  0.00  0.00    +0.045 A 
ATOM      5  N   UNL     1       0.039  -2.700   0.009  0.00  0.00    -0.232 NA
ATOM      6  C   UNL     1       0.035  -2.005   1.139  0.00  0.00    +0.160 A 
ATOM      7  N   UNL     1       0.022  -0.679   1.138  0.00  0.00    -0.232 NA
ATOM      8  C   UNL     1       0.029  -2.882  -2.440  0.00  0.00    +0.066 C 
ENDROOT
BRANCH   6   9
ATOM      9  C   UNL     1       0.050  -2.728   2.433  0.00  0.00    +0.019 A 
ATOM     10  C   UNL     1       0.075  -4.122   2.456  0.00  0.00    +0.012 A 
ATOM     11  C   UNL     1       0.090  -4.790   3.663  0.00  0.00    +0.016 A 
ATOM     12  C   UNL     1       0.080  -4.079   4.851  0.00  0.00    +0.018 A 
ATOM     13  C   UNL     1       0.056  -2.695   4.834  0.00  0.00    +0.016 A 
ATOM     14  C   UNL     1       0.046  -2.017   3.632  0.00  0.00    +0.012 A 
ATOM     15 BR   UNL     1       0.100  -5.001   6.501  0.00  0.00    -0.050 Br
ENDBRANCH   6   9
BRANCH   3  16
ATOM     16  C   UNL     1      -0.011   0.036  -2.514  0.00  0.00    +0.037 C 
BRANCH  16  17
ATOM     17  C   UNL     1       1.426   0.304  -2.966  0.00  0.00    -0.015 C 
BRANCH  17  18
ATOM     18  C   UNL     1       1.409   1.051  -4.301  0.00  0.00    -0.086 C 
BRANCH  18  19
ATOM     19  N   UNL     1       2.789   1.309  -4.735  0.00  0.00    +0.378 N 
ATOM     20  H   UNL     1       3.260   1.870  -4.042  0.00  0.00    -0.090 HD
ATOM     21  H   UNL     1       3.276   0.432  -4.846  0.00  0.00    -0.090 HD
ATOM     22  H   UNL     1       2.778   1.801  -5.616  0.00  0.00    -0.090 HD
ENDBRANCH  18  19
ENDBRANCH  17  18
ENDBRANCH  16  17
ENDBRANCH   3  16
TORSDOF 5
