REMARK  Name = ZINC59404956
REMARK  13 active torsions:
REMARK  status: ('A' for Active; 'I' for Inactive)
REMARK    1  A    between atoms: C_1  and  C_2
REMARK    2  A    between atoms: C_2  and  C_3
REMARK    3  A    between atoms: C_3  and  N_4
REMARK    4  A    between atoms: N_4  and  C_5
REMARK    5  A    between atoms: N_4  and  C_15
REMARK    6  A    between atoms: C_5  and  C_6
REMARK    7  A    between atoms: N_8  and  C_9
REMARK    8  A    between atoms: N_8  and  C_10
REMARK    9  A    between atoms: C_10  and  C_11
REMARK   10  A    between atoms: C_10  and  C_12
REMARK   11  A    between atoms: C_10  and  C_13
REMARK   12  A    between atoms: C_15  and  C_17
REMARK   13  A    between atoms: C_15  and  C_18
REMARK                            x       y       z     vdW  Elec       q    Type
REMARK                         _______ _______ _______ _____ _____    ______ ____
ROOT
ATOM      1  N   UNL     1      -1.339  -1.957   0.096  0.00  0.00    +0.390 N 
ATOM      2  H   UNL     1      -0.744  -2.253  -0.664  0.00  0.00    -0.080 HD
ENDROOT
BRANCH   1   3
ATOM      3  C   UNL     1      -0.754  -2.390   1.372  0.00  0.00    -0.040 C 
ATOM      4  C   UNL     1      -0.504  -3.899   1.333  0.00  0.00    -0.008 C 
BRANCH   3   5
ATOM      5  C   UNL     1       0.551  -1.670   1.596  0.00  0.00    -0.060 A 
ATOM      6  C   UNL     1       1.480  -1.589   0.575  0.00  0.00    +0.003 A 
ATOM      7  C   UNL     1       2.677  -0.930   0.779  0.00  0.00    +0.021 A 
ATOM      8  C   UNL     1       2.947  -0.350   2.006  0.00  0.00    +0.059 A 
ATOM      9  C   UNL     1       2.017  -0.430   3.028  0.00  0.00    +0.059 A 
ATOM     10  C   UNL     1       0.817  -1.087   2.820  0.00  0.00    +0.023 A 
ATOM     11 CL   UNL     1       2.354   0.296   4.568  0.00  0.00    -0.082 Cl
ATOM     12 CL   UNL     1       4.451   0.478   2.264  0.00  0.00    -0.082 Cl
ENDBRANCH   3   5
ENDBRANCH   1   3
BRANCH   1  13
ATOM     13  C   UNL     1      -1.458  -0.493   0.083  0.00  0.00    -0.078 C 
BRANCH  13  15
ATOM     14  C   UNL     1      -2.353   1.489   1.313  0.00  0.00    +0.002 C 
ATOM     15  C   UNL     1      -2.304  -0.040   1.274  0.00  0.00    -0.022 C 
ENDBRANCH  13  15
ENDBRANCH   1  13
BRANCH   1  16
ATOM     16  C   UNL     1      -2.670  -2.558  -0.062  0.00  0.00    +0.020 C 
BRANCH  16  17
ATOM     17  C   UNL     1      -3.219  -2.215  -1.423  0.00  0.00    +0.200 C 
ATOM     18  O   UNL     1      -2.565  -1.536  -2.186  0.00  0.00    -0.278 OA
ATOM     19  N   UNL     1      -4.436  -2.662  -1.791  0.00  0.00    -0.288 N 
ATOM     20  C   UNL     1      -5.225  -3.482  -0.868  0.00  0.00    +0.133 C 
BRANCH  19  21
ATOM     21  C   UNL     1      -4.969  -2.328  -3.114  0.00  0.00    +0.118 C 
ATOM     22  C   UNL     1      -5.076  -0.808  -3.252  0.00  0.00    +0.048 C 
ATOM     23  C   UNL     1      -4.032  -2.873  -4.194  0.00  0.00    +0.048 C 
BRANCH  21  24
ATOM     24  C   UNL     1      -6.303  -2.930  -3.271  0.00  0.00    +0.088 C 
ATOM     25  N   UNL     1      -7.332  -3.395  -3.393  0.00  0.00    -0.194 NA
ENDBRANCH  21  24
ENDBRANCH  19  21
ENDBRANCH  16  17
ENDBRANCH   1  16
TORSDOF 8
