REMARK  Name = ZINC00499888
REMARK  7 active torsions:
REMARK  status: ('A' for Active; 'I' for Inactive)
REMARK    1  A    between atoms: C_1  and  C_2
REMARK    2  A    between atoms: C_2  and  C_3
REMARK    3  A    between atoms: C_2  and  C_4
REMARK    4  A    between atoms: C_2  and  C_5
REMARK    5  A    between atoms: C_12  and  N_28
REMARK    6  A    between atoms: C_13  and  C_26
REMARK    7  A    between atoms: C_14  and  C_16
REMARK                            x       y       z     vdW  Elec       q    Type
REMARK                         _______ _______ _______ _____ _____    ______ ____
ROOT
ATOM      1  C   UNL     1       0.843  -0.259  -1.290  0.00  0.00    +0.049 A 
ATOM      2  C   UNL     1       0.933  -1.532  -1.701  0.00  0.00    +0.050 A 
ATOM      3  C   UNL     1       1.637  -1.550  -2.925  0.00  0.00    +0.245 A 
ATOM      4  N   UNL     1       1.952  -0.324  -3.226  0.00  0.00    -0.135 NA
ATOM      5  N   UNL     1       1.459   0.515  -2.214  0.00  0.00    -0.277 N 
ATOM      6  H   UNL     1       1.547   1.480  -2.181  0.00  0.00    +0.189 HD
ATOM      7  O   UNL     1       1.887  -2.706  -3.597  0.00  0.00    -0.421 OA
ATOM      8  C   UNL     1       1.216  -3.808  -3.207  0.00  0.00    +0.201 C 
ATOM      9  C   UNL     1       0.520  -3.913  -2.055  0.00  0.00    +0.098 C 
ATOM     10  C   UNL     1       0.416  -2.791  -1.053  0.00  0.00    +0.102 C 
ENDROOT
BRANCH  10  11
ATOM     11  C   UNL     1       1.246  -3.116   0.162  0.00  0.00    -0.024 A 
ATOM     12  C   UNL     1       2.609  -3.167   0.088  0.00  0.00    +0.025 A 
ATOM     13  C   UNL     1       3.356  -3.469   1.224  0.00  0.00    +0.112 A 
ATOM     14  N   UNL     1       2.787  -3.711   2.380  0.00  0.00    -0.255 NA
ATOM     15  C   UNL     1       1.458  -3.676   2.521  0.00  0.00    +0.071 A 
ATOM     16  C   UNL     1       0.639  -3.369   1.406  0.00  0.00    +0.004 A 
ATOM     17  C   UNL     1      -0.756  -3.329   1.561  0.00  0.00    +0.010 A 
ATOM     18  C   UNL     1      -1.306  -3.581   2.781  0.00  0.00    +0.001 A 
ATOM     19  C   UNL     1      -0.501  -3.877   3.880  0.00  0.00    +0.002 A 
ATOM     20  C   UNL     1       0.853  -3.937   3.763  0.00  0.00    +0.028 A 
ENDBRANCH  10  11
BRANCH   1  22
ATOM     21  C   UNL     1       0.146   1.754  -0.021  0.00  0.00    +0.017 C 
ATOM     22  C   UNL     1       0.170   0.225  -0.031  0.00  0.00    +0.004 C 
ATOM     23  C   UNL     1       0.944  -0.282   1.187  0.00  0.00    +0.017 C 
ATOM     24  C   UNL     1      -1.264  -0.308   0.018  0.00  0.00    +0.017 C 
ENDBRANCH   1  22
BRANCH   8  25
ATOM     25  N   UNL     1       1.241  -4.899  -4.039  0.00  0.00    -0.328 N 
ATOM     26  H   UNL     1       1.731  -4.860  -4.875  0.00  0.00    +0.145 HD
ATOM     27  H   UNL     1       0.770  -5.709  -3.791  0.00  0.00    +0.145 HD
ENDBRANCH   8  25
BRANCH   9  28
ATOM     28  C   UNL     1      -0.150  -5.146  -1.773  0.00  0.00    +0.101 C 
ATOM     29  N   UNL     1      -0.682  -6.124  -1.548  0.00  0.00    -0.191 NA
ENDBRANCH   9  28
TORSDOF 4
