REMARK  Name = ZINC49181359
REMARK  11 active torsions:
REMARK  status: ('A' for Active; 'I' for Inactive)
REMARK    1  A    between atoms: C_1  and  C_2
REMARK    2  A    between atoms: C_2  and  C_32
REMARK    3  A    between atoms: C_3  and  C_4
REMARK    4  A    between atoms: C_4  and  C_5
REMARK    5  A    between atoms: C_6  and  O_31
REMARK    6  A    between atoms: C_8  and  O_30
REMARK    7  A    between atoms: C_18  and  O_28
REMARK    8  A    between atoms: C_19  and  O_26
REMARK    9  A    between atoms: C_22  and  O_25
REMARK   10  A    between atoms: O_26  and  C_27
REMARK   11  A    between atoms: O_28  and  C_29
REMARK                            x       y       z     vdW  Elec       q    Type
REMARK                         _______ _______ _______ _____ _____    ______ ____
ROOT
ATOM      1  C   UNL     1      -0.864  -0.562   3.381  0.00  0.00    +0.040 A 
ATOM      2  C   UNL     1      -2.185  -0.131   3.398  0.00  0.00    +0.127 A 
ATOM      3  C   UNL     1      -3.108  -0.710   4.259  0.00  0.00    +0.092 A 
ATOM      4  C   UNL     1      -2.718  -1.726   5.113  0.00  0.00    +0.134 A 
ATOM      5  C   UNL     1      -1.385  -2.164   5.102  0.00  0.00    +0.104 A 
ATOM      6  C   UNL     1      -0.454  -1.581   4.221  0.00  0.00    +0.142 A 
ATOM      7  O   UNL     1       0.838  -2.005   4.183  0.00  0.00    -0.481 OA
ATOM      8  C   UNL     1       1.099  -3.315   4.670  0.00  0.00    +0.254 C 
ATOM      9  C   UNL     1       2.591  -3.636   4.726  0.00  0.00    +0.277 C 
ATOM     10  O   UNL     1       2.732  -5.008   5.105  0.00  0.00    -0.488 OA
ATOM     11  C   UNL     1       1.969  -5.493   6.120  0.00  0.00    +0.131 A 
ATOM     12  C   UNL     1       2.290  -6.741   6.647  0.00  0.00    +0.095 A 
ATOM     13  C   UNL     1       1.538  -7.281   7.674  0.00  0.00    +0.165 A 
ATOM     14  C   UNL     1       0.454  -6.574   8.186  0.00  0.00    +0.162 A 
ATOM     15  C   UNL     1       0.136  -5.333   7.664  0.00  0.00    +0.060 A 
ATOM     16  C   UNL     1       0.891  -4.791   6.638  0.00  0.00    +0.040 A 
ATOM     17  C   UNL     1       0.551  -3.430   6.102  0.00  0.00    +0.197 C 
ATOM     18  C   UNL     1      -0.946  -3.237   6.009  0.00  0.00    +0.210 C 
ATOM     19  O   UNL     1      -1.730  -3.927   6.628  0.00  0.00    -0.288 OA
ENDROOT
BRANCH  17  20
ATOM     20  O   UNL     1       1.125  -2.414   6.927  0.00  0.00    -0.373 OA
ATOM     21  H   UNL     1       0.819  -2.433   7.844  0.00  0.00    +0.211 HD
ENDBRANCH  17  20
BRANCH  14  22
ATOM     22  O   UNL     1      -0.291  -7.103   9.195  0.00  0.00    -0.491 OA
ATOM     23  C   UNL     1      -1.389  -6.320   9.669  0.00  0.00    +0.277 C 
ENDBRANCH  14  22
BRANCH  13  24
ATOM     24  O   UNL     1       1.858  -8.500   8.184  0.00  0.00    -0.491 OA
ATOM     25  C   UNL     1       2.984  -9.168   7.610  0.00  0.00    +0.277 C 
ENDBRANCH  13  24
BRANCH   4  26
ATOM     26  O   UNL     1      -3.617  -2.294   5.955  0.00  0.00    -0.506 OA
ATOM     27  H   UNL     1      -4.079  -3.056   5.581  0.00  0.00    +0.292 HD
ENDBRANCH   4  26
BRANCH   2  28
ATOM     28  O   UNL     1      -2.576   0.867   2.566  0.00  0.00    -0.506 OA
ATOM     29  H   UNL     1      -2.892   0.560   1.705  0.00  0.00    +0.292 HD
ENDBRANCH   2  28
BRANCH   1  30
ATOM     30  C   UNL     1       0.123   0.078   2.439  0.00  0.00    +0.069 C 
BRANCH  30  33
ATOM     31  C   UNL     1      -0.166   1.491   0.016  0.00  0.00    +0.038 C 
ATOM     32  C   UNL     1      -0.072  -0.013   0.007  0.00  0.00    -0.079 C 
ATOM     33  C   UNL     1       0.121  -0.664   1.128  0.00  0.00    -0.023 C 
ATOM     34  C   UNL     1      -0.200  -0.768  -1.291  0.00  0.00    +0.038 C 
ENDBRANCH  30  33
ENDBRANCH   1  30
TORSDOF 7
