REMARK  Name = ZINC33331928
REMARK  11 active torsions:
REMARK  status: ('A' for Active; 'I' for Inactive)
REMARK    1  A    between atoms: C_1  and  C_2
REMARK    2  A    between atoms: C_5  and  N_8
REMARK    3  A    between atoms: C_9  and  C_11
REMARK    4  A    between atoms: C_11  and  C_36
REMARK    5  A    between atoms: N_23  and  C_24
REMARK    6  A    between atoms: C_24  and  C_25
REMARK    7  A    between atoms: C_25  and  C_26
REMARK    8  A    between atoms: C_26  and  N_27
REMARK    9  A    between atoms: N_27  and  C_28
REMARK   10  A    between atoms: N_27  and  C_29
REMARK   11  A    between atoms: C_29  and  C_30
REMARK                            x       y       z     vdW  Elec       q    Type
REMARK                         _______ _______ _______ _____ _____    ______ ____
ROOT
ATOM      1  C   UNL     1       1.126   3.378   0.254  0.00  0.00    +0.128 C 
ATOM      2  C   UNL     1      -0.041   4.094  -0.425  0.00  0.00    +0.157 C 
ATOM      3  N   UNL     1      -1.278   3.349  -0.169  0.00  0.00    -0.331 N 
ATOM      4  C   UNL     1      -2.563   3.790  -0.082  0.00  0.00    +0.088 A 
ATOM      5  C   UNL     1      -3.424   4.913  -0.129  0.00  0.00    +0.067 A 
ATOM      6  C   UNL     1      -4.676   4.464   0.064  0.00  0.00    +0.198 A 
ATOM      7  O   UNL     1      -4.654   3.131   0.228  0.00  0.00    -0.461 OA
ATOM      8  C   UNL     1      -3.382   2.685   0.149  0.00  0.00    +0.153 A 
ATOM      9  C   UNL     1      -2.557   1.551   0.211  0.00  0.00    +0.079 A 
ATOM     10  C   UNL     1      -1.273   1.969   0.019  0.00  0.00    +0.109 A 
ATOM     11  C   UNL     1      -0.014   1.213   0.009  0.00  0.00    +0.264 C 
ATOM     12  O   UNL     1       0.002  -0.004   0.002  0.00  0.00    -0.268 OA
ATOM     13  N   UNL     1       1.126   1.942   0.002  0.00  0.00    -0.281 N 
ATOM     14  C   UNL     1       2.437   3.972  -0.265  0.00  0.00    +0.043 C 
ENDROOT
BRANCH   1  16
ATOM     15  N   UNL     1       0.317   2.777   2.513  0.00  0.00    -0.311 N 
ATOM     16  C   UNL     1       1.041   3.611   1.741  0.00  0.00    +0.238 C 
ATOM     17  O   UNL     1       1.625   4.549   2.242  0.00  0.00    -0.273 OA
ATOM     18  H   UNL     1      -0.212   1.927   2.059  0.00  0.00    +0.149 HD
BRANCH  15  23
ATOM     19  C   UNL     1       0.153  -1.272   4.624  0.00  0.00    +0.007 C 
ATOM     20  C   UNL     1       0.151   0.232   4.905  0.00  0.00    -0.014 C 
ATOM     21  C   UNL     1      -1.054   0.878   4.218  0.00  0.00    +0.005 C 
ATOM     22  C   UNL     1      -1.055   2.382   4.499  0.00  0.00    +0.022 C 
ATOM     23  C   UNL     1       0.234   3.004   3.958  0.00  0.00    +0.073 C 
ATOM     24  C   UNL     1       1.439   2.358   4.646  0.00  0.00    +0.022 C 
ATOM     25  C   UNL     1       1.441   0.854   4.364  0.00  0.00    +0.005 C 
ENDBRANCH  15  23
ENDBRANCH   1  16
BRANCH  13  26
ATOM     26  C   UNL     1       2.399   1.268  -0.267  0.00  0.00    +0.107 C 
BRANCH  26  27
ATOM     27  C   UNL     1       2.675   1.281  -1.772  0.00  0.00    +0.000 C 
BRANCH  27  28
ATOM     28  C   UNL     1       4.004   0.577  -2.053  0.00  0.00    -0.077 C 
BRANCH  28  29
ATOM     29  N   UNL     1       4.269   0.589  -3.498  0.00  0.00    +0.381 N 
ATOM     30  C   UNL     1       3.283  -0.225  -4.221  0.00  0.00    -0.096 C 
ATOM     31  H   UNL     1       4.174   1.627  -3.850  0.00  0.00    -0.082 HD
BRANCH  29  32
ATOM     32  C   UNL     1       5.637   0.138  -3.786  0.00  0.00    -0.043 C 
BRANCH  32  33
ATOM     33  C   UNL     1       5.956   0.394  -5.236  0.00  0.00    -0.064 A 
ATOM     34  C   UNL     1       5.689  -0.576  -6.184  0.00  0.00    +0.002 A 
ATOM     35  C   UNL     1       5.977  -0.340  -7.515  0.00  0.00    +0.000 A 
ATOM     36  C   UNL     1       6.540   0.864  -7.897  0.00  0.00    +0.000 A 
ATOM     37  C   UNL     1       6.812   1.832  -6.949  0.00  0.00    +0.000 A 
ATOM     38  C   UNL     1       6.520   1.597  -5.618  0.00  0.00    +0.002 A 
ENDBRANCH  32  33
ENDBRANCH  29  32
ENDBRANCH  28  29
ENDBRANCH  27  28
ENDBRANCH  26  27
ENDBRANCH  13  26
TORSDOF 8
