REMARK  Name = ZINC27997586
REMARK  3 active torsions:
REMARK  status: ('A' for Active; 'I' for Inactive)
REMARK    1  A    between atoms: C_9  and  C_11
REMARK    2  A    between atoms: C_17  and  C_19
REMARK    3  A    between atoms: C_20  and  C_21
REMARK                            x       y       z     vdW  Elec       q    Type
REMARK                         _______ _______ _______ _____ _____    ______ ____
ROOT
ATOM      1  C   UNL     1       2.192   6.682   0.013  0.00  0.00    +0.058 C 
ATOM      2  C   UNL     1       3.467   6.602  -0.830  0.00  0.00    +0.030 C 
ATOM      3  C   UNL     1       4.147   7.975  -0.851  0.00  0.00    +0.109 C 
ATOM      4  N   UNL     1       4.366   8.415   0.534  0.00  0.00    -0.298 N 
ATOM      5  C   UNL     1       3.222   8.442   1.456  0.00  0.00    +0.109 C 
ATOM      6  C   UNL     1       2.552   7.064   1.450  0.00  0.00    +0.030 C 
ATOM      7  C   UNL     1       5.593   8.787   0.951  0.00  0.00    +0.240 C 
ATOM      8  O   UNL     1       6.550   8.670   0.207  0.00  0.00    -0.271 OA
ENDROOT
BRANCH   1  17
ATOM      9  C   UNL     1       0.001   1.070  -0.018  0.00  0.00    +0.002 A 
ATOM     10  C   UNL     1      -1.215   1.740  -0.004  0.00  0.00    +0.002 A 
ATOM     11  C   UNL     1      -1.257   3.105   0.016  0.00  0.00    +0.030 A 
ATOM     12  C   UNL     1      -0.068   3.839   0.010  0.00  0.00    +0.089 A 
ATOM     13  C   UNL     1       1.163   3.161  -0.010  0.00  0.00    +0.066 A 
ATOM     14  C   UNL     1       1.186   1.773  -0.024  0.00  0.00    +0.028 A 
ATOM     15  N   UNL     1       2.137   4.139  -0.011  0.00  0.00    -0.342 N 
ATOM     16  H   UNL     1       3.200   3.856  -0.026  0.00  0.00    +0.167 HD
ATOM     17  C   UNL     1       1.502   5.342   0.007  0.00  0.00    +0.111 A 
ATOM     18  N   UNL     1       0.213   5.167   0.020  0.00  0.00    -0.232 NA
ENDBRANCH   1  17
BRANCH   7  19
ATOM     19  C   UNL     1       5.768   9.314   2.253  0.00  0.00    +0.071 C 
ATOM     20  C   UNL     1       6.982   9.781   2.637  0.00  0.00    +0.051 C 
BRANCH  20  21
ATOM     21  C   UNL     1       7.157  10.308   3.940  0.00  0.00    +0.128 A 
ATOM     22  C   UNL     1       8.331  10.810   4.462  0.00  0.00    +0.049 A 
ATOM     23  C   UNL     1       8.042  11.221   5.772  0.00  0.00    +0.042 A 
ATOM     24  C   UNL     1       6.736  10.952   5.996  0.00  0.00    +0.195 A 
ATOM     25  O   UNL     1       6.207  10.404   4.894  0.00  0.00    -0.464 OA
ENDBRANCH  20  21
ENDBRANCH   7  19
TORSDOF 3
