REMARK  Name = ZINC37982676
REMARK  5 active torsions:
REMARK  status: ('A' for Active; 'I' for Inactive)
REMARK    1  A    between atoms: C_4  and  N_18
REMARK    2  A    between atoms: C_6  and  C_7
REMARK    3  A    between atoms: C_7  and  N_8
REMARK    4  A    between atoms: N_8  and  C_9
REMARK    5  A    between atoms: C_9  and  C_10
REMARK                            x       y       z     vdW  Elec       q    Type
REMARK                         _______ _______ _______ _____ _____    ______ ____
ROOT
ATOM      1  C   UNL     1      -1.293  -0.775   0.011  0.00  0.00    -0.047 C 
ENDROOT
BRANCH   1   7
ATOM      2  C   UNL     1      -0.017   1.378   0.010  0.00  0.00    +0.003 A 
ATOM      3  C   UNL     1       1.171   2.086   0.002  0.00  0.00    +0.018 A 
ATOM      4  C   UNL     1       2.378   1.411  -0.013  0.00  0.00    +0.048 A 
ATOM      5  C   UNL     1       2.396   0.027  -0.021  0.00  0.00    +0.140 A 
ATOM      6  C   UNL     1       1.208  -0.679  -0.013  0.00  0.00    +0.035 A 
ATOM      7  C   UNL     1       0.002  -0.004   0.002  0.00  0.00    -0.062 A 
ATOM      8 BR   UNL     1       4.003   2.378  -0.024  0.00  0.00    -0.048 Br
BRANCH   5   9
ATOM      9  N   UNL     1       3.687  -0.696  -0.037  0.00  0.00    +0.058 N 
ATOM     10  O   UNL     1       3.703  -1.905  -0.044  0.00  0.00    -0.126 OA
ATOM     11  O   UNL     1       4.726  -0.078  -0.044  0.00  0.00    -0.126 OA
ENDBRANCH   5   9
ENDBRANCH   1   7
BRANCH   1  12
ATOM     12  N   UNL     1      -1.727  -1.018  -1.371  0.00  0.00    +0.382 N 
ATOM     13  H   UNL     1      -1.864  -0.136  -1.841  0.00  0.00    -0.085 HD
ATOM     14  H   UNL     1      -1.022  -1.551  -1.857  0.00  0.00    -0.085 HD
BRANCH  12  15
ATOM     15  C   UNL     1      -2.989  -1.770  -1.363  0.00  0.00    -0.077 C 
BRANCH  15  16
ATOM     16  C   UNL     1      -3.442  -2.023  -2.802  0.00  0.00    -0.006 C 
ATOM     17  C   UNL     1      -3.805  -0.689  -3.475  0.00  0.00    +0.026 C 
ATOM     18  C   UNL     1      -4.559  -0.954  -4.800  0.00  0.00    +0.166 C 
ATOM     19  S   UNL     1      -5.372  -2.573  -4.486  0.00  0.00    -0.031 S 
ATOM     20  O   UNL     1      -4.858  -3.534  -5.397  0.00  0.00    -0.174 OA
ATOM     21  O   UNL     1      -6.777  -2.375  -4.396  0.00  0.00    -0.174 OA
ATOM     22  C   UNL     1      -4.708  -2.926  -2.804  0.00  0.00    +0.167 C 
ENDBRANCH  15  16
ENDBRANCH  12  15
ENDBRANCH   1  12
TORSDOF 5
