REMARK  Name = ZINC20528713
REMARK  11 active torsions:
REMARK  status: ('A' for Active; 'I' for Inactive)
REMARK    1  A    between atoms: C_1  and  C_2
REMARK    2  A    between atoms: C_2  and  C_30
REMARK    3  A    between atoms: C_4  and  C_6
REMARK    4  A    between atoms: C_6  and  C_21
REMARK    5  A    between atoms: N_7  and  O_8
REMARK    6  A    between atoms: O_8  and  C_9
REMARK    7  A    between atoms: C_9  and  C_10
REMARK    8  A    between atoms: C_10  and  C_12
REMARK    9  A    between atoms: C_10  and  O_20
REMARK   10  A    between atoms: C_12  and  N_13
REMARK   11  A    between atoms: N_16  and  C_19
REMARK                            x       y       z     vdW  Elec       q    Type
REMARK                         _______ _______ _______ _____ _____    ______ ____
ROOT
ATOM      1  C   UNL     1      -1.321   4.777   0.040  0.00  0.00    +0.125 C 
ATOM      2  N   UNL     1      -0.728   5.929   0.082  0.00  0.00    -0.086 NA
ENDROOT
BRANCH   1   3
ATOM      3  C   UNL     1      -0.527   3.544  -0.027  0.00  0.00    +0.154 A 
ATOM      4  C   UNL     1       0.830   3.489  -0.051  0.00  0.00    +0.059 A 
ATOM      5  C   UNL     1       1.177   2.069  -0.120  0.00  0.00    +0.021 A 
ATOM      6  C   UNL     1       2.381   1.362  -0.170  0.00  0.00    +0.011 A 
ATOM      7  C   UNL     1       2.362  -0.003  -0.231  0.00  0.00    +0.001 A 
ATOM      8  C   UNL     1       1.157  -0.690  -0.244  0.00  0.00    +0.004 A 
ATOM      9  C   UNL     1      -0.042  -0.010  -0.195  0.00  0.00    +0.047 A 
ATOM     10  C   UNL     1      -0.048   1.378  -0.132  0.00  0.00    +0.136 A 
ATOM     11  O   UNL     1      -1.034   2.295  -0.081  0.00  0.00    -0.453 OA
ENDBRANCH   1   3
BRANCH   1  15
ATOM     12  C   UNL     1      -4.708   1.825  -0.241  0.00  0.00    +0.016 C 
ATOM     13  C   UNL     1      -4.425   3.319  -0.072  0.00  0.00    -0.006 C 
ATOM     14  C   UNL     1      -3.418   3.874  -1.093  0.00  0.00    +0.021 C 
ATOM     15  C   UNL     1      -2.826   4.703   0.060  0.00  0.00    +0.046 C 
ATOM     16  C   UNL     1      -3.378   3.630   1.013  0.00  0.00    +0.021 C 
BRANCH  13  17
ATOM     17  C   UNL     1      -5.681   4.143   0.047  0.00  0.00    -0.041 A 
ATOM     18  C   UNL     1      -5.835   5.282  -0.721  0.00  0.00    +0.004 A 
ATOM     19  C   UNL     1      -6.990   6.035  -0.616  0.00  0.00    +0.000 A 
ATOM     20  C   UNL     1      -7.985   5.655   0.265  0.00  0.00    +0.000 A 
ATOM     21  C   UNL     1      -7.829   4.519   1.036  0.00  0.00    +0.000 A 
ATOM     22  C   UNL     1      -6.676   3.763   0.927  0.00  0.00    +0.004 A 
ENDBRANCH  13  17
ENDBRANCH   1  15
BRANCH   2  23
ATOM     23  O   UNL     1      -1.492   7.120   0.035  0.00  0.00    -0.391 OA
BRANCH  23  24
ATOM     24  C   UNL     1      -0.709   8.315   0.090  0.00  0.00    +0.295 C 
BRANCH  24  25
ATOM     25  C   UNL     1      -1.632   9.533   0.031  0.00  0.00    +0.168 C 
BRANCH  25  26
ATOM     26  O   UNL     1      -2.454   9.565   1.200  0.00  0.00    -0.387 OA
ATOM     27  H   UNL     1      -3.186  10.374   1.336  0.00  0.00    +0.210 HD
ENDBRANCH  25  26
BRANCH  25  28
ATOM     28  C   UNL     1      -0.790  10.809  -0.035  0.00  0.00    +0.119 C 
BRANCH  28  29
ATOM     29  N   UNL     1      -1.677  11.978  -0.091  0.00  0.00    -0.303 NA
ATOM     30  C   UNL     1      -2.440  12.001  -1.347  0.00  0.00    +0.066 C 
ATOM     31  C   UNL     1      -3.407  13.187  -1.332  0.00  0.00    -0.064 C 
ATOM     32  N   UNL     1      -2.647  14.433  -1.159  0.00  0.00    +0.379 N 
ATOM     33  C   UNL     1      -1.884  14.411   0.097  0.00  0.00    -0.064 C 
ATOM     34  C   UNL     1      -0.917  13.224   0.082  0.00  0.00    +0.066 C 
ATOM     35  C   UNL     1      -3.534  15.603  -1.214  0.00  0.00    -0.096 C 
ATOM     36  H   UNL     1      -1.932  14.513  -1.990  0.00  0.00    -0.082 HD
ENDBRANCH  28  29
ENDBRANCH  25  28
ENDBRANCH  24  25
ENDBRANCH  23  24
ENDBRANCH   2  23
TORSDOF 9
