REMARK  Name = ZINC16846895
REMARK  7 active torsions:
REMARK  status: ('A' for Active; 'I' for Inactive)
REMARK    1  A    between atoms: C_1  and  C_2
REMARK    2  A    between atoms: C_2  and  C_3
REMARK    3  A    between atoms: C_3  and  C_31
REMARK    4  A    between atoms: C_13  and  S_18
REMARK    5  A    between atoms: S_18  and  C_19
REMARK    6  A    between atoms: C_19  and  C_20
REMARK    7  A    between atoms: C_20  and  C_22
REMARK                            x       y       z     vdW  Elec       q    Type
REMARK                         _______ _______ _______ _____ _____    ______ ____
ROOT
ATOM      1  C   UNL     1      -8.835  11.253  -0.300  0.00  0.00    +0.071 C 
ATOM      2  C   UNL     1      -7.533  10.569   0.126  0.00  0.00    +0.071 C 
ATOM      3  C   UNL     1      -6.425  11.619   0.123  0.00  0.00    -0.019 A 
ATOM      4  C   UNL     1      -6.750  12.933   0.133  0.00  0.00    +0.021 A 
ATOM      5  S   UNL     1      -5.200  13.786   0.122  0.00  0.00    -0.071 S 
ATOM      6  C   UNL     1      -4.120  12.376   0.105  0.00  0.00    +0.116 A 
ATOM      7  C   UNL     1      -5.005  11.287   0.108  0.00  0.00    +0.056 A 
ATOM      8  C   UNL     1      -4.362   9.956   0.096  0.00  0.00    +0.174 A 
ATOM      9  N   UNL     1      -4.814   8.726   0.094  0.00  0.00    -0.128 NA
ATOM     10  N   UNL     1      -3.826   7.900   0.075  0.00  0.00    -0.122 NA
ATOM     11  C   UNL     1      -2.687   8.553   0.073  0.00  0.00    +0.199 A 
ATOM     12  N   UNL     1      -2.986   9.889   0.082  0.00  0.00    -0.241 N 
ATOM     13  C   UNL     1      -2.235  11.033   0.080  0.00  0.00    +0.202 A 
ATOM     14  N   UNL     1      -2.799  12.217   0.091  0.00  0.00    -0.208 NA
ATOM     15  N   UNL     1      -0.863  10.939   0.067  0.00  0.00    -0.328 N 
ATOM     16  C   UNL     1      -8.135  13.502   0.150  0.00  0.00    +0.203 C 
ATOM     17  O   UNL     1      -9.045  12.438   0.472  0.00  0.00    -0.368 OA
ATOM     18  C   UNL     1      -8.750  11.625  -1.782  0.00  0.00    +0.042 C 
ATOM     19  H   UNL     1      -0.436  10.068   0.059  0.00  0.00    +0.145 HD
ATOM     20  H   UNL     1      -0.321  11.744   0.066  0.00  0.00    +0.145 HD
ENDROOT
BRANCH   1  22
ATOM     21  C   UNL     1     -11.291  10.926  -0.625  0.00  0.00    +0.007 C 
ATOM     22  C   UNL     1     -10.007  10.293  -0.085  0.00  0.00    +0.032 C 
ENDBRANCH   1  22
BRANCH  11  23
ATOM     23  S   UNL     1      -1.075   7.842   0.053  0.00  0.00    -0.078 S 
BRANCH  23  24
ATOM     24  C   UNL     1      -1.383   6.055   0.047  0.00  0.00    +0.157 C 
BRANCH  24  25
ATOM     25  C   UNL     1      -0.069   5.318   0.031  0.00  0.00    +0.173 C 
ATOM     26  O   UNL     1       0.974   5.938   0.024  0.00  0.00    -0.291 OA
BRANCH  25  27
ATOM     27  C   UNL     1      -0.050   3.846   0.023  0.00  0.00    +0.020 A 
ATOM     28  C   UNL     1       1.168   3.159   0.008  0.00  0.00    +0.011 A 
ATOM     29  C   UNL     1       1.179   1.781   0.000  0.00  0.00    +0.002 A 
ATOM     30  C   UNL     1      -0.013   1.076   0.008  0.00  0.00    +0.020 A 
ATOM     31  C   UNL     1      -1.223   1.748   0.017  0.00  0.00    +0.042 A 
ATOM     32  C   UNL     1      -1.249   3.128   0.031  0.00  0.00    +0.031 A 
ATOM     33 CL   UNL     1      -2.711   0.854   0.019  0.00  0.00    -0.084 Cl
ENDBRANCH  25  27
ENDBRANCH  24  25
ENDBRANCH  23  24
ENDBRANCH  11  23
TORSDOF 5
