REMARK  Name = ZINC66653379
REMARK  13 active torsions:
REMARK  status: ('A' for Active; 'I' for Inactive)
REMARK    1  A    between atoms: C_1  and  C_2
REMARK    2  A    between atoms: C_5  and  N_9
REMARK    3  A    between atoms: C_6  and  C_8
REMARK    4  A    between atoms: N_9  and  C_10
REMARK    5  A    between atoms: C_10  and  N_12
REMARK    6  A    between atoms: N_12  and  N_13
REMARK    7  A    between atoms: C_14  and  C_16
REMARK    8  A    between atoms: C_16  and  C_18
REMARK    9  A    between atoms: C_16  and  N_21
REMARK   10  A    between atoms: C_18  and  C_19
REMARK   11  A    between atoms: C_18  and  C_20
REMARK   12  A    between atoms: C_22  and  O_24
REMARK   13  A    between atoms: O_24  and  C_25
REMARK                            x       y       z     vdW  Elec       q    Type
REMARK                         _______ _______ _______ _____ _____    ______ ____
ROOT
ATOM      1  N   UNL     1      -0.300  -5.929  -0.847  0.00  0.00    -0.246 N 
ATOM      2  H   UNL     1      -0.324  -6.321  -1.734  0.00  0.00    +0.172 HD
ENDROOT
BRANCH   1   3
ATOM      3  N   UNL     1      -0.250  -6.755   0.283  0.00  0.00    -0.234 N 
ATOM      4  C   UNL     1      -0.236  -8.095   0.138  0.00  0.00    +0.250 C 
ATOM      5  O   UNL     1      -0.174  -8.585  -0.970  0.00  0.00    -0.272 OA
ATOM      6  H   UNL     1      -0.226  -6.363   1.170  0.00  0.00    +0.173 HD
BRANCH   4   7
ATOM      7  C   UNL     1      -0.296  -8.985   1.353  0.00  0.00    +0.166 C 
BRANCH   7   8
ATOM      8  N   UNL     1      -0.894 -10.271   0.986  0.00  0.00    -0.270 N 
ATOM      9  C   UNL     1      -1.509 -11.020   1.924  0.00  0.00    +0.401 C 
ATOM     10  O   UNL     1      -1.568 -10.628   3.072  0.00  0.00    -0.226 OA
ATOM     11  H   UNL     1      -0.848 -10.584   0.070  0.00  0.00    +0.153 HD
BRANCH   9  12
ATOM     12  O   UNL     1      -2.059 -12.202   1.587  0.00  0.00    -0.454 OA
ATOM     13  C   UNL     1      -2.695 -12.942   2.631  0.00  0.00    +0.282 C 
ENDBRANCH   9  12
ENDBRANCH   7   8
BRANCH   7  14
ATOM     14  C   UNL     1       1.119  -9.214   1.888  0.00  0.00    +0.012 C 
ATOM     15  C   UNL     1       1.995  -9.799   0.778  0.00  0.00    +0.009 C 
ATOM     16  C   UNL     1       1.709  -7.883   2.356  0.00  0.00    +0.009 C 
ENDBRANCH   7  14
ENDBRANCH   4   7
ENDBRANCH   1   3
BRANCH   1  17
ATOM     17  C   UNL     1      -0.314  -4.589  -0.702  0.00  0.00    +0.151 C 
ATOM     18  S   UNL     1      -0.375  -3.579  -2.083  0.00  0.00    -0.017 S 
BRANCH  17  19
ATOM     19  N   UNL     1      -0.281  -4.044   0.530  0.00  0.00    -0.296 N 
ATOM     20  H   UNL     1      -0.187  -4.613   1.310  0.00  0.00    +0.154 HD
BRANCH  19  25
ATOM     21  C   UNL     1      -0.688   1.579   1.156  0.00  0.00    +0.044 C 
ATOM     22  C   UNL     1      -0.580   0.086   0.989  0.00  0.00    -0.050 A 
ATOM     23  C   UNL     1       0.291  -0.443   0.054  0.00  0.00    +0.005 A 
ATOM     24  C   UNL     1       0.393  -1.812  -0.101  0.00  0.00    +0.024 A 
ATOM     25  C   UNL     1      -0.381  -2.657   0.684  0.00  0.00    +0.036 A 
ATOM     26  C   UNL     1      -1.254  -2.123   1.622  0.00  0.00    -0.029 A 
ATOM     27  C   UNL     1      -1.347  -0.753   1.776  0.00  0.00    +0.008 A 
ATOM     28  C   UNL     1      -2.096  -3.037   2.476  0.00  0.00    +0.045 C 
ENDBRANCH  19  25
ENDBRANCH  17  19
ENDBRANCH   1  17
TORSDOF 8
