REMARK  Name = ZINC00191874
REMARK  2 active torsions:
REMARK  status: ('A' for Active; 'I' for Inactive)
REMARK    1  A    between atoms: C_8  and  C_19
REMARK    2  A    between atoms: N_10  and  C_11
REMARK                            x       y       z     vdW  Elec       q    Type
REMARK                         _______ _______ _______ _____ _____    ______ ____
ROOT
ATOM      1  C   UNL     1       1.185  -0.675  -0.049  0.00  0.00    +0.001 A 
ATOM      2  C   UNL     1       2.383   0.026  -0.063  0.00  0.00    +0.004 A 
ATOM      3  C   UNL     1       2.391   1.406  -0.048  0.00  0.00    +0.047 A 
ATOM      4  C   UNL     1       1.192   2.103  -0.018  0.00  0.00    +0.138 A 
ATOM      5  C   UNL     1      -0.022   1.391  -0.006  0.00  0.00    +0.018 A 
ATOM      6  C   UNL     1      -0.008  -0.009  -0.021  0.00  0.00    +0.011 A 
ATOM      7  C   UNL     1      -1.288   2.128   0.015  0.00  0.00    +0.030 A 
ATOM      8  C   UNL     1      -1.237   3.491  -0.243  0.00  0.00    +0.099 A 
ATOM      9  C   UNL     1       0.090   4.073  -0.523  0.00  0.00    +0.233 A 
ATOM     10  N   UNL     1       0.214   5.155  -1.260  0.00  0.00    -0.212 NA
ATOM     11  O   UNL     1       1.180   3.458   0.003  0.00  0.00    -0.437 OA
ENDROOT
BRANCH  10  12
ATOM     12  C   UNL     1       1.440   5.739  -1.418  0.00  0.00    +0.070 A 
ATOM     13  C   UNL     1       1.907   6.657  -0.473  0.00  0.00    +0.028 A 
ATOM     14  C   UNL     1       3.147   7.239  -0.634  0.00  0.00    +0.005 A 
ATOM     15  C   UNL     1       3.925   6.924  -1.734  0.00  0.00    +0.038 A 
ATOM     16  C   UNL     1       3.468   6.019  -2.679  0.00  0.00    +0.125 A 
ATOM     17  C   UNL     1       2.229   5.425  -2.526  0.00  0.00    +0.066 A 
ATOM     18  F   UNL     1       4.233   5.718  -3.750  0.00  0.00    -0.205 F 
ENDBRANCH  10  12
BRANCH   8  19
ATOM     19  C   UNL     1      -2.455   4.319  -0.241  0.00  0.00    +0.247 C 
ATOM     20  O   UNL     1      -2.380   5.511  -0.475  0.00  0.00    -0.270 OA
ATOM     21  N   UNL     1      -3.652   3.757   0.018  0.00  0.00    -0.325 N 
ATOM     22  H   UNL     1      -3.712   2.807   0.204  0.00  0.00    +0.145 HD
ATOM     23  H   UNL     1      -4.454   4.303   0.019  0.00  0.00    +0.145 HD
ENDBRANCH   8  19
TORSDOF 2
