REMARK  Name = ZINC24325284
REMARK  10 active torsions:
REMARK  status: ('A' for Active; 'I' for Inactive)
REMARK    1  A    between atoms: C_4  and  C_7
REMARK    2  A    between atoms: C_7  and  C_9
REMARK    3  A    between atoms: C_7  and  O_22
REMARK    4  A    between atoms: N_11  and  C_12
REMARK    5  A    between atoms: C_15  and  N_19
REMARK    6  A    between atoms: O_22  and  C_23
REMARK    7  A    between atoms: C_23  and  C_25
REMARK    8  A    between atoms: C_25  and  C_26
REMARK    9  A    between atoms: C_26  and  N_27
REMARK   10  A    between atoms: C_28  and  C_30
REMARK                            x       y       z     vdW  Elec       q    Type
REMARK                         _______ _______ _______ _____ _____    ______ ____
ROOT
ATOM      1  C   UNL     1      -8.383   3.683   0.082  0.00  0.00    +0.292 C 
ENDROOT
BRANCH   1   5
ATOM      2  C   UNL     1      -9.446   4.654  -3.940  0.00  0.00    +0.000 A 
ATOM      3  C   UNL     1      -9.419   5.643  -2.974  0.00  0.00    +0.000 A 
ATOM      4  C   UNL     1      -9.075   5.329  -1.673  0.00  0.00    +0.008 A 
ATOM      5  C   UNL     1      -8.758   4.026  -1.337  0.00  0.00    +0.002 A 
ATOM      6  C   UNL     1      -8.781   3.038  -2.303  0.00  0.00    +0.008 A 
ATOM      7  C   UNL     1      -9.130   3.351  -3.604  0.00  0.00    +0.000 A 
ENDBRANCH   1   5
BRANCH   1   8
ATOM      8  C   UNL     1      -9.573   3.083   0.785  0.00  0.00    +0.263 C 
ATOM      9  O   UNL     1      -9.507   1.959   1.238  0.00  0.00    -0.271 OA
ATOM     10  N   UNL     1     -10.711   3.794   0.912  0.00  0.00    -0.281 N 
ATOM     11  H   UNL     1     -10.747   4.839   0.568  0.00  0.00    +0.155 HD
BRANCH  10  12
ATOM     12  C   UNL     1     -11.845   3.205   1.481  0.00  0.00    +0.052 A 
ATOM     13  C   UNL     1     -11.708   2.279   2.507  0.00  0.00    +0.027 A 
ATOM     14  C   UNL     1     -12.830   1.699   3.067  0.00  0.00    +0.034 A 
ATOM     15  C   UNL     1     -14.089   2.038   2.607  0.00  0.00    +0.128 A 
ATOM     16  C   UNL     1     -14.230   2.959   1.585  0.00  0.00    +0.054 A 
ATOM     17  C   UNL     1     -13.112   3.548   1.025  0.00  0.00    +0.064 A 
ATOM     18 CL   UNL     1     -13.290   4.710  -0.253  0.00  0.00    -0.082 Cl
BRANCH  15  19
ATOM     19  N   UNL     1     -15.288   1.414   3.209  0.00  0.00    +0.056 N 
ATOM     20  O   UNL     1     -15.165   0.603   4.110  0.00  0.00    -0.126 OA
ATOM     21  O   UNL     1     -16.398   1.712   2.805  0.00  0.00    -0.126 OA
ENDBRANCH  15  19
ENDBRANCH  10  12
ENDBRANCH   1   8
BRANCH   1  22
ATOM     22  O   UNL     1      -7.291   2.727   0.076  0.00  0.00    -0.447 OA
BRANCH  22  23
ATOM     23  C   UNL     1      -6.044   3.225   0.083  0.00  0.00    +0.310 C 
ATOM     24  O   UNL     1      -5.872   4.421   0.093  0.00  0.00    -0.251 OA
BRANCH  23  25
ATOM     25  C   UNL     1      -4.860   2.293   0.077  0.00  0.00    +0.139 C 
BRANCH  25  26
ATOM     26  C   UNL     1      -3.567   3.111   0.086  0.00  0.00    +0.115 C 
BRANCH  26  27
ATOM     27  N   UNL     1      -2.416   2.204   0.081  0.00  0.00    -0.310 N 
ATOM     28  C   UNL     1      -1.165   2.705   0.088  0.00  0.00    +0.251 C 
ATOM     29  O   UNL     1      -0.991   3.909   0.098  0.00  0.00    -0.270 OA
ATOM     30  H   UNL     1      -2.573   1.116   0.072  0.00  0.00    +0.149 HD
BRANCH  28  31
ATOM     31  C   UNL     1      -0.013   1.798   0.082  0.00  0.00    +0.074 A 
ATOM     32  C   UNL     1       1.339   2.103   0.082  0.00  0.00    +0.021 A 
ATOM     33  C   UNL     1       2.218   1.048   0.071  0.00  0.00    +0.008 A 
ATOM     34  C   UNL     1       1.732  -0.220   0.061  0.00  0.00    +0.046 A 
ATOM     35  S   UNL     1       0.014   0.014   0.068  0.00  0.00    -0.092 S 
ENDBRANCH  28  31
ENDBRANCH  26  27
ENDBRANCH  25  26
ENDBRANCH  23  25
ENDBRANCH  22  23
ENDBRANCH   1  22
TORSDOF 10
