REMARK  Name = ZINC24641477
REMARK  8 active torsions:
REMARK  status: ('A' for Active; 'I' for Inactive)
REMARK    1  A    between atoms: C_1  and  C_2
REMARK    2  A    between atoms: C_2  and  C_3
REMARK    3  A    between atoms: C_6  and  C_9
REMARK    4  A    between atoms: C_11  and  C_14
REMARK    5  A    between atoms: N_16  and  N_17
REMARK    6  A    between atoms: C_20  and  C_24
REMARK    7  A    between atoms: C_20  and  C_26
REMARK    8  A    between atoms: C_24  and  C_25
REMARK                            x       y       z     vdW  Elec       q    Type
REMARK                         _______ _______ _______ _____ _____    ______ ____
ROOT
ATOM      1  C   UNL     1       1.847  -1.647  -0.025  0.00  0.00    +0.280 C 
ATOM      2  O   UNL     1       1.060  -2.575  -0.023  0.00  0.00    -0.267 OA
ATOM      3  N   UNL     1       3.173  -1.889  -0.039  0.00  0.00    -0.218 N 
ATOM      4  H   UNL     1       3.885  -1.050  -0.041  0.00  0.00    +0.174 HD
ENDROOT
BRANCH   3   5
ATOM      5  N   UNL     1       3.645  -3.208  -0.051  0.00  0.00    -0.137 N 
ATOM      6  C   UNL     1       4.161  -3.817  -1.136  0.00  0.00    +0.268 C 
ATOM      7  O   UNL     1       4.300  -3.345  -2.244  0.00  0.00    -0.271 OA
ATOM      8  C   UNL     1       4.533  -5.215  -0.683  0.00  0.00    +0.139 C 
ATOM      9  N   UNL     1       4.147  -5.232   0.738  0.00  0.00    -0.280 N 
ATOM     10  C   UNL     1       3.643  -4.016   1.015  0.00  0.00    +0.327 C 
ATOM     11  O   UNL     1       3.230  -3.689   2.110  0.00  0.00    -0.251 OA
ATOM     12  H   UNL     1       4.301  -6.141   1.339  0.00  0.00    +0.152 HD
BRANCH   8  13
ATOM     13  C   UNL     1       6.015  -5.445  -0.836  0.00  0.00    -0.015 A 
ATOM     14  C   UNL     1       6.514  -5.977  -2.011  0.00  0.00    +0.006 A 
ATOM     15  C   UNL     1       7.873  -6.184  -2.153  0.00  0.00    +0.000 A 
ATOM     16  C   UNL     1       8.732  -5.868  -1.117  0.00  0.00    +0.000 A 
ATOM     17  C   UNL     1       8.233  -5.341   0.059  0.00  0.00    +0.000 A 
ATOM     18  C   UNL     1       6.874  -5.130   0.199  0.00  0.00    +0.006 A 
ENDBRANCH   8  13
BRANCH   8  19
ATOM     19  C   UNL     1       3.743  -6.264  -1.469  0.00  0.00    +0.037 C 
ATOM     20  C   UNL     1       2.245  -6.040  -1.254  0.00  0.00    +0.007 C 
ENDBRANCH   8  19
ENDBRANCH   3   5
BRANCH   1  23
ATOM     21  C   UNL     1       1.745   1.995  -0.004  0.00  0.00    +0.109 A 
ATOM     22  N   UNL     1       2.200   0.756  -0.015  0.00  0.00    -0.234 NA
ATOM     23  C   UNL     1       1.351  -0.260  -0.012  0.00  0.00    +0.135 A 
ATOM     24  C   UNL     1       0.002  -0.004   0.002  0.00  0.00    +0.080 A 
ATOM     25  S   UNL     1      -0.021   1.732   0.012  0.00  0.00    -0.075 S 
BRANCH  21  29
ATOM     26  C   UNL     1       3.912   5.649  -0.007  0.00  0.00    -0.048 A 
ATOM     27  C   UNL     1       2.529   5.669   0.007  0.00  0.00    +0.004 A 
ATOM     28  C   UNL     1       1.819   4.486   0.008  0.00  0.00    +0.011 A 
ATOM     29  C   UNL     1       2.499   3.268  -0.005  0.00  0.00    +0.007 A 
ATOM     30  C   UNL     1       3.894   3.255  -0.013  0.00  0.00    +0.011 A 
ATOM     31  C   UNL     1       4.593   4.445  -0.019  0.00  0.00    +0.004 A 
BRANCH  26  33
ATOM     32  C   UNL     1       4.955   7.377   1.434  0.00  0.00    +0.009 C 
ATOM     33  C   UNL     1       4.681   6.945  -0.008  0.00  0.00    +0.032 C 
ENDBRANCH  26  33
ENDBRANCH  21  29
ENDBRANCH   1  23
TORSDOF 6
