REMARK  Name = ZINC58406440
REMARK  11 active torsions:
REMARK  status: ('A' for Active; 'I' for Inactive)
REMARK    1  A    between atoms: C_1  and  C_2
REMARK    2  A    between atoms: C_3  and  C_10
REMARK    3  A    between atoms: C_4  and  O_8
REMARK    4  A    between atoms: N_5  and  C_7
REMARK    5  A    between atoms: O_8  and  C_9
REMARK    6  A    between atoms: C_10  and  N_11
REMARK    7  A    between atoms: N_11  and  C_12
REMARK    8  A    between atoms: C_12  and  C_13
REMARK    9  A    between atoms: C_13  and  C_14
REMARK   10  A    between atoms: C_13  and  C_15
REMARK   11  A    between atoms: C_13  and  C_16
REMARK                            x       y       z     vdW  Elec       q    Type
REMARK                         _______ _______ _______ _____ _____    ______ ____
ROOT
ATOM      1  C   UNL     1       1.044   0.402  -4.478  0.00  0.00    +0.092 C 
ENDROOT
BRANCH   1   2
ATOM      2  C   UNL     1       2.452   0.661  -5.016  0.00  0.00    +0.003 C 
ATOM      3  C   UNL     1       3.140   1.722  -4.155  0.00  0.00    +0.017 C 
ATOM      4  C   UNL     1       3.262  -0.637  -4.971  0.00  0.00    +0.017 C 
BRANCH   2   5
ATOM      5  C   UNL     1       2.365   1.148  -6.439  0.00  0.00    -0.037 A 
ATOM      6  C   UNL     1       1.129   1.299  -7.042  0.00  0.00    +0.008 A 
ATOM      7  C   UNL     1       1.044   1.747  -8.347  0.00  0.00    +0.050 A 
ATOM      8  C   UNL     1       2.197   2.045  -9.055  0.00  0.00    +0.166 A 
ATOM      9  C   UNL     1       3.441   1.893  -8.448  0.00  0.00    +0.167 A 
ATOM     10  C   UNL     1       3.519   1.449  -7.138  0.00  0.00    +0.053 A 
ATOM     11  O   UNL     1       4.409   2.247  -9.343  0.00  0.00    -0.453 OA
ATOM     12  C   UNL     1       3.767   2.226 -10.632  0.00  0.00    +0.466 C 
ATOM     13  O   UNL     1       2.385   2.494 -10.330  0.00  0.00    -0.453 OA
ENDBRANCH   2   5
ENDBRANCH   1   2
BRANCH   1  14
ATOM     14  N   UNL     1       1.129  -0.073  -3.091  0.00  0.00    -0.311 NA
ATOM     15  H   UNL     1       1.637   0.582  -2.515  0.00  0.00    +0.122 HD
BRANCH  14  16
ATOM     16  C   UNL     1      -0.208  -0.332  -2.539  0.00  0.00    +0.123 C 
BRANCH  16  19
ATOM     17  C   UNL     1      -0.175   1.488   0.054  0.00  0.00    +0.068 C 
ATOM     18  C   UNL     1      -0.065  -0.015   0.027  0.00  0.00    +0.068 A 
ATOM     19  C   UNL     1      -0.080  -0.817  -1.118  0.00  0.00    +0.050 A 
ATOM     20  C   UNL     1       0.042  -2.112  -0.722  0.00  0.00    +0.217 A 
ATOM     21  N   UNL     1       0.129  -2.120   0.627  0.00  0.00    -0.236 N 
ATOM     22  N   UNL     1       0.065  -0.793   1.071  0.00  0.00    -0.173 NA
ATOM     23  C   UNL     1       0.271  -3.307   1.474  0.00  0.00    +0.176 C 
BRANCH  20  24
ATOM     24  O   UNL     1       0.069  -3.200  -1.534  0.00  0.00    -0.480 OA
ATOM     25  C   UNL     1       1.355  -3.694  -1.912  0.00  0.00    +0.279 C 
ENDBRANCH  20  24
ENDBRANCH  16  19
ENDBRANCH  14  16
ENDBRANCH   1  14
TORSDOF 6
