REMARK  Name = ZINC38631948
REMARK  11 active torsions:
REMARK  status: ('A' for Active; 'I' for Inactive)
REMARK    1  A    between atoms: C_1  and  C_2
REMARK    2  A    between atoms: C_5  and  C_13
REMARK    3  A    between atoms: C_6  and  C_12
REMARK    4  A    between atoms: N_7  and  C_8
REMARK    5  A    between atoms: C_8  and  C_9
REMARK    6  A    between atoms: C_9  and  O_10
REMARK    7  A    between atoms: O_10  and  C_11
REMARK    8  A    between atoms: C_13  and  C_15
REMARK    9  A    between atoms: C_15  and  S_16
REMARK   10  A    between atoms: S_16  and  C_17
REMARK   11  A    between atoms: C_21  and  C_23
REMARK                            x       y       z     vdW  Elec       q    Type
REMARK                         _______ _______ _______ _____ _____    ______ ____
ROOT
ATOM      1  C   UNL     1       2.470  -1.854  -3.116  0.00  0.00    +0.156 C 
ENDROOT
BRANCH   1   2
ATOM      2  C   UNL     1       2.731  -1.880  -1.632  0.00  0.00    +0.171 C 
ATOM      3  O   UNL     1       3.717  -2.442  -1.199  0.00  0.00    -0.291 OA
BRANCH   2   7
ATOM      4  C   UNL     1       0.029   1.526   0.327  0.00  0.00    +0.028 C 
ATOM      5  C   UNL     1       0.023   0.001   0.198  0.00  0.00    +0.075 C 
ATOM      6  C   UNL     1       0.633  -0.427  -1.151  0.00  0.00    +0.062 C 
ATOM      7  C   UNL     1       1.835  -1.256  -0.752  0.00  0.00    +0.014 C 
ATOM      8  C   UNL     1       1.898  -1.293   0.595  0.00  0.00    +0.010 C 
ATOM      9  N   UNL     1       0.903  -0.604   1.206  0.00  0.00    -0.328 N 
ATOM     10  C   UNL     1       2.972  -2.032   1.350  0.00  0.00    +0.061 C 
BRANCH   9  11
ATOM     11  C   UNL     1       0.730  -0.479   2.656  0.00  0.00    +0.133 C 
BRANCH  11  12
ATOM     12  C   UNL     1      -0.151  -1.622   3.165  0.00  0.00    +0.178 C 
BRANCH  12  13
ATOM     13  O   UNL     1       0.524  -2.866   2.970  0.00  0.00    -0.381 OA
ATOM     14  C   UNL     1      -0.217  -4.005   3.414  0.00  0.00    +0.194 C 
ENDBRANCH  12  13
ENDBRANCH  11  12
ENDBRANCH   9  11
ENDBRANCH   2   7
ENDBRANCH   1   2
BRANCH   1  15
ATOM     15  S   UNL     1       3.797  -2.739  -3.979  0.00  0.00    -0.079 S 
BRANCH  15  16
ATOM     16  C   UNL     1       3.353  -2.620  -5.680  0.00  0.00    +0.185 A 
ATOM     17  N   UNL     1       4.043  -3.140  -6.720  0.00  0.00    -0.253 N 
ATOM     18  H   UNL     1       4.871  -3.644  -6.673  0.00  0.00    +0.191 HD
ATOM     19  N   UNL     1       3.328  -2.806  -7.881  0.00  0.00    -0.152 NA
ATOM     20  C   UNL     1       2.274  -2.123  -7.497  0.00  0.00    +0.182 A 
ATOM     21  N   UNL     1       2.288  -2.016  -6.160  0.00  0.00    -0.201 NA
BRANCH  20  22
ATOM     22  C   UNL     1       1.233  -1.564  -8.396  0.00  0.00    +0.021 A 
ATOM     23  C   UNL     1       0.161  -0.849  -7.865  0.00  0.00    +0.013 A 
ATOM     24  C   UNL     1      -0.804  -0.332  -8.705  0.00  0.00    +0.016 A 
ATOM     25  C   UNL     1      -0.708  -0.523 -10.073  0.00  0.00    +0.018 A 
ATOM     26  C   UNL     1       0.355  -1.232 -10.605  0.00  0.00    +0.016 A 
ATOM     27  C   UNL     1       1.328  -1.749  -9.774  0.00  0.00    +0.013 A 
ATOM     28 BR   UNL     1      -2.034   0.188 -11.219  0.00  0.00    -0.050 Br
ENDBRANCH  20  22
ENDBRANCH  15  16
ENDBRANCH   1  15
TORSDOF 8
