REMARK  Name = ZINC66185816
REMARK  8 active torsions:
REMARK  status: ('A' for Active; 'I' for Inactive)
REMARK    1  A    between atoms: C_1  and  C_2
REMARK    2  A    between atoms: C_2  and  C_4
REMARK    3  A    between atoms: C_2  and  N_12
REMARK    4  A    between atoms: C_7  and  S_10
REMARK    5  A    between atoms: S_10  and  C_11
REMARK    6  A    between atoms: N_15  and  C_16
REMARK    7  A    between atoms: N_15  and  C_17
REMARK    8  A    between atoms: N_20  and  C_23
REMARK                            x       y       z     vdW  Elec       q    Type
REMARK                         _______ _______ _______ _____ _____    ______ ____
ROOT
ATOM      1  N   UNL     1       0.711  -0.489   1.189  0.00  0.00    -0.293 N 
ATOM      2  C   UNL     1       2.054  -0.600   1.174  0.00  0.00    +0.303 C 
ATOM      3  O   UNL     1       2.677  -0.297   0.175  0.00  0.00    -0.253 OA
ATOM      4  N   UNL     1       2.706  -1.046   2.266  0.00  0.00    -0.286 N 
ATOM      5  C   UNL     1       1.954  -1.411   3.469  0.00  0.00    +0.134 C 
ATOM      6  H   UNL     1       0.213  -0.731   1.986  0.00  0.00    +0.151 HD
ENDROOT
BRANCH   4   7
ATOM      7  C   UNL     1       4.166  -1.166   2.249  0.00  0.00    +0.074 C 
ATOM      8  C   UNL     1       4.563  -2.622   2.514  0.00  0.00    +0.004 C 
ATOM      9  C   UNL     1       6.088  -2.725   2.574  0.00  0.00    -0.077 C 
ATOM     10  N   UNL     1       6.598  -1.873   3.655  0.00  0.00    +0.382 N 
ATOM     11  C   UNL     1       6.283  -0.468   3.372  0.00  0.00    -0.077 C 
ATOM     12  C   UNL     1       4.765  -0.277   3.342  0.00  0.00    +0.004 C 
ATOM     13  H   UNL     1       6.168  -2.144   4.527  0.00  0.00    -0.081 HD
BRANCH  10  14
ATOM     14  C   UNL     1       8.054  -2.035   3.760  0.00  0.00    -0.064 C 
ATOM     15  C   UNL     1       8.385  -3.497   4.075  0.00  0.00    +0.013 C 
ATOM     16  C   UNL     1       9.898  -3.641   4.260  0.00  0.00    +0.158 C 
ATOM     17  O   UNL     1      10.335  -2.766   5.302  0.00  0.00    -0.380 OA
ATOM     18  C   UNL     1      10.094  -1.382   5.040  0.00  0.00    +0.158 C 
ATOM     19  C   UNL     1       8.589  -1.147   4.887  0.00  0.00    +0.013 C 
ENDBRANCH  10  14
ENDBRANCH   4   7
BRANCH   1  21
ATOM     20  C   UNL     1      -0.019   1.526   0.010  0.00  0.00    +0.033 C 
ATOM     21  C   UNL     1       0.002  -0.004   0.002  0.00  0.00    +0.102 C 
BRANCH  21  22
ATOM     22  C   UNL     1      -1.412  -0.526   0.013  0.00  0.00    -0.027 A 
ATOM     23  C   UNL     1      -2.122  -0.570   1.199  0.00  0.00    +0.006 A 
ATOM     24  C   UNL     1      -3.417  -1.048   1.212  0.00  0.00    +0.015 A 
ATOM     25  C   UNL     1      -4.008  -1.484   0.032  0.00  0.00    +0.008 A 
ATOM     26  C   UNL     1      -3.291  -1.437  -1.158  0.00  0.00    +0.015 A 
ATOM     27  C   UNL     1      -1.998  -0.953  -1.165  0.00  0.00    +0.006 A 
BRANCH  25  28
ATOM     28  S   UNL     1      -5.660  -2.095   0.045  0.00  0.00    -0.129 S 
ATOM     29  C   UNL     1      -5.980  -2.532  -1.686  0.00  0.00    +0.090 C 
ENDBRANCH  25  28
ENDBRANCH  21  22
ENDBRANCH   1  21
TORSDOF 5
