REMARK  Name = ZINC66674834
REMARK  6 active torsions:
REMARK  status: ('A' for Active; 'I' for Inactive)
REMARK    1  A    between atoms: C_1  and  C_2
REMARK    2  A    between atoms: C_2  and  N_3
REMARK    3  A    between atoms: N_3  and  C_4
REMARK    4  A    between atoms: C_10  and  C_12
REMARK    5  A    between atoms: C_13  and  C_15
REMARK    6  A    between atoms: C_17  and  C_21
REMARK                            x       y       z     vdW  Elec       q    Type
REMARK                         _______ _______ _______ _____ _____    ______ ____
ROOT
ATOM      1  N   UNL     1       0.645  -0.693  -1.261  0.00  0.00    -0.293 N 
ATOM      2  C   UNL     1       0.031  -0.159  -2.336  0.00  0.00    +0.267 C 
ATOM      3  O   UNL     1       0.666   0.069  -3.347  0.00  0.00    -0.268 OA
ENDROOT
BRANCH   1   4
ATOM      4  C   UNL     1       1.917  -0.138  -0.792  0.00  0.00    +0.079 C 
ATOM      5  C   UNL     1       3.062  -0.703  -1.635  0.00  0.00    +0.023 C 
ATOM      6  C   UNL     1       2.850  -0.324  -3.102  0.00  0.00    +0.002 C 
ATOM      7  C   UNL     1       2.821   1.200  -3.237  0.00  0.00    +0.000 C 
ATOM      8  C   UNL     1       1.676   1.765  -2.394  0.00  0.00    +0.005 C 
ATOM      9  C   UNL     1       1.888   1.386  -0.927  0.00  0.00    +0.006 C 
ATOM     10  C   UNL     1       0.743   1.951  -0.084  0.00  0.00    +0.009 C 
ENDBRANCH   1   4
BRANCH   2  11
ATOM     11  C   UNL     1      -1.413   0.149  -2.285  0.00  0.00    +0.148 A 
ATOM     12  C   UNL     1      -2.213   0.584  -3.363  0.00  0.00    +0.065 A 
ATOM     13  C   UNL     1      -3.471   0.738  -2.844  0.00  0.00    +0.101 A 
ATOM     14  N   UNL     1      -3.394   0.406  -1.522  0.00  0.00    -0.273 N 
ATOM     15  H   UNL     1      -4.138   0.422  -0.900  0.00  0.00    +0.189 HD
ATOM     16  N   UNL     1      -2.192   0.063  -1.225  0.00  0.00    -0.169 NA
BRANCH  13  17
ATOM     17  C   UNL     1      -4.674   1.179  -3.571  0.00  0.00    +0.152 A 
ATOM     18  C   UNL     1      -5.918   1.333  -3.040  0.00  0.00    +0.051 A 
ATOM     19  C   UNL     1      -6.755   1.766  -4.086  0.00  0.00    +0.042 A 
ATOM     20  C   UNL     1      -5.992   1.855  -5.193  0.00  0.00    +0.196 A 
ATOM     21  O   UNL     1      -4.734   1.505  -4.877  0.00  0.00    -0.461 OA
ENDBRANCH  13  17
ENDBRANCH   2  11
BRANCH   1  23
ATOM     22  C   UNL     1      -0.767  -1.322   0.634  0.00  0.00    +0.024 C 
ATOM     23  C   UNL     1       0.040  -1.830  -0.562  0.00  0.00    +0.105 C 
ENDBRANCH   1  23
TORSDOF 4
