REMARK  Name = ZINC39946743
REMARK  12 active torsions:
REMARK  status: ('A' for Active; 'I' for Inactive)
REMARK    1  A    between atoms: C_1  and  C_2
REMARK    2  A    between atoms: C_2  and  C_3
REMARK    3  A    between atoms: C_3  and  C_4
REMARK    4  A    between atoms: C_3  and  C_5
REMARK    5  A    between atoms: C_3  and  C_6
REMARK    6  A    between atoms: C_9  and  O_12
REMARK    7  A    between atoms: O_12  and  C_13
REMARK    8  A    between atoms: C_16  and  N_19
REMARK    9  A    between atoms: C_20  and  C_22
REMARK   10  A    between atoms: C_22  and  O_23
REMARK   11  A    between atoms: O_23  and  C_24
REMARK   12  A    between atoms: C_24  and  C_26
REMARK                            x       y       z     vdW  Elec       q    Type
REMARK                         _______ _______ _______ _____ _____    ______ ____
ROOT
ATOM      1  N   UNL     1       2.990  -8.693   5.616  0.00  0.00    -0.283 N 
ATOM      2  C   UNL     1       2.811  -8.178   6.848  0.00  0.00    +0.255 C 
ATOM      3  O   UNL     1       2.284  -7.094   6.982  0.00  0.00    -0.272 OA
ATOM      4  H   UNL     1       3.466  -9.532   5.505  0.00  0.00    +0.155 HD
ENDROOT
BRANCH   1   8
ATOM      5  C   UNL     1       1.503  -6.683   2.279  0.00  0.00    +0.129 A 
ATOM      6  C   UNL     1       1.994  -5.965   3.360  0.00  0.00    +0.048 A 
ATOM      7  C   UNL     1       2.486  -6.630   4.465  0.00  0.00    +0.027 A 
ATOM      8  C   UNL     1       2.490  -8.018   4.495  0.00  0.00    +0.034 A 
ATOM      9  C   UNL     1       1.999  -8.737   3.413  0.00  0.00    +0.027 A 
ATOM     10  C   UNL     1       1.502  -8.070   2.310  0.00  0.00    +0.048 A 
BRANCH   5  11
ATOM     11  O   UNL     1       1.018  -6.028   1.191  0.00  0.00    -0.456 OA
BRANCH  11  15
ATOM     12  C   UNL     1      -0.752  -8.267  -1.788  0.00  0.00    -0.042 A 
ATOM     13  C   UNL     1       0.434  -7.601  -2.037  0.00  0.00    +0.008 A 
ATOM     14  C   UNL     1       1.029  -6.850  -1.041  0.00  0.00    +0.046 A 
ATOM     15  C   UNL     1       0.435  -6.765   0.210  0.00  0.00    +0.128 A 
ATOM     16  C   UNL     1      -0.755  -7.434   0.457  0.00  0.00    +0.046 A 
ATOM     17  C   UNL     1      -1.349  -8.178  -0.543  0.00  0.00    +0.008 A 
BRANCH  12  18
ATOM     18  C   UNL     1      -1.399  -9.085  -2.875  0.00  0.00    -0.010 C 
ATOM     19  C   UNL     1      -2.793  -8.529  -3.172  0.00  0.00    +0.016 C 
ATOM     20  C   UNL     1      -1.517 -10.540  -2.417  0.00  0.00    +0.016 C 
BRANCH  18  22
ATOM     21  C   UNL     1      -1.199  -9.848  -5.246  0.00  0.00    +0.005 C 
ATOM     22  C   UNL     1      -0.543  -9.017  -4.142  0.00  0.00    +0.007 C 
ENDBRANCH  18  22
ENDBRANCH  12  18
ENDBRANCH  11  15
ENDBRANCH   5  11
ENDBRANCH   1   8
BRANCH   2  23
ATOM     23  C   UNL     1       3.266  -8.950   8.060  0.00  0.00    +0.328 C 
BRANCH  23  24
ATOM     24  O   UNL     1       2.968  -8.201   9.241  0.00  0.00    -0.452 OA
BRANCH  24  25
ATOM     25  C   UNL     1       3.313  -8.755  10.420  0.00  0.00    +0.337 C 
ATOM     26  O   UNL     1       3.852  -9.843  10.445  0.00  0.00    -0.245 OA
BRANCH  25  27
ATOM     27  C   UNL     1       3.036  -8.039  11.681  0.00  0.00    +0.054 C 
ATOM     28  C   UNL     1       2.315  -6.863  11.698  0.00  0.00    +0.007 A 
ATOM     29  C   UNL     1       1.794  -6.280  10.461  0.00  0.00    +0.010 A 
ATOM     30  C   UNL     1       1.091  -5.123  10.529  0.00  0.00    +0.001 A 
ATOM     31  C   UNL     1       0.855  -4.481  11.752  0.00  0.00    +0.002 A 
ATOM     32  C   UNL     1       1.308  -4.966  12.933  0.00  0.00    +0.024 A 
ATOM     33  C   UNL     1       2.052  -6.166  12.975  0.00  0.00    +0.041 A 
ATOM     34  N   UNL     1       2.492  -6.634  14.133  0.00  0.00    -0.285 N 
ATOM     35  C   UNL     1       3.197  -7.754  14.247  0.00  0.00    +0.222 C 
ATOM     36  O   UNL     1       3.572  -8.129  15.341  0.00  0.00    -0.275 OA
ATOM     37  C   UNL     1       3.527  -8.566  13.015  0.00  0.00    +0.139 C 
ATOM     38  H   UNL     1       2.290  -6.134  14.939  0.00  0.00    +0.155 HD
ENDBRANCH  25  27
ENDBRANCH  24  25
ENDBRANCH  23  24
ENDBRANCH   2  23
TORSDOF 9
