REMARK  Name = ZINC11785294
REMARK  8 active torsions:
REMARK  status: ('A' for Active; 'I' for Inactive)
REMARK    1  A    between atoms: C_1  and  C_2
REMARK    2  A    between atoms: C_3  and  C_24
REMARK    3  A    between atoms: C_5  and  C_7
REMARK    4  A    between atoms: C_12  and  N_13
REMARK    5  A    between atoms: N_13  and  S_14
REMARK    6  A    between atoms: S_14  and  C_17
REMARK    7  A    between atoms: C_24  and  N_25
REMARK    8  A    between atoms: C_26  and  C_28
REMARK                            x       y       z     vdW  Elec       q    Type
REMARK                         _______ _______ _______ _____ _____    ______ ____
ROOT
ATOM      1  C   UNL     1      -3.226   1.546  -3.545  0.00  0.00    +0.059 A 
ATOM      2  C   UNL     1      -3.982   0.418  -3.222  0.00  0.00    +0.015 A 
ATOM      3  C   UNL     1      -5.047   0.053  -4.018  0.00  0.00    +0.001 A 
ATOM      4  C   UNL     1      -5.371   0.800  -5.138  0.00  0.00    +0.002 A 
ATOM      5  C   UNL     1      -4.632   1.918  -5.470  0.00  0.00    +0.025 A 
ATOM      6  C   UNL     1      -3.560   2.304  -4.677  0.00  0.00    +0.060 A 
ENDROOT
BRANCH   1  11
ATOM      7  C   UNL     1       0.735   4.036  -1.738  0.00  0.00    +0.088 C 
ATOM      8  C   UNL     1      -0.368   3.024  -1.914  0.00  0.00    +0.127 A 
ATOM      9  C   UNL     1      -0.619   1.972  -1.115  0.00  0.00    +0.100 A 
ATOM     10  N   UNL     1      -1.677   1.316  -1.617  0.00  0.00    -0.212 NA
ATOM     11  C   UNL     1      -2.085   1.943  -2.696  0.00  0.00    +0.230 A 
ATOM     12  O   UNL     1      -1.285   3.004  -2.902  0.00  0.00    -0.440 OA
BRANCH   9  13
ATOM     13  C   UNL     1       0.154   1.593   0.122  0.00  0.00    +0.163 C 
BRANCH  13  14
ATOM     14  N   UNL     1      -0.437   2.252   1.289  0.00  0.00    -0.306 N 
ATOM     15  C   UNL     1       0.092   2.059   2.513  0.00  0.00    +0.247 C 
ATOM     16  O   UNL     1       1.061   1.336   2.649  0.00  0.00    -0.270 OA
ATOM     17  H   UNL     1      -1.210   2.829   1.181  0.00  0.00    +0.149 HD
BRANCH  15  18
ATOM     18  C   UNL     1      -0.502   2.723   3.687  0.00  0.00    +0.074 A 
ATOM     19  C   UNL     1      -0.057   2.624   5.085  0.00  0.00    +0.054 A 
ATOM     20  C   UNL     1      -0.895   3.395   5.794  0.00  0.00    +0.195 A 
ATOM     21  O   UNL     1      -1.796   3.945   4.965  0.00  0.00    -0.470 OA
ATOM     22  C   UNL     1      -1.578   3.562   3.703  0.00  0.00    +0.207 A 
ENDBRANCH  15  18
ENDBRANCH  13  14
ENDBRANCH   9  13
ENDBRANCH   1  11
BRANCH   6  23
ATOM     23  N   UNL     1      -2.817   3.434  -5.006  0.00  0.00    -0.216 N 
ATOM     24  H   UNL     1      -1.860   3.449  -4.848  0.00  0.00    +0.174 HD
BRANCH  23  25
ATOM     25  S   UNL     1      -3.566   4.754  -5.670  0.00  0.00    +0.072 S 
ATOM     26  O   UNL     1      -2.584   5.777  -5.758  0.00  0.00    -0.150 OA
ATOM     27  O   UNL     1      -4.284   4.286  -6.803  0.00  0.00    -0.150 OA
BRANCH  25  28
ATOM     28  C   UNL     1      -4.768   5.309  -4.507  0.00  0.00    +0.111 A 
ATOM     29  C   UNL     1      -4.422   6.244  -3.548  0.00  0.00    +0.029 A 
ATOM     30  C   UNL     1      -5.364   6.681  -2.636  0.00  0.00    +0.005 A 
ATOM     31  C   UNL     1      -6.653   6.183  -2.680  0.00  0.00    +0.038 A 
ATOM     32  C   UNL     1      -7.000   5.247  -3.639  0.00  0.00    +0.125 A 
ATOM     33  C   UNL     1      -6.057   4.815  -4.557  0.00  0.00    +0.067 A 
ATOM     34  F   UNL     1      -8.260   4.761  -3.684  0.00  0.00    -0.205 F 
ENDBRANCH  25  28
ENDBRANCH  23  25
ENDBRANCH   6  23
TORSDOF 7
