REMARK  Name = ZINC14013830
REMARK  9 active torsions:
REMARK  status: ('A' for Active; 'I' for Inactive)
REMARK    1  A    between atoms: C_1  and  C_2
REMARK    2  A    between atoms: C_2  and  C_3
REMARK    3  A    between atoms: C_3  and  C_4
REMARK    4  A    between atoms: C_4  and  N_5
REMARK    5  A    between atoms: C_6  and  C_8
REMARK    6  A    between atoms: C_8  and  C_9
REMARK    7  A    between atoms: N_20  and  C_23
REMARK    8  A    between atoms: C_26  and  C_30
REMARK    9  A    between atoms: C_28  and  C_29
REMARK                            x       y       z     vdW  Elec       q    Type
REMARK                         _______ _______ _______ _____ _____    ______ ____
ROOT
ATOM      1  C   UNL     1      -1.225  -0.329  -0.637  0.00  0.00    +0.112 C 
ATOM      2  C   UNL     1      -1.083  -1.838  -0.878  0.00  0.00    +0.103 C 
ATOM      3  S   UNL     1       0.730  -2.049  -0.739  0.00  0.00    -0.085 S 
ATOM      4  C   UNL     1       1.193  -0.361  -0.410  0.00  0.00    +0.174 A 
ATOM      5  N   UNL     1       0.039   0.368  -0.398  0.00  0.00    -0.283 N 
ATOM      6  C   UNL     1       0.147   1.716  -0.160  0.00  0.00    +0.266 A 
ATOM      7  O   UNL     1      -0.850   2.415  -0.143  0.00  0.00    -0.267 OA
ATOM      8  C   UNL     1       1.417   2.290   0.058  0.00  0.00    +0.103 A 
ATOM      9  C   UNL     1       1.873   3.600   0.322  0.00  0.00    +0.150 A 
ATOM     10  N   UNL     1       3.171   3.571   0.442  0.00  0.00    -0.172 NA
ATOM     11  N   UNL     1       3.629   2.259   0.265  0.00  0.00    -0.214 N 
ATOM     12  C   UNL     1       2.551   1.461   0.027  0.00  0.00    +0.171 A 
ATOM     13  N   UNL     1       2.384   0.156  -0.209  0.00  0.00    -0.203 NA
ENDROOT
BRANCH  11  14
ATOM     14  C   UNL     1       4.964   1.841   0.323  0.00  0.00    +0.071 A 
ATOM     15  C   UNL     1       5.312   0.726   1.074  0.00  0.00    +0.028 A 
ATOM     16  C   UNL     1       6.629   0.315   1.129  0.00  0.00    +0.005 A 
ATOM     17  C   UNL     1       7.602   1.012   0.435  0.00  0.00    -0.050 A 
ATOM     18  C   UNL     1       7.258   2.123  -0.314  0.00  0.00    +0.008 A 
ATOM     19  C   UNL     1       5.942   2.536  -0.376  0.00  0.00    -0.025 A 
ATOM     20  C   UNL     1       5.568   3.742  -1.198  0.00  0.00    +0.046 C 
ATOM     21  C   UNL     1       9.038   0.561   0.496  0.00  0.00    +0.044 C 
ENDBRANCH  11  14
BRANCH   1  22
ATOM     22  C   UNL     1      -2.134  -0.114   0.575  0.00  0.00    +0.121 C 
BRANCH  22  24
ATOM     23  N   UNL     1      -4.429  -0.731   1.262  0.00  0.00    -0.315 N 
ATOM     24  C   UNL     1      -3.495  -0.696   0.291  0.00  0.00    +0.215 C 
ATOM     25  O   UNL     1      -3.749  -1.134  -0.811  0.00  0.00    -0.276 OA
ATOM     26  H   UNL     1      -4.225  -0.381   2.144  0.00  0.00    +0.149 HD
BRANCH  23  27
ATOM     27  C   UNL     1      -5.752  -1.297   0.987  0.00  0.00    +0.104 C 
BRANCH  27  28
ATOM     28  C   UNL     1      -6.614  -1.214   2.247  0.00  0.00    +0.018 C 
BRANCH  28  30
ATOM     29  C   UNL     1      -8.859  -1.723   3.220  0.00  0.00    +0.004 C 
ATOM     30  C   UNL     1      -7.996  -1.805   1.959  0.00  0.00    -0.002 C 
ENDBRANCH  28  30
ENDBRANCH  27  28
ENDBRANCH  23  27
ENDBRANCH  22  24
ENDBRANCH   1  22
TORSDOF 6
