REMARK  Name = ZINC16723165
REMARK  3 active torsions:
REMARK  status: ('A' for Active; 'I' for Inactive)
REMARK    1  A    between atoms: C_7  and  C_10
REMARK    2  A    between atoms: C_10  and  C_11
REMARK    3  A    between atoms: C_17  and  C_19
REMARK                            x       y       z     vdW  Elec       q    Type
REMARK                         _______ _______ _______ _____ _____    ______ ____
ROOT
ATOM      1  C   UNL     1      -3.060   3.605  -5.251  0.00  0.00    +0.225 C 
ATOM      2  O   UNL     1      -2.140   2.972  -5.723  0.00  0.00    -0.275 OA
ATOM      3  N   UNL     1      -3.197   3.702  -3.914  0.00  0.00    -0.263 N 
ATOM      4  C   UNL     1      -2.282   3.075  -3.074  0.00  0.00    +0.188 A 
ATOM      5  N   UNL     1      -1.221   2.347  -3.378  0.00  0.00    -0.126 NA
ATOM      6  N   UNL     1      -0.482   1.841  -2.488  0.00  0.00    -0.144 NA
ATOM      7  C   UNL     1      -0.748   2.025  -1.210  0.00  0.00    +0.107 A 
ATOM      8  S   UNL     1      -2.223   3.029  -1.337  0.00  0.00    -0.035 S 
ATOM      9  H   UNL     1      -3.933   4.208  -3.537  0.00  0.00    +0.157 HD
ENDROOT
BRANCH   7  10
ATOM     10  C   UNL     1      -0.019   1.526   0.010  0.00  0.00    +0.047 C 
ATOM     11  C   UNL     1       1.417   2.055  -0.000  0.00  0.00    +0.010 C 
ATOM     12  C   UNL     1       2.157   1.548   1.239  0.00  0.00    +0.001 C 
ATOM     13  C   UNL     1       2.178   0.019   1.231  0.00  0.00    +0.000 C 
ATOM     14  C   UNL     1       0.742  -0.511   1.242  0.00  0.00    +0.001 C 
ATOM     15  C   UNL     1       0.002  -0.004   0.002  0.00  0.00    +0.010 C 
ENDBRANCH   7  10
BRANCH   1  16
ATOM     16  C   UNL     1      -4.051   4.284  -6.161  0.00  0.00    +0.155 C 
BRANCH  16  23
ATOM     17  C   UNL     1      -5.201   0.905  -9.188  0.00  0.00    +0.001 A 
ATOM     18  C   UNL     1      -4.611   1.065 -10.434  0.00  0.00    +0.004 A 
ATOM     19  C   UNL     1      -3.780   2.136 -10.684  0.00  0.00    +0.049 A 
ATOM     20  C   UNL     1      -3.530   3.065  -9.681  0.00  0.00    +0.168 A 
ATOM     21  C   UNL     1      -4.129   2.899  -8.421  0.00  0.00    +0.045 A 
ATOM     22  C   UNL     1      -4.968   1.807  -8.188  0.00  0.00    +0.013 A 
ATOM     23  C   UNL     1      -3.676   4.023  -7.597  0.00  0.00    +0.100 A 
ATOM     24  N   UNL     1      -2.897   4.755  -8.332  0.00  0.00    -0.082 NA
ATOM     25  O   UNL     1      -2.784   4.186  -9.621  0.00  0.00    -0.354 OA
ENDBRANCH  16  23
ENDBRANCH   1  16
TORSDOF 3
