REMARK  Name = ZINC09638983
REMARK  9 active torsions:
REMARK  status: ('A' for Active; 'I' for Inactive)
REMARK    1  A    between atoms: C_1  and  N_2
REMARK    2  A    between atoms: N_2  and  C_3
REMARK    3  A    between atoms: N_2  and  S_9
REMARK    4  A    between atoms: S_9  and  C_12
REMARK    5  A    between atoms: C_15  and  C_18
REMARK    6  A    between atoms: N_20  and  C_21
REMARK    7  A    between atoms: C_21  and  C_22
REMARK    8  A    between atoms: C_22  and  C_24
REMARK    9  A    between atoms: C_22  and  N_29
REMARK                            x       y       z     vdW  Elec       q    Type
REMARK                         _______ _______ _______ _____ _____    ______ ____
ROOT
ATOM      1  C   UNL     1       1.523   1.246  -7.202  0.00  0.00    +0.106 A 
ATOM      2  C   UNL     1       0.353   1.984  -7.211  0.00  0.00    +0.029 A 
ATOM      3  C   UNL     1      -0.323   2.225  -6.032  0.00  0.00    +0.015 A 
ATOM      4  C   UNL     1       0.177   1.723  -4.830  0.00  0.00    +0.037 A 
ATOM      5  C   UNL     1       1.361   0.983  -4.828  0.00  0.00    +0.015 A 
ATOM      6  C   UNL     1       2.023   0.744  -6.014  0.00  0.00    +0.029 A 
ENDROOT
BRANCH   4   7
ATOM      7  C   UNL     1      -0.542   1.978  -3.563  0.00  0.00    +0.244 C 
ATOM      8  O   UNL     1      -1.569   2.626  -3.567  0.00  0.00    -0.270 OA
ATOM      9  N   UNL     1      -0.057   1.491  -2.404  0.00  0.00    -0.312 N 
ATOM     10  H   UNL     1       0.873   0.903  -2.400  0.00  0.00    +0.149 HD
BRANCH   9  11
ATOM     11  C   UNL     1      -0.769   1.743  -1.148  0.00  0.00    +0.097 C 
BRANCH  11  12
ATOM     12  C   UNL     1      -0.013   1.086   0.008  0.00  0.00    +0.016 C 
BRANCH  12  13
ATOM     13  N   UNL     1       1.377   1.561   0.017  0.00  0.00    +0.387 N 
ATOM     14  C   UNL     1       1.433   3.045  -0.009  0.00  0.00    -0.078 C 
ATOM     15  C   UNL     1       2.853   3.356   0.526  0.00  0.00    -0.020 C 
ATOM     16  C   UNL     1       3.054   2.281   1.619  0.00  0.00    -0.020 C 
ATOM     17  C   UNL     1       2.068   1.153   1.260  0.00  0.00    -0.078 C 
ATOM     18  H   UNL     1       1.851   1.118  -0.871  0.00  0.00    -0.081 HD
ENDBRANCH  12  13
BRANCH  12  19
ATOM     19  C   UNL     1      -0.676   1.448   1.312  0.00  0.00    +0.093 A 
ATOM     20  C   UNL     1      -1.424   0.625   2.069  0.00  0.00    +0.043 A 
ATOM     21  C   UNL     1      -1.841   1.371   3.195  0.00  0.00    +0.041 A 
ATOM     22  C   UNL     1      -1.330   2.607   3.055  0.00  0.00    +0.195 A 
ATOM     23  O   UNL     1      -0.625   2.648   1.912  0.00  0.00    -0.469 OA
ENDBRANCH  12  19
ENDBRANCH  11  12
ENDBRANCH   9  11
ENDBRANCH   4   7
BRANCH   1  24
ATOM     24  S   UNL     1       2.379   0.942  -8.712  0.00  0.00    +0.061 S 
ATOM     25  O   UNL     1       3.152  -0.234  -8.511  0.00  0.00    -0.153 OA
ATOM     26  O   UNL     1       1.419   1.054  -9.753  0.00  0.00    -0.153 OA
BRANCH  24  28
ATOM     27  C   UNL     1       4.812   2.078  -8.384  0.00  0.00    +0.132 C 
ATOM     28  N   UNL     1       3.454   2.184  -8.924  0.00  0.00    -0.177 NA
BRANCH  28  29
ATOM     29  C   UNL     1       3.046   3.390  -9.650  0.00  0.00    +0.080 C 
ATOM     30  C   UNL     1       3.945   3.576 -10.873  0.00  0.00    +0.020 C 
ATOM     31  C   UNL     1       3.520   4.835 -11.632  0.00  0.00    +0.002 C 
ATOM     32  C   UNL     1       3.649   6.052 -10.714  0.00  0.00    +0.000 C 
ATOM     33  C   UNL     1       2.750   5.865  -9.490  0.00  0.00    +0.002 C 
ATOM     34  C   UNL     1       3.176   4.607  -8.731  0.00  0.00    +0.020 C 
ENDBRANCH  28  29
ENDBRANCH  24  28
ENDBRANCH   1  24
TORSDOF 8
