REMARK  Name = ZINC39919005
REMARK  12 active torsions:
REMARK  status: ('A' for Active; 'I' for Inactive)
REMARK    1  A    between atoms: C_1  and  C_2
REMARK    2  A    between atoms: N_8  and  C_9
REMARK    3  A    between atoms: C_9  and  C_10
REMARK    4  A    between atoms: C_10  and  N_11
REMARK    5  A    between atoms: N_11  and  C_12
REMARK    6  A    between atoms: N_11  and  C_13
REMARK    7  A    between atoms: N_21  and  C_24
REMARK    8  A    between atoms: C_24  and  C_25
REMARK    9  A    between atoms: C_25  and  C_26
REMARK   10  A    between atoms: C_25  and  C_27
REMARK   11  A    between atoms: C_28  and  C_32
REMARK   12  A    between atoms: C_29  and  N_31
REMARK                            x       y       z     vdW  Elec       q    Type
REMARK                         _______ _______ _______ _____ _____    ______ ____
ROOT
ATOM      1  C   UNL     1       0.317   1.399  -0.128  0.00  0.00    +0.064 C 
ATOM      2  C   UNL     1       0.321  -0.107  -0.092  0.00  0.00    +0.022 A 
ATOM      3  C   UNL     1       0.411  -0.801  -1.247  0.00  0.00    +0.068 A 
ATOM      4  C   UNL     1       0.415  -2.211  -1.220  0.00  0.00    +0.142 A 
ATOM      5  C   UNL     1       0.324  -2.855  -0.003  0.00  0.00    +0.084 A 
ATOM      6  C   UNL     1       0.233  -2.094   1.169  0.00  0.00    +0.260 A 
ATOM      7  O   UNL     1       0.152  -2.651   2.253  0.00  0.00    -0.267 OA
ATOM      8  N   UNL     1       0.240  -0.750   1.103  0.00  0.00    -0.314 N 
ATOM      9  C   UNL     1       0.322  -4.355   0.068  0.00  0.00    +0.147 C 
ATOM     10  C   UNL     1       1.611  -4.866   0.631  0.00  0.00    -0.001 A 
ATOM     11  C   UNL     1       2.910  -4.758   0.181  0.00  0.00    +0.007 A 
ATOM     12  C   UNL     1       3.897  -5.359   0.955  0.00  0.00    +0.000 A 
ATOM     13  C   UNL     1       3.588  -6.032   2.120  0.00  0.00    +0.002 A 
ATOM     14  C   UNL     1       2.284  -6.144   2.578  0.00  0.00    +0.024 A 
ATOM     15  C   UNL     1       1.284  -5.545   1.811  0.00  0.00    +0.041 A 
ATOM     16  N   UNL     1      -0.082  -5.501   2.028  0.00  0.00    -0.270 N 
ATOM     17  C   UNL     1      -0.727  -4.823   1.057  0.00  0.00    +0.240 C 
ATOM     18  O   UNL     1      -1.922  -4.624   0.988  0.00  0.00    -0.274 OA
ATOM     19  C   UNL     1       0.051  -4.950  -1.284  0.00  0.00    +0.110 C 
ATOM     20  C   UNL     1       0.157  -4.204  -2.409  0.00  0.00    +0.199 C 
ATOM     21  O   UNL     1       0.508  -2.907  -2.372  0.00  0.00    -0.441 OA
ENDROOT
BRANCH  20  22
ATOM     22  N   UNL     1      -0.101  -4.789  -3.624  0.00  0.00    -0.328 N 
ATOM     23  H   UNL     1      -0.356  -5.724  -3.667  0.00  0.00    +0.145 HD
ATOM     24  H   UNL     1      -0.029  -4.268  -4.439  0.00  0.00    +0.145 HD
ENDBRANCH  20  22
BRANCH  19  25
ATOM     25  C   UNL     1      -0.326  -6.328  -1.385  0.00  0.00    +0.102 C 
ATOM     26  N   UNL     1      -0.624  -7.421  -1.465  0.00  0.00    -0.191 NA
ENDBRANCH  19  25
BRANCH   8  27
ATOM     27  C   UNL     1       0.153   0.034   2.338  0.00  0.00    +0.106 C 
BRANCH  27  28
ATOM     28  C   UNL     1      -1.317   0.303   2.668  0.00  0.00    -0.058 C 
BRANCH  28  29
ATOM     29  N   UNL     1      -1.404   1.089   3.907  0.00  0.00    +0.377 N 
ATOM     30  C   UNL     1      -2.805   1.449   4.160  0.00  0.00    -0.097 C 
ATOM     31  C   UNL     1      -0.893   0.291   5.029  0.00  0.00    -0.097 C 
ATOM     32  H   UNL     1      -0.852   1.928   3.812  0.00  0.00    -0.083 HD
ENDBRANCH  28  29
ENDBRANCH  27  28
ENDBRANCH   8  27
BRANCH  16  33
ATOM     33  C   UNL     1      -0.748  -6.118   3.178  0.00  0.00    +0.116 C 
BRANCH  33  34
ATOM     34  C   UNL     1      -1.267  -7.503   2.784  0.00  0.00    +0.001 C 
ATOM     35  C   UNL     1      -0.083  -8.421   2.475  0.00  0.00    +0.009 C 
ATOM     36  C   UNL     1      -2.080  -8.090   3.939  0.00  0.00    +0.009 C 
ENDBRANCH  33  34
ENDBRANCH  16  33
TORSDOF 7
