REMARK  Name = ZINC65265721
REMARK  7 active torsions:
REMARK  status: ('A' for Active; 'I' for Inactive)
REMARK    1  A    between atoms: C_1  and  C_2
REMARK    2  A    between atoms: C_2  and  C_3
REMARK    3  A    between atoms: C_3  and  C_4
REMARK    4  A    between atoms: C_4  and  S_5
REMARK    5  A    between atoms: S_5  and  N_8
REMARK    6  A    between atoms: N_23  and  C_24
REMARK    7  A    between atoms: C_24  and  C_25
REMARK                            x       y       z     vdW  Elec       q    Type
REMARK                         _______ _______ _______ _____ _____    ______ ____
ROOT
ATOM      1  N   UNL     1       1.545  -4.264  -2.652  0.00  0.00    -0.179 NA
ATOM      2  C   UNL     1       2.623  -5.000  -1.977  0.00  0.00    +0.109 C 
ATOM      3  C   UNL     1       2.009  -5.907  -0.906  0.00  0.00    +0.020 C 
ATOM      4  C   UNL     1       0.949  -6.804  -1.550  0.00  0.00    +0.036 C 
ATOM      5  C   UNL     1      -0.155  -5.940  -2.155  0.00  0.00    +0.100 C 
ATOM      6  C   UNL     1       0.425  -5.024  -3.225  0.00  0.00    +0.142 C 
ATOM      7  C   UNL     1      -1.221  -6.826  -2.764  0.00  0.00    +0.099 C 
ATOM      8  N   UNL     1      -2.006  -7.546  -1.881  0.00  0.00    -0.286 N 
ATOM      9  C   UNL     1      -2.380  -6.924  -0.684  0.00  0.00    +0.145 A 
ATOM     10  C   UNL     1      -1.767  -5.731  -0.297  0.00  0.00    +0.069 A 
ATOM     11  C   UNL     1      -2.141  -5.132   0.898  0.00  0.00    +0.028 A 
ATOM     12  C   UNL     1      -3.124  -5.747   1.663  0.00  0.00    +0.022 A 
ATOM     13  C   UNL     1      -3.692  -6.923   1.215  0.00  0.00    +0.113 A 
ATOM     14  N   UNL     1      -3.314  -7.472   0.076  0.00  0.00    -0.238 NA
ATOM     15  N   UNL     1      -0.791  -5.133  -1.105  0.00  0.00    -0.328 N 
ATOM     16  N   UNL     1      -1.391  -6.904  -4.044  0.00  0.00    -0.370 N 
ATOM     17  H   UNL     1      -0.540  -4.205  -0.974  0.00  0.00    +0.147 HD
ATOM     18  H   UNL     1      -0.827  -6.388  -4.641  0.00  0.00    +0.161 HD
ATOM     19  H   UNL     1      -2.287  -8.452  -2.084  0.00  0.00    +0.155 HD
ENDROOT
BRANCH   1  20
ATOM     20  S   UNL     1       1.588  -2.612  -2.758  0.00  0.00    +0.032 S 
ATOM     21  O   UNL     1       0.819  -2.303  -3.912  0.00  0.00    -0.158 OA
ATOM     22  O   UNL     1       2.968  -2.281  -2.697  0.00  0.00    -0.158 OA
BRANCH  20  23
ATOM     23  C   UNL     1       0.739  -2.027  -1.265  0.00  0.00    +0.185 C 
BRANCH  23  24
ATOM     24  C   UNL     1       0.718  -0.497  -1.257  0.00  0.00    +0.024 C 
BRANCH  24  26
ATOM     25  C   UNL     1      -0.019   1.526   0.010  0.00  0.00    +0.004 C 
ATOM     26  C   UNL     1       0.002  -0.004   0.002  0.00  0.00    -0.002 C 
ENDBRANCH  24  26
ENDBRANCH  23  24
ENDBRANCH  20  23
ENDBRANCH   1  20
BRANCH  16  27
ATOM     27  C   UNL     1      -2.434  -7.774  -4.593  0.00  0.00    +0.149 C 
BRANCH  27  28
ATOM     28  C   UNL     1      -2.423  -7.684  -6.097  0.00  0.00    -0.028 A 
ATOM     29  C   UNL     1      -3.193  -6.733  -6.739  0.00  0.00    +0.005 A 
ATOM     30  C   UNL     1      -3.183  -6.652  -8.119  0.00  0.00    +0.000 A 
ATOM     31  C   UNL     1      -2.401  -7.521  -8.857  0.00  0.00    +0.000 A 
ATOM     32  C   UNL     1      -1.630  -8.472  -8.215  0.00  0.00    +0.000 A 
ATOM     33  C   UNL     1      -1.637  -8.550  -6.835  0.00  0.00    +0.005 A 
ENDBRANCH  27  28
ENDBRANCH  16  27
TORSDOF 6
