REMARK  Name = ZINC63743874
REMARK  3 active torsions:
REMARK  status: ('A' for Active; 'I' for Inactive)
REMARK    1  A    between atoms: C_3  and  N_18
REMARK    2  A    between atoms: C_6  and  C_7
REMARK    3  A    between atoms: N_21  and  C_22
REMARK                            x       y       z     vdW  Elec       q    Type
REMARK                         _______ _______ _______ _____ _____    ______ ____
ROOT
ATOM      1  C   UNL     1      -0.063   1.654  -0.749  0.00  0.00    +0.008 A 
ATOM      2  C   UNL     1       1.156   2.289  -0.609  0.00  0.00    +0.024 A 
ATOM      3  C   UNL     1       2.289   1.551  -0.295  0.00  0.00    +0.035 A 
ATOM      4  C   UNL     1       2.194   0.176  -0.124  0.00  0.00    +0.024 A 
ATOM      5  C   UNL     1       0.973  -0.453  -0.266  0.00  0.00    +0.008 A 
ATOM      6  C   UNL     1      -0.154   0.285  -0.578  0.00  0.00    -0.021 A 
ENDROOT
BRANCH   6   7
ATOM      7  C   UNL     1      -1.486  -0.405  -0.731  0.00  0.00    +0.133 C 
ATOM      8  C   UNL     1      -2.066  -0.726   0.628  0.00  0.00    +0.012 C 
ATOM      9  C   UNL     1      -2.192  -2.071   0.673  0.00  0.00    -0.002 A 
ATOM     10  C   UNL     1      -2.688  -2.990   1.705  0.00  0.00    +0.029 A 
ATOM     11  C   UNL     1      -2.692  -4.319   1.454  0.00  0.00    +0.042 A 
ATOM     12  C   UNL     1      -2.235  -4.840   0.234  0.00  0.00    +0.022 A 
ATOM     13  C   UNL     1      -1.766  -4.060  -0.762  0.00  0.00    +0.027 A 
ATOM     14  C   UNL     1      -1.716  -2.647  -0.606  0.00  0.00    +0.043 A 
ATOM     15  N   UNL     1      -1.312  -1.693  -1.411  0.00  0.00    -0.374 N 
ATOM     16 CL   UNL     1      -3.276  -5.408   2.673  0.00  0.00    -0.084 Cl
ATOM     17  H   UNL     1      -0.958  -1.818  -2.305  0.00  0.00    +0.161 HD
ENDBRANCH   6   7
BRANCH   3  18
ATOM     18  N   UNL     1       3.526   2.191  -0.153  0.00  0.00    -0.269 N 
ATOM     19  C   UNL     1       3.583   3.445   0.339  0.00  0.00    +0.308 C 
ATOM     20  O   UNL     1       2.572   3.984   0.747  0.00  0.00    -0.252 OA
ATOM     21  N   UNL     1       4.760   4.100   0.379  0.00  0.00    -0.269 N 
ATOM     22  H   UNL     1       4.341   1.733  -0.408  0.00  0.00    +0.156 HD
ATOM     23  H   UNL     1       5.551   3.700  -0.014  0.00  0.00    +0.156 HD
BRANCH  21  24
ATOM     24  C   UNL     1       4.840   5.359   0.989  0.00  0.00    +0.038 A 
ATOM     25  C   UNL     1       4.040   5.652   2.085  0.00  0.00    +0.027 A 
ATOM     26  C   UNL     1       4.118   6.893   2.688  0.00  0.00    +0.051 A 
ATOM     27  C   UNL     1       4.995   7.848   2.200  0.00  0.00    +0.166 A 
ATOM     28  C   UNL     1       5.799   7.558   1.101  0.00  0.00    +0.168 A 
ATOM     29  C   UNL     1       5.724   6.311   0.501  0.00  0.00    +0.073 A 
ATOM     30  O   UNL     1       6.566   8.652   0.819  0.00  0.00    -0.453 OA
ATOM     31  C   UNL     1       5.931   9.751   1.499  0.00  0.00    +0.466 C 
ATOM     32  O   UNL     1       5.259   9.125   2.608  0.00  0.00    -0.453 OA
ENDBRANCH  21  24
ENDBRANCH   3  18
TORSDOF 3
