REMARK  Name = ZINC62042164
REMARK  7 active torsions:
REMARK  status: ('A' for Active; 'I' for Inactive)
REMARK    1  A    between atoms: C_1  and  C_2
REMARK    2  A    between atoms: C_9  and  C_24
REMARK    3  A    between atoms: C_10  and  C_11
REMARK    4  A    between atoms: C_11  and  C_12
REMARK    5  A    between atoms: N_14  and  C_15
REMARK    6  A    between atoms: C_27  and  C_31
REMARK    7  A    between atoms: C_28  and  C_30
REMARK                            x       y       z     vdW  Elec       q    Type
REMARK                         _______ _______ _______ _____ _____    ______ ____
ROOT
ATOM      1  C   UNL     1      -0.011   1.493  -0.012  0.00  0.00    +0.047 C 
ATOM      2  C   UNL     1       0.013  -0.013  -0.018  0.00  0.00    -0.009 A 
ATOM      3  C   UNL     1       0.028  -0.695  -1.195  0.00  0.00    +0.008 A 
ATOM      4  C   UNL     1       0.051  -2.100  -1.186  0.00  0.00    +0.018 A 
ATOM      5  C   UNL     1       0.058  -2.773  -0.016  0.00  0.00    +0.093 A 
ATOM      6  N   UNL     1       0.043  -2.101   1.173  0.00  0.00    -0.304 N 
ATOM      7  C   UNL     1       0.027  -0.730   1.196  0.00  0.00    +0.119 A 
ATOM      8  N   UNL     1       0.023  -0.336   2.460  0.00  0.00    -0.339 N 
ATOM      9  C   UNL     1       0.043  -1.415   3.258  0.00  0.00    +0.068 A 
ATOM     10  C   UNL     1       0.045  -2.528   2.471  0.00  0.00    +0.058 A 
ATOM     11  H   UNL     1       0.009   0.586   2.762  0.00  0.00    +0.167 HD
ENDROOT
BRANCH   9  12
ATOM     12  C   UNL     1       0.045  -1.400   4.742  0.00  0.00    +0.000 A 
ATOM     13  C   UNL     1       0.917  -2.227   5.448  0.00  0.00    +0.010 A 
ATOM     14  C   UNL     1       0.916  -2.208   6.828  0.00  0.00    +0.004 A 
ATOM     15  C   UNL     1       0.051  -1.372   7.510  0.00  0.00    -0.047 A 
ATOM     16  C   UNL     1      -0.816  -0.549   6.814  0.00  0.00    -0.047 A 
ATOM     17  C   UNL     1      -0.819  -0.555   5.434  0.00  0.00    +0.013 A 
ATOM     18  C   UNL     1      -1.756   0.359   7.564  0.00  0.00    +0.044 C 
ATOM     19  C   UNL     1       0.053  -1.357   9.017  0.00  0.00    +0.044 C 
ENDBRANCH   9  12
BRANCH  10  20
ATOM     20  C   UNL     1       0.066  -3.959   2.944  0.00  0.00    +0.152 C 
BRANCH  20  21
ATOM     21  C   UNL     1       1.494  -4.413   3.107  0.00  0.00    +0.223 C 
ATOM     22  O   UNL     1       2.405  -3.650   2.863  0.00  0.00    -0.275 OA
ATOM     23  N   UNL     1       1.758  -5.667   3.524  0.00  0.00    -0.283 N 
ATOM     24  H   UNL     1       1.033  -6.251   3.795  0.00  0.00    +0.155 HD
BRANCH  23  25
ATOM     25  C   UNL     1       3.081  -6.128   3.564  0.00  0.00    +0.072 A 
ATOM     26  C   UNL     1       4.041  -5.558   2.740  0.00  0.00    +0.029 A 
ATOM     27  C   UNL     1       5.345  -6.012   2.780  0.00  0.00    +0.043 A 
ATOM     28  C   UNL     1       5.697  -7.036   3.642  0.00  0.00    +0.161 A 
ATOM     29  C   UNL     1       4.742  -7.609   4.468  0.00  0.00    +0.195 A 
ATOM     30  C   UNL     1       3.435  -7.152   4.434  0.00  0.00    +0.182 A 
ATOM     31  F   UNL     1       2.504  -7.705   5.243  0.00  0.00    -0.200 F 
ATOM     32  F   UNL     1       5.087  -8.609   5.308  0.00  0.00    -0.199 F 
ATOM     33  F   UNL     1       6.973  -7.479   3.679  0.00  0.00    -0.202 F 
ENDBRANCH  23  25
ENDBRANCH  20  21
ENDBRANCH  10  20
TORSDOF 4
