REMARK  Name = ZINC30781381
REMARK  6 active torsions:
REMARK  status: ('A' for Active; 'I' for Inactive)
REMARK    1  A    between atoms: C_1  and  C_2
REMARK    2  A    between atoms: C_15  and  C_18
REMARK    3  A    between atoms: C_20  and  O_27
REMARK    4  A    between atoms: C_21  and  O_25
REMARK    5  A    between atoms: O_25  and  C_26
REMARK    6  A    between atoms: O_27  and  C_28
REMARK                            x       y       z     vdW  Elec       q    Type
REMARK                         _______ _______ _______ _____ _____    ______ ____
ROOT
ATOM      1  C   UNL     1      -2.379   9.153   0.204  0.00  0.00    +0.044 C 
ATOM      2  C   UNL     1      -1.717   7.812   0.390  0.00  0.00    -0.050 A 
ATOM      3  C   UNL     1      -2.064   7.013   1.464  0.00  0.00    +0.005 A 
ATOM      4  C   UNL     1      -1.463   5.782   1.633  0.00  0.00    +0.023 A 
ATOM      5  C   UNL     1      -0.506   5.339   0.728  0.00  0.00    +0.033 A 
ATOM      6  C   UNL     1      -0.152   6.156  -0.348  0.00  0.00    +0.003 A 
ATOM      7  C   UNL     1      -0.763   7.381  -0.513  0.00  0.00    +0.011 A 
ATOM      8  C   UNL     1       0.891   5.669  -1.283  0.00  0.00    +0.155 C 
ATOM      9  C   UNL     1       0.789   4.122  -1.373  0.00  0.00    +0.049 C 
ATOM     10  C   UNL     1       1.852   3.870  -2.454  0.00  0.00    +0.036 C 
ATOM     11  C   UNL     1       1.593   5.075  -3.401  0.00  0.00    +0.161 C 
ATOM     12  O   UNL     1       0.921   6.096  -2.625  0.00  0.00    -0.372 OA
ATOM     13  C   UNL     1       1.143   3.596   0.011  0.00  0.00    +0.107 C 
ATOM     14  N   UNL     1       0.081   4.082   0.915  0.00  0.00    -0.336 N 
ATOM     15  H   UNL     1      -0.261   3.452   1.750  0.00  0.00    +0.147 HD
ENDROOT
BRANCH  13  16
ATOM     16  C   UNL     1       1.169   2.090   0.002  0.00  0.00    -0.022 A 
ATOM     17  C   UNL     1       2.379   1.421  -0.013  0.00  0.00    +0.055 A 
ATOM     18  C   UNL     1       2.405   0.035  -0.021  0.00  0.00    +0.163 A 
ATOM     19  C   UNL     1       1.212  -0.680  -0.013  0.00  0.00    +0.180 A 
ATOM     20  C   UNL     1       0.002  -0.004   0.002  0.00  0.00    +0.086 A 
ATOM     21  C   UNL     1      -0.017   1.380   0.010  0.00  0.00    +0.029 A 
ATOM     22 CL   UNL     1      -1.489  -0.893   0.011  0.00  0.00    -0.080 Cl
BRANCH  19  23
ATOM     23  O   UNL     1       1.233  -2.040  -0.021  0.00  0.00    -0.490 OA
ATOM     24  C   UNL     1       1.231  -2.682  -1.298  0.00  0.00    +0.277 C 
ENDBRANCH  19  23
BRANCH  18  25
ATOM     25  O   UNL     1       3.595  -0.624  -0.036  0.00  0.00    -0.491 OA
ATOM     26  C   UNL     1       4.779   0.176  -0.043  0.00  0.00    +0.277 C 
ENDBRANCH  18  25
ENDBRANCH  13  16
TORSDOF 3
