REMARK  Name = ZINC04905211
REMARK  5 active torsions:
REMARK  status: ('A' for Active; 'I' for Inactive)
REMARK    1  A    between atoms: C_1  and  C_2
REMARK    2  A    between atoms: C_10  and  O_25
REMARK    3  A    between atoms: C_13  and  C_24
REMARK    4  A    between atoms: N_14  and  C_18
REMARK    5  A    between atoms: O_25  and  C_26
REMARK                            x       y       z     vdW  Elec       q    Type
REMARK                         _______ _______ _______ _____ _____    ______ ____
ROOT
ATOM      1  C   UNL     1      -0.474   1.832   2.306  0.00  0.00    +0.015 C 
ATOM      2  C   UNL     1      -1.039   2.684   1.168  0.00  0.00    +0.074 C 
ATOM      3  C   UNL     1      -1.360   1.797  -0.051  0.00  0.00    +0.114 C 
ATOM      4  C   UNL     1      -1.751   2.693  -1.205  0.00  0.00    +0.019 A 
ATOM      5  C   UNL     1      -2.537   2.174  -2.220  0.00  0.00    +0.009 A 
ATOM      6  C   UNL     1      -2.904   2.966  -3.290  0.00  0.00    +0.004 A 
ATOM      7  C   UNL     1      -2.486   4.283  -3.351  0.00  0.00    +0.049 A 
ATOM      8  C   UNL     1      -1.703   4.808  -2.338  0.00  0.00    +0.162 A 
ATOM      9  C   UNL     1      -1.334   4.009  -1.253  0.00  0.00    +0.170 A 
ATOM     10  O   UNL     1      -0.587   4.556  -0.269  0.00  0.00    -0.464 OA
ATOM     11  C   UNL     1       0.010   3.705   0.706  0.00  0.00    +0.186 C 
ATOM     12  N   UNL     1       1.159   2.998   0.147  0.00  0.00    -0.244 N 
ATOM     13  C   UNL     1       1.058   1.755  -0.347  0.00  0.00    +0.141 C 
ATOM     14  S   UNL     1       2.477   0.964  -0.889  0.00  0.00    -0.018 S 
ATOM     15  N   UNL     1      -0.117   1.107  -0.433  0.00  0.00    -0.319 N 
ATOM     16  C   UNL     1       0.463   4.544   1.903  0.00  0.00    +0.079 C 
ATOM     17  H   UNL     1      -0.145   0.191  -0.748  0.00  0.00    +0.148 HD
ENDROOT
BRANCH  12  18
ATOM     18  C   UNL     1       2.403   3.637   0.125  0.00  0.00    +0.039 A 
ATOM     19  C   UNL     1       2.730   4.488  -0.923  0.00  0.00    +0.023 A 
ATOM     20  C   UNL     1       3.957   5.121  -0.939  0.00  0.00    +0.002 A 
ATOM     21  C   UNL     1       4.865   4.900   0.081  0.00  0.00    +0.000 A 
ATOM     22  C   UNL     1       4.544   4.049   1.123  0.00  0.00    +0.002 A 
ATOM     23  C   UNL     1       3.317   3.417   1.148  0.00  0.00    +0.023 A 
ENDBRANCH  12  18
BRANCH   8  24
ATOM     24  O   UNL     1      -1.293   6.103  -2.398  0.00  0.00    -0.491 OA
ATOM     25  C   UNL     1      -1.707   6.862  -3.536  0.00  0.00    +0.277 C 
ENDBRANCH   8  24
TORSDOF 2
