REMARK  Name = ZINC40322176
REMARK  11 active torsions:
REMARK  status: ('A' for Active; 'I' for Inactive)
REMARK    1  A    between atoms: C_1  and  C_2
REMARK    2  A    between atoms: C_2  and  C_3
REMARK    3  A    between atoms: C_3  and  O_4
REMARK    4  A    between atoms: O_4  and  C_5
REMARK    5  A    between atoms: C_8  and  C_11
REMARK    6  A    between atoms: C_11  and  C_13
REMARK    7  A    between atoms: C_11  and  N_32
REMARK    8  A    between atoms: C_13  and  N_14
REMARK    9  A    between atoms: C_15  and  C_17
REMARK   10  A    between atoms: C_20  and  S_22
REMARK   11  A    between atoms: S_22  and  C_25
REMARK                            x       y       z     vdW  Elec       q    Type
REMARK                         _______ _______ _______ _____ _____    ______ ____
ROOT
ATOM      1  C   UNL     1      -6.815  -5.025   1.482  0.00  0.00    +0.094 C 
ENDROOT
BRANCH   1   2
ATOM      2  N   UNL     1      -6.871  -3.840   2.342  0.00  0.00    -0.310 N 
ATOM      3  C   UNL     1      -7.115  -3.975   3.660  0.00  0.00    +0.279 C 
ATOM      4  O   UNL     1      -7.289  -5.082   4.136  0.00  0.00    -0.267 OA
ATOM      5  H   UNL     1      -6.732  -2.958   1.962  0.00  0.00    +0.149 HD
BRANCH   3   6
ATOM      6  C   UNL     1      -7.171  -2.790   4.521  0.00  0.00    +0.192 A 
ATOM      7  C   UNL     1      -7.403  -2.785   5.867  0.00  0.00    +0.056 A 
ATOM      8  C   UNL     1      -7.368  -1.444   6.278  0.00  0.00    +0.070 A 
ATOM      9  C   UNL     1      -7.119  -0.697   5.179  0.00  0.00    +0.246 A 
ATOM     10  O   UNL     1      -6.996  -1.512   4.124  0.00  0.00    -0.433 OA
BRANCH   9  11
ATOM     11  S   UNL     1      -6.975   1.058   5.143  0.00  0.00    +0.058 S 
ATOM     12  O   UNL     1      -7.274   1.463   3.813  0.00  0.00    -0.161 OA
ATOM     13  O   UNL     1      -7.692   1.548   6.267  0.00  0.00    -0.161 OA
BRANCH  11  14
ATOM     14  C   UNL     1      -5.279   1.448   5.418  0.00  0.00    +0.097 A 
ATOM     15  C   UNL     1      -4.814   1.636   6.706  0.00  0.00    +0.029 A 
ATOM     16  C   UNL     1      -3.483   1.942   6.923  0.00  0.00    +0.022 A 
ATOM     17  C   UNL     1      -2.617   2.059   5.850  0.00  0.00    +0.041 A 
ATOM     18  C   UNL     1      -3.084   1.870   4.561  0.00  0.00    +0.022 A 
ATOM     19  C   UNL     1      -4.413   1.559   4.346  0.00  0.00    +0.029 A 
ATOM     20 CL   UNL     1      -0.946   2.443   6.121  0.00  0.00    -0.084 Cl
ENDBRANCH  11  14
ENDBRANCH   9  11
ENDBRANCH   3   6
ENDBRANCH   1   2
BRANCH   1  21
ATOM     21  C   UNL     1      -6.395  -4.611   0.070  0.00  0.00    -0.020 C 
BRANCH  21  22
ATOM     22  N   UNL     1      -6.428  -5.783  -0.814  0.00  0.00    +0.385 N 
ATOM     23  C   UNL     1      -5.971  -5.396  -2.154  0.00  0.00    -0.078 C 
ATOM     24  C   UNL     1      -5.925  -6.630  -3.058  0.00  0.00    -0.019 C 
ATOM     25  C   UNL     1      -7.327  -7.240  -3.151  0.00  0.00    -0.004 C 
ATOM     26  C   UNL     1      -7.824  -7.571  -1.741  0.00  0.00    -0.019 C 
ATOM     27  C   UNL     1      -7.799  -6.302  -0.886  0.00  0.00    -0.078 C 
ATOM     28  H   UNL     1      -5.817  -6.498  -0.446  0.00  0.00    -0.081 HD
ENDBRANCH  21  22
BRANCH  21  32
ATOM     29  C   UNL     1      -2.433  -3.014   0.174  0.00  0.00    +0.121 A 
ATOM     30  C   UNL     1      -3.525  -2.160   0.137  0.00  0.00    +0.046 A 
ATOM     31  C   UNL     1      -4.805  -2.678   0.103  0.00  0.00    +0.005 A 
ATOM     32  C   UNL     1      -4.998  -4.048   0.106  0.00  0.00    -0.059 A 
ATOM     33  C   UNL     1      -3.910  -4.901   0.143  0.00  0.00    +0.005 A 
ATOM     34  C   UNL     1      -2.628  -4.387   0.171  0.00  0.00    +0.046 A 
BRANCH  29  35
ATOM     35  O   UNL     1      -1.173  -2.506   0.207  0.00  0.00    -0.492 OA
BRANCH  35  36
ATOM     36  C   UNL     1      -1.047  -1.082   0.208  0.00  0.00    +0.229 C 
BRANCH  36  38
ATOM     37  C   UNL     1       0.570   0.823   0.247  0.00  0.00    +0.007 C 
ATOM     38  C   UNL     1       0.435  -0.702   0.247  0.00  0.00    +0.038 C 
ENDBRANCH  36  38
ENDBRANCH  35  36
ENDBRANCH  29  35
ENDBRANCH  21  32
ENDBRANCH   1  21
TORSDOF 10
