REMARK  Name = ZINC13080597
REMARK  6 active torsions:
REMARK  status: ('A' for Active; 'I' for Inactive)
REMARK    1  A    between atoms: C_1  and  C_2
REMARK    2  A    between atoms: C_6  and  N_8
REMARK    3  A    between atoms: C_9  and  C_11
REMARK    4  A    between atoms: C_12  and  C_35
REMARK    5  A    between atoms: C_16  and  C_30
REMARK    6  A    between atoms: C_21  and  C_23
REMARK                            x       y       z     vdW  Elec       q    Type
REMARK                         _______ _______ _______ _____ _____    ______ ____
ROOT
ATOM      1  C   UNL     1      -0.099  -4.637   3.715  0.00  0.00    +0.047 C 
ATOM      2  C   UNL     1      -0.103  -5.996   3.800  0.00  0.00    +0.048 C 
ATOM      3  N   UNL     1      -0.212  -6.643   4.953  0.00  0.00    -0.256 NA
ATOM      4  C   UNL     1      -0.328  -6.084   6.135  0.00  0.00    +0.050 C 
ATOM      5  C   UNL     1      -0.445  -6.959   7.360  0.00  0.00    +0.067 C 
ATOM      6  C   UNL     1       0.147  -6.221   8.564  0.00  0.00    +0.068 C 
ATOM      7  C   UNL     1      -0.586  -4.888   8.738  0.00  0.00    +0.091 C 
ATOM      8  C   UNL     1      -0.463  -4.085   7.469  0.00  0.00    +0.163 C 
ATOM      9  C   UNL     1      -0.346  -4.686   6.273  0.00  0.00    +0.028 C 
ATOM     10  C   UNL     1      -0.220  -3.854   5.010  0.00  0.00    +0.091 C 
ATOM     11  O   UNL     1      -0.472  -2.740   7.535  0.00  0.00    -0.292 OA
ATOM     12  C   UNL     1       0.021  -6.799   2.531  0.00  0.00    +0.066 C 
ENDROOT
BRANCH  10  13
ATOM     13  C   UNL     1       0.993  -2.970   5.142  0.00  0.00    -0.035 A 
ATOM     14  C   UNL     1       2.256  -3.530   5.180  0.00  0.00    +0.004 A 
ATOM     15  C   UNL     1       3.369  -2.719   5.301  0.00  0.00    +0.000 A 
ATOM     16  C   UNL     1       3.219  -1.348   5.383  0.00  0.00    +0.000 A 
ATOM     17  C   UNL     1       1.956  -0.787   5.344  0.00  0.00    +0.000 A 
ATOM     18  C   UNL     1       0.844  -1.598   5.219  0.00  0.00    +0.004 A 
ENDBRANCH  10  13
BRANCH   6  19
ATOM     19  C   UNL     1      -0.026  -7.060   9.805  0.00  0.00    +0.109 A 
ATOM     20  C   UNL     1       0.967  -7.515  10.590  0.00  0.00    +0.045 A 
ATOM     21  C   UNL     1       0.358  -8.252  11.633  0.00  0.00    +0.041 A 
ATOM     22  C   UNL     1      -0.969  -8.202  11.422  0.00  0.00    +0.195 A 
ATOM     23  O   UNL     1      -1.196  -7.474  10.316  0.00  0.00    -0.468 OA
ENDBRANCH   6  19
BRANCH   1  25
ATOM     24  N   UNL     1      -0.123  -2.643   2.398  0.00  0.00    -0.267 N 
ATOM     25  C   UNL     1       0.019  -3.981   2.471  0.00  0.00    +0.248 C 
ATOM     26  O   UNL     1       0.249  -4.625   1.463  0.00  0.00    -0.270 OA
ATOM     27  H   UNL     1      -0.240  -2.123   3.209  0.00  0.00    +0.157 HD
BRANCH  24  33
ATOM     28  C   UNL     1       0.504  -2.982  -2.337  0.00  0.00    +0.065 C 
ATOM     29  C   UNL     1       0.196  -2.142  -1.125  0.00  0.00    +0.040 A 
ATOM     30  C   UNL     1      -0.052  -0.792  -1.276  0.00  0.00    +0.023 A 
ATOM     31  C   UNL     1      -0.336  -0.023  -0.155  0.00  0.00    +0.005 A 
ATOM     32  C   UNL     1      -0.361  -0.643   1.081  0.00  0.00    +0.044 A 
ATOM     33  C   UNL     1      -0.102  -2.007   1.160  0.00  0.00    +0.125 A 
ATOM     34  N   UNL     1       0.160  -2.707   0.067  0.00  0.00    -0.237 NA
ENDBRANCH  24  33
ENDBRANCH   1  25
TORSDOF 4
