REMARK  Name = ZINC42016418
REMARK  6 active torsions:
REMARK  status: ('A' for Active; 'I' for Inactive)
REMARK    1  A    between atoms: C_1  and  C_2
REMARK    2  A    between atoms: C_5  and  N_9
REMARK    3  A    between atoms: C_7  and  C_8
REMARK    4  A    between atoms: C_10  and  C_14
REMARK    5  A    between atoms: C_16  and  N_21
REMARK    6  A    between atoms: C_18  and  N_20
REMARK                            x       y       z     vdW  Elec       q    Type
REMARK                         _______ _______ _______ _____ _____    ______ ____
ROOT
ATOM      1  N   UNL     1      -0.105  -4.195   0.110  0.00  0.00    -0.193 N 
ATOM      2  C   UNL     1      -0.625  -5.006  -0.855  0.00  0.00    +0.187 A 
ATOM      3  N   UNL     1      -0.152  -6.215  -0.634  0.00  0.00    -0.108 NA
ATOM      4  N   UNL     1       0.620  -6.216   0.391  0.00  0.00    -0.022 NA
ATOM      5  N   UNL     1       0.706  -5.033   0.895  0.00  0.00    -0.039 NA
ENDROOT
BRANCH   1  10
ATOM      6  C   UNL     1      -1.002   1.367   0.795  0.00  0.00    +0.044 C 
ATOM      7  C   UNL     1      -0.764  -0.110   0.613  0.00  0.00    -0.047 A 
ATOM      8  C   UNL     1      -1.824  -0.949   0.325  0.00  0.00    +0.006 A 
ATOM      9  C   UNL     1      -1.609  -2.303   0.158  0.00  0.00    +0.028 A 
ATOM     10  C   UNL     1      -0.327  -2.821   0.279  0.00  0.00    +0.070 A 
ATOM     11  C   UNL     1       0.736  -1.976   0.568  0.00  0.00    +0.031 A 
ATOM     12  C   UNL     1       0.515  -0.622   0.730  0.00  0.00    -0.046 A 
ATOM     13  C   UNL     1       1.669   0.298   1.038  0.00  0.00    +0.044 C 
ENDBRANCH   1  10
BRANCH   2  14
ATOM     14  C   UNL     1      -1.546  -4.605  -1.942  0.00  0.00    +0.025 A 
ATOM     15  C   UNL     1      -2.486  -5.511  -2.432  0.00  0.00    +0.034 A 
ATOM     16  C   UNL     1      -3.347  -5.132  -3.451  0.00  0.00    +0.027 A 
ATOM     17  C   UNL     1      -3.274  -3.852  -3.984  0.00  0.00    +0.045 A 
ATOM     18  C   UNL     1      -2.339  -2.947  -3.498  0.00  0.00    +0.027 A 
ATOM     19  C   UNL     1      -1.479  -3.318  -2.475  0.00  0.00    +0.034 A 
BRANCH  18  20
ATOM     20  N   UNL     1      -2.268  -1.660  -4.037  0.00  0.00    -0.358 N 
ATOM     21  H   UNL     1      -2.872  -1.399  -4.750  0.00  0.00    +0.142 HD
ATOM     22  H   UNL     1      -1.615  -1.028  -3.698  0.00  0.00    +0.142 HD
ENDBRANCH  18  20
BRANCH  16  23
ATOM     23  N   UNL     1      -4.289  -6.040  -3.942  0.00  0.00    -0.358 N 
ATOM     24  H   UNL     1      -4.341  -6.934  -3.570  0.00  0.00    +0.142 HD
ATOM     25  H   UNL     1      -4.892  -5.775  -4.654  0.00  0.00    +0.142 HD
ENDBRANCH  16  23
ENDBRANCH   2  14
TORSDOF 4
