REMARK  Name = ZINC49515275
REMARK  4 active torsions:
REMARK  status: ('A' for Active; 'I' for Inactive)
REMARK    1  A    between atoms: C_1  and  C_2
REMARK    2  A    between atoms: C_2  and  C_4
REMARK    3  A    between atoms: C_2  and  N_11
REMARK    4  A    between atoms: N_11  and  C_12
REMARK                            x       y       z     vdW  Elec       q    Type
REMARK                         _______ _______ _______ _____ _____    ______ ____
ROOT
ATOM      1  N   UNL     1       0.708  -0.583  -1.149  0.00  0.00    +0.394 N 
ATOM      2  H   UNL     1       0.581  -1.577  -1.263  0.00  0.00    -0.083 HD
ATOM      3  H   UNL     1       0.318  -0.101  -1.946  0.00  0.00    -0.083 HD
ENDROOT
BRANCH   1   4
ATOM      4  C   UNL     1       2.142  -0.280  -1.047  0.00  0.00    +0.050 C 
ATOM      5  C   UNL     1       2.872  -0.754  -2.283  0.00  0.00    -0.030 A 
ATOM      6  C   UNL     1       3.046  -1.998  -2.848  0.00  0.00    +0.004 A 
ATOM      7  C   UNL     1       3.784  -2.130  -4.011  0.00  0.00    +0.001 A 
ATOM      8  C   UNL     1       4.344  -1.011  -4.602  0.00  0.00    +0.017 A 
ATOM      9  C   UNL     1       4.171   0.236  -4.037  0.00  0.00    +0.039 A 
ATOM     10  C   UNL     1       3.428   0.377  -2.865  0.00  0.00    +0.049 A 
ATOM     11  N   UNL     1       3.116   1.510  -2.114  0.00  0.00    -0.285 N 
ATOM     12  C   UNL     1       2.368   1.216  -1.033  0.00  0.00    +0.208 C 
ATOM     13  O   UNL     1       1.954   2.000  -0.205  0.00  0.00    -0.277 OA
ATOM     14 BR   UNL     1       4.942   1.757  -4.854  0.00  0.00    -0.048 Br
ATOM     15  H   UNL     1       3.406   2.408  -2.342  0.00  0.00    +0.155 HD
ENDBRANCH   1   4
BRANCH   1  17
ATOM     16  C   UNL     1      -1.483  -0.340  -0.082  0.00  0.00    -0.009 C 
ATOM     17  C   UNL     1       0.025  -0.139   0.074  0.00  0.00    -0.043 C 
BRANCH  17  18
ATOM     18  C   UNL     1       0.521  -0.944   1.246  0.00  0.00    -0.062 A 
ATOM     19  C   UNL     1       0.757  -2.299   1.104  0.00  0.00    +0.003 A 
ATOM     20  C   UNL     1       1.213  -3.038   2.179  0.00  0.00    +0.015 A 
ATOM     21  C   UNL     1       1.432  -2.423   3.398  0.00  0.00    +0.018 A 
ATOM     22  C   UNL     1       1.196  -1.067   3.541  0.00  0.00    +0.015 A 
ATOM     23  C   UNL     1       0.746  -0.328   2.463  0.00  0.00    +0.003 A 
ATOM     24 BR   UNL     1       2.055  -3.434   4.870  0.00  0.00    -0.050 Br
ENDBRANCH  17  18
ENDBRANCH   1  17
TORSDOF 3
