REMARK  Name = ZINC37789403
REMARK  8 active torsions:
REMARK  status: ('A' for Active; 'I' for Inactive)
REMARK    1  A    between atoms: C_1  and  C_2
REMARK    2  A    between atoms: C_2  and  C_3
REMARK    3  A    between atoms: C_2  and  N_4
REMARK    4  A    between atoms: C_8  and  N_12
REMARK    5  A    between atoms: N_12  and  C_13
REMARK    6  A    between atoms: C_16  and  N_20
REMARK    7  A    between atoms: N_20  and  C_21
REMARK    8  A    between atoms: N_20  and  C_22
REMARK                            x       y       z     vdW  Elec       q    Type
REMARK                         _______ _______ _______ _____ _____    ______ ____
ROOT
ATOM      1  N   UNL     1      -3.470  -3.080  -0.486  0.00  0.00    -0.333 N 
ATOM      2  H   UNL     1      -3.349  -3.491   0.384  0.00  0.00    +0.147 HD
ENDROOT
BRANCH   1   7
ATOM      3  N   UNL     1      -1.372  -0.511   0.012  0.00  0.00    -0.238 N 
ATOM      4  C   UNL     1      -2.239  -0.234   0.994  0.00  0.00    +0.224 C 
ATOM      5  O   UNL     1      -2.003   0.449   1.967  0.00  0.00    -0.275 OA
ATOM      6  C   UNL     1      -3.560  -0.910   0.697  0.00  0.00    +0.128 C 
ATOM      7  C   UNL     1      -3.304  -1.632  -0.641  0.00  0.00    +0.166 C 
ATOM      8  C   UNL     1      -1.867  -1.285  -0.962  0.00  0.00    +0.243 C 
ATOM      9  O   UNL     1      -1.258  -1.651  -1.945  0.00  0.00    -0.273 OA
BRANCH   3  11
ATOM     10  C   UNL     1      -0.019   1.526   0.010  0.00  0.00    +0.028 C 
ATOM     11  C   UNL     1       0.002  -0.004   0.002  0.00  0.00    +0.078 C 
ATOM     12  C   UNL     1       0.742  -0.511   1.242  0.00  0.00    +0.028 C 
ENDBRANCH   3  11
ENDBRANCH   1   7
BRANCH   1  13
ATOM     13  C   UNL     1      -3.804  -3.869  -1.593  0.00  0.00    +0.029 A 
ATOM     14  C   UNL     1      -3.971  -3.280  -2.839  0.00  0.00    +0.025 A 
ATOM     15  C   UNL     1      -4.300  -4.059  -3.932  0.00  0.00    +0.026 A 
ATOM     16  C   UNL     1      -4.464  -5.429  -3.784  0.00  0.00    +0.048 A 
ATOM     17  C   UNL     1      -4.296  -6.019  -2.537  0.00  0.00    +0.064 A 
ATOM     18  C   UNL     1      -3.961  -5.240  -1.445  0.00  0.00    +0.044 A 
ATOM     19 CL   UNL     1      -4.500  -7.732  -2.352  0.00  0.00    -0.082 Cl
BRANCH  16  20
ATOM     20  N   UNL     1      -4.798  -6.218  -4.893  0.00  0.00    -0.335 N 
ATOM     21  C   UNL     1      -3.741  -6.804  -5.720  0.00  0.00    +0.129 C 
ATOM     22  C   UNL     1      -6.205  -6.457  -5.224  0.00  0.00    +0.129 C 
ENDBRANCH  16  20
ENDBRANCH   1  13
TORSDOF 4
