REMARK  Name = ZINC12408494
REMARK  7 active torsions:
REMARK  status: ('A' for Active; 'I' for Inactive)
REMARK    1  A    between atoms: C_1  and  C_2
REMARK    2  A    between atoms: C_2  and  C_27
REMARK    3  A    between atoms: C_4  and  N_9
REMARK    4  A    between atoms: C_6  and  C_7
REMARK    5  A    between atoms: C_6  and  C_8
REMARK    6  A    between atoms: C_10  and  C_12
REMARK    7  A    between atoms: C_14  and  C_17
REMARK                            x       y       z     vdW  Elec       q    Type
REMARK                         _______ _______ _______ _____ _____    ______ ____
ROOT
ATOM      1  N   UNL     1       6.770  -0.421  -0.063  0.00  0.00    -0.305 N 
ATOM      2  C   UNL     1       6.027   0.703  -0.050  0.00  0.00    +0.302 C 
ATOM      3  O   UNL     1       6.570   1.790  -0.049  0.00  0.00    -0.265 OA
ATOM      4  H   UNL     1       6.337  -1.289  -0.063  0.00  0.00    +0.149 HD
ENDROOT
BRANCH   1   8
ATOM      5  C   UNL     1      10.841  -0.611   1.605  0.00  0.00    -0.010 C 
ATOM      6  C   UNL     1      10.348  -1.555   0.503  0.00  0.00    -0.072 C 
ATOM      7  C   UNL     1       8.822  -1.611   0.522  0.00  0.00    +0.009 C 
ATOM      8  C   UNL     1       8.236  -0.333  -0.075  0.00  0.00    +0.071 C 
ATOM      9  C   UNL     1       8.720  -0.205  -1.520  0.00  0.00    +0.009 C 
ATOM     10  C   UNL     1      10.244  -0.134  -1.565  0.00  0.00    -0.072 C 
ATOM     11  C   UNL     1      10.706   1.256  -1.113  0.00  0.00    -0.010 C 
ATOM     12  C   UNL     1      10.673  -0.301  -3.040  0.00  0.00    -0.010 C 
ATOM     13  C   UNL     1      10.870  -2.969   0.845  0.00  0.00    -0.010 C 
ATOM     14  N   UNL     1      10.945  -1.211  -0.816  0.00  0.00    +0.386 N 
ATOM     15  H   UNL     1      10.941  -2.058  -1.397  0.00  0.00    -0.084 HD
ATOM     16  H   UNL     1      11.913  -0.910  -0.658  0.00  0.00    -0.084 HD
ENDBRANCH   1   8
BRANCH   2  17
ATOM     17  C   UNL     1       4.547   0.613  -0.037  0.00  0.00    +0.314 A 
ATOM     18  N   UNL     1       3.701   1.622  -0.024  0.00  0.00    -0.183 NA
ATOM     19  C   UNL     1       2.473   1.065  -0.015  0.00  0.00    +0.203 A 
ATOM     20  N   UNL     1       2.634  -0.235  -0.018  0.00  0.00    -0.055 NA
ATOM     21  O   UNL     1       3.815  -0.511  -0.036  0.00  0.00    -0.328 OA
BRANCH  19  22
ATOM     22  C   UNL     1       1.179   1.790   0.000  0.00  0.00    +0.024 A 
ATOM     23  C   UNL     1       1.166   3.189   0.007  0.00  0.00    +0.012 A 
ATOM     24  C   UNL     1      -0.016   3.868   0.021  0.00  0.00    +0.011 A 
ATOM     25  C   UNL     1      -1.224   3.165   0.030  0.00  0.00    -0.000 A 
ATOM     26  C   UNL     1      -2.632   3.567   0.045  0.00  0.00    +0.027 A 
ATOM     27  C   UNL     1      -3.363   2.440   0.047  0.00  0.00    +0.083 A 
ATOM     28  N   UNL     1      -2.538   1.349   0.034  0.00  0.00    -0.361 N 
ATOM     29  H   UNL     1      -2.836   0.425   0.033  0.00  0.00    +0.165 HD
ATOM     30  C   UNL     1      -1.223   1.757   0.017  0.00  0.00    +0.047 A 
ATOM     31  C   UNL     1      -0.013   1.076   0.008  0.00  0.00    +0.038 A 
ENDBRANCH  19  22
ENDBRANCH   2  17
TORSDOF 3
