REMARK  Name = ZINC06076935
REMARK  12 active torsions:
REMARK  status: ('A' for Active; 'I' for Inactive)
REMARK    1  A    between atoms: C_1  and  C_2
REMARK    2  A    between atoms: C_2  and  C_3
REMARK    3  A    between atoms: C_2  and  C_4
REMARK    4  A    between atoms: C_4  and  C_5
REMARK    5  A    between atoms: C_5  and  N_6
REMARK    6  A    between atoms: C_7  and  C_9
REMARK    7  A    between atoms: C_9  and  C_11
REMARK    8  A    between atoms: C_9  and  N_17
REMARK    9  A    between atoms: N_17  and  C_18
REMARK   10  A    between atoms: C_24  and  C_26
REMARK   11  A    between atoms: C_27  and  N_34
REMARK   12  A    between atoms: C_28  and  C_31
REMARK                            x       y       z     vdW  Elec       q    Type
REMARK                         _______ _______ _______ _____ _____    ______ ____
ROOT
ATOM      1  N   UNL     1       2.455   3.934  -0.153  0.00  0.00    -0.251 N 
ATOM      2  C   UNL     1       3.366   3.339  -0.949  0.00  0.00    +0.262 C 
ATOM      3  O   UNL     1       3.973   3.995  -1.775  0.00  0.00    -0.269 OA
ENDROOT
BRANCH   1   4
ATOM      4  C   UNL     1       1.838   3.206   0.869  0.00  0.00    +0.038 A 
ATOM      5  C   UNL     1       2.243   3.377   2.187  0.00  0.00    +0.023 A 
ATOM      6  C   UNL     1       1.631   2.657   3.194  0.00  0.00    +0.002 A 
ATOM      7  C   UNL     1       0.621   1.763   2.892  0.00  0.00    +0.000 A 
ATOM      8  C   UNL     1       0.212   1.594   1.582  0.00  0.00    +0.002 A 
ATOM      9  C   UNL     1       0.819   2.311   0.569  0.00  0.00    +0.023 A 
ENDBRANCH   1   4
BRANCH   2  10
ATOM     10  C   UNL     1       3.625   1.904  -0.819  0.00  0.00    +0.116 A 
ATOM     11  C   UNL     1       4.421   1.073  -1.610  0.00  0.00    +0.076 A 
ATOM     12  C   UNL     1       4.419  -0.249  -1.166  0.00  0.00    +0.155 A 
ATOM     13  N   UNL     1       3.709  -0.571  -0.107  0.00  0.00    -0.203 NA
ATOM     14  S   UNL     1       3.015   0.752   0.394  0.00  0.00    +0.019 S 
BRANCH  12  15
ATOM     15  C   UNL     1       5.204  -1.275  -1.877  0.00  0.00    +0.262 C 
ATOM     16  O   UNL     1       5.858  -0.970  -2.856  0.00  0.00    -0.269 OA
ATOM     17  N   UNL     1       5.197  -2.550  -1.442  0.00  0.00    -0.324 N 
ATOM     18  H   UNL     1       4.675  -2.794  -0.661  0.00  0.00    +0.145 HD
ATOM     19  H   UNL     1       5.713  -3.225  -1.910  0.00  0.00    +0.145 HD
ENDBRANCH  12  15
BRANCH  11  20
ATOM     20  N   UNL     1       5.136   1.515  -2.715  0.00  0.00    -0.355 N 
ATOM     21  H   UNL     1       5.099   2.448  -2.976  0.00  0.00    +0.142 HD
ATOM     22  H   UNL     1       5.673   0.890  -3.227  0.00  0.00    +0.142 HD
ENDBRANCH  11  20
ENDBRANCH   2  10
BRANCH   1  23
ATOM     23  C   UNL     1       2.111   5.343  -0.359  0.00  0.00    +0.198 C 
BRANCH  23  24
ATOM     24  C   UNL     1       1.204   5.806   0.751  0.00  0.00    -0.015 A 
ATOM     25  C   UNL     1      -0.011   5.179   0.983  0.00  0.00    +0.025 A 
ATOM     26  C   UNL     1      -0.815   5.629   2.013  0.00  0.00    +0.111 A 
ATOM     27  N   UNL     1      -0.443   6.648   2.764  0.00  0.00    -0.263 NA
ATOM     28  C   UNL     1       0.703   7.271   2.568  0.00  0.00    +0.111 A 
ATOM     29  C   UNL     1       1.561   6.874   1.560  0.00  0.00    +0.025 A 
ENDBRANCH  23  24
BRANCH  23  31
ATOM     30  N   UNL     1       0.994   6.718  -2.086  0.00  0.00    -0.313 N 
ATOM     31  C   UNL     1       1.407   5.500  -1.683  0.00  0.00    +0.238 C 
ATOM     32  O   UNL     1       1.211   4.530  -2.384  0.00  0.00    -0.273 OA
ATOM     33  H   UNL     1       1.151   7.493  -1.525  0.00  0.00    +0.149 HD
BRANCH  30  34
ATOM     34  C   UNL     1       0.310   6.870  -3.372  0.00  0.00    +0.104 C 
BRANCH  34  35
ATOM     35  C   UNL     1      -0.049   8.341  -3.588  0.00  0.00    +0.022 C 
BRANCH  35  37
ATOM     36  C   UNL     1      -2.102   7.760  -4.888  0.00  0.00    +0.007 C 
ATOM     37  C   UNL     1      -0.764   8.501  -4.931  0.00  0.00    -0.016 C 
ATOM     38  C   UNL     1      -1.012   9.986  -5.204  0.00  0.00    +0.007 C 
ENDBRANCH  35  37
ENDBRANCH  34  35
ENDBRANCH  30  34
ENDBRANCH  23  31
ENDBRANCH   1  23
TORSDOF 10
