REMARK  Name = ZINC20676563
REMARK  6 active torsions:
REMARK  status: ('A' for Active; 'I' for Inactive)
REMARK    1  A    between atoms: C_6  and  N_7
REMARK    2  A    between atoms: C_8  and  C_10
REMARK    3  A    between atoms: C_10  and  C_11
REMARK    4  A    between atoms: C_19  and  C_21
REMARK    5  A    between atoms: C_21  and  N_22
REMARK    6  A    between atoms: N_25  and  C_28
REMARK                            x       y       z     vdW  Elec       q    Type
REMARK                         _______ _______ _______ _____ _____    ______ ____
ROOT
ATOM      1  C   UNL     1       6.010   2.064  -0.360  0.00  0.00    +0.170 C 
ATOM      2  C   UNL     1       7.324   1.333  -0.381  0.00  0.00    +0.234 C 
ATOM      3  O   UNL     1       7.725   0.833   0.649  0.00  0.00    -0.274 OA
ATOM      4  N   UNL     1       8.070   1.209  -1.480  0.00  0.00    -0.312 N 
ATOM      5  C   UNL     1       7.764   1.830  -2.761  0.00  0.00    +0.123 C 
ATOM      6  C   UNL     1       6.275   2.170  -2.857  0.00  0.00    +0.127 C 
ATOM      7  N   UNL     1       5.874   2.834  -1.606  0.00  0.00    -0.289 N 
ATOM      8  C   UNL     1       5.400   4.096  -1.602  0.00  0.00    +0.200 C 
ATOM      9  O   UNL     1       5.076   4.619  -0.557  0.00  0.00    -0.278 OA
ATOM     10  H   UNL     1       8.971   0.587  -1.371  0.00  0.00    +0.149 HD
ENDROOT
BRANCH   1  11
ATOM     11  C   UNL     1       4.864   1.056  -0.253  0.00  0.00    +0.128 C 
BRANCH  11  13
ATOM     12  N   UNL     1       2.403   1.106  -0.015  0.00  0.00    -0.285 N 
ATOM     13  C   UNL     1       3.556   1.794  -0.124  0.00  0.00    +0.219 C 
ATOM     14  O   UNL     1       3.542   3.006  -0.117  0.00  0.00    -0.275 OA
ATOM     15  H   UNL     1       2.421   0.008   0.057  0.00  0.00    +0.155 HD
BRANCH  12  21
ATOM     16  C   UNL     1       0.059   1.225  -0.586  0.00  0.00    +0.025 A 
ATOM     17  C   UNL     1      -1.145   1.902  -0.567  0.00  0.00    +0.022 A 
ATOM     18  C   UNL     1      -1.236   3.135   0.055  0.00  0.00    +0.041 A 
ATOM     19  C   UNL     1      -0.119   3.699   0.647  0.00  0.00    +0.022 A 
ATOM     20  C   UNL     1       1.088   3.028   0.626  0.00  0.00    +0.025 A 
ATOM     21  C   UNL     1       1.181   1.788   0.008  0.00  0.00    +0.033 A 
ATOM     22 CL   UNL     1      -2.752   3.980   0.085  0.00  0.00    -0.084 Cl
ENDBRANCH  12  21
ENDBRANCH  11  13
ENDBRANCH   1  11
BRANCH   8  23
ATOM     23  C   UNL     1       5.273   4.857  -2.896  0.00  0.00    +0.019 C 
BRANCH  23  24
ATOM     24  N   UNL     1       4.738   6.198  -2.626  0.00  0.00    +0.387 N 
ATOM     25  C   UNL     1       3.356   6.123  -2.131  0.00  0.00    -0.059 C 
ATOM     26  C   UNL     1       2.863   7.531  -1.786  0.00  0.00    +0.086 C 
ATOM     27  N   UNL     1       2.946   8.382  -2.981  0.00  0.00    -0.333 N 
ATOM     28  C   UNL     1       4.328   8.457  -3.476  0.00  0.00    +0.086 C 
ATOM     29  C   UNL     1       4.821   7.050  -3.820  0.00  0.00    -0.059 C 
ATOM     30  H   UNL     1       5.356   6.655  -1.839  0.00  0.00    -0.081 HD
BRANCH  27  31
ATOM     31  C   UNL     1       2.437   9.658  -2.723  0.00  0.00    +0.030 A 
ATOM     32  C   UNL     1       3.228  10.779  -2.938  0.00  0.00    +0.024 A 
ATOM     33  C   UNL     1       2.719  12.039  -2.689  0.00  0.00    +0.022 A 
ATOM     34  C   UNL     1       1.428  12.184  -2.213  0.00  0.00    +0.041 A 
ATOM     35  C   UNL     1       0.640  11.068  -1.993  0.00  0.00    +0.022 A 
ATOM     36  C   UNL     1       1.141   9.806  -2.247  0.00  0.00    +0.024 A 
ATOM     37 CL   UNL     1       0.795  13.768  -1.893  0.00  0.00    -0.084 Cl
ENDBRANCH  27  31
ENDBRANCH  23  24
ENDBRANCH   8  23
TORSDOF 6
