REMARK  Name = ZINC33810627
REMARK  12 active torsions:
REMARK  status: ('A' for Active; 'I' for Inactive)
REMARK    1  A    between atoms: C_1  and  C_2
REMARK    2  A    between atoms: C_2  and  O_3
REMARK    3  A    between atoms: O_3  and  C_4
REMARK    4  A    between atoms: C_7  and  C_12
REMARK    5  A    between atoms: C_9  and  O_10
REMARK    6  A    between atoms: O_10  and  C_11
REMARK    7  A    between atoms: C_17  and  S_21
REMARK    8  A    between atoms: S_21  and  C_22
REMARK    9  A    between atoms: C_22  and  C_23
REMARK   10  A    between atoms: C_26  and  C_29
REMARK   11  A    between atoms: C_36  and  C_38
REMARK   12  A    between atoms: C_36  and  C_39
REMARK                            x       y       z     vdW  Elec       q    Type
REMARK                         _______ _______ _______ _____ _____    ______ ____
ROOT
ATOM      1  C   UNL     1      -1.333   2.112   0.020  0.00  0.00    +0.093 C 
ATOM      2  C   UNL     1      -1.430   2.929   1.274  0.00  0.00    +0.069 A 
ATOM      3  C   UNL     1      -1.230   4.274   1.250  0.00  0.00    +0.135 A 
ATOM      4  N   UNL     1      -1.320   4.987   2.417  0.00  0.00    -0.208 NA
ATOM      5  C   UNL     1      -1.609   4.350   3.586  0.00  0.00    +0.171 A 
ATOM      6  N   UNL     1      -1.808   3.049   3.621  0.00  0.00    -0.302 N 
ATOM      7  C   UNL     1      -1.731   2.308   2.505  0.00  0.00    +0.258 A 
ATOM      8  O   UNL     1      -1.920   1.101   2.554  0.00  0.00    -0.267 OA
ATOM      9  N   UNL     1      -0.939   4.910   0.066  0.00  0.00    -0.302 N 
ATOM     10  C   UNL     1      -1.218   4.314  -1.134  0.00  0.00    +0.017 C 
ATOM     11  C   UNL     1      -1.423   2.981  -1.209  0.00  0.00    +0.024 C 
ATOM     12  C   UNL     1      -1.727   2.363  -2.434  0.00  0.00    +0.162 C 
ATOM     13  O   UNL     1      -1.901   1.161  -2.468  0.00  0.00    -0.292 OA
ATOM     14  C   UNL     1      -1.840   3.161  -3.704  0.00  0.00    +0.086 C 
ATOM     15  C   UNL     1      -2.286   4.586  -3.360  0.00  0.00    -0.023 C 
ATOM     16  C   UNL     1      -1.286   5.181  -2.367  0.00  0.00    +0.058 C 
ATOM     17  C   UNL     1      -3.679   4.550  -2.728  0.00  0.00    +0.011 C 
ATOM     18  C   UNL     1      -2.320   5.440  -4.629  0.00  0.00    +0.011 C 
ATOM     19  H   UNL     1      -0.478   5.909   0.076  0.00  0.00    +0.153 HD
ATOM     20  H   UNL     1      -2.041   2.553   4.576  0.00  0.00    +0.171 HD
ENDROOT
BRANCH   1  24
ATOM     21  C   UNL     1       2.405   0.035  -0.021  0.00  0.00    +0.162 A 
ATOM     22  C   UNL     1       2.379   1.420  -0.013  0.00  0.00    +0.050 A 
ATOM     23  C   UNL     1       1.169   2.089   0.002  0.00  0.00    +0.008 A 
ATOM     24  C   UNL     1      -0.017   1.378   0.010  0.00  0.00    -0.032 A 
ATOM     25  C   UNL     1       0.002  -0.004   0.002  0.00  0.00    +0.054 A 
ATOM     26  C   UNL     1       1.211  -0.680  -0.013  0.00  0.00    +0.162 A 
BRANCH  26  27
ATOM     27  O   UNL     1       1.232  -2.040  -0.021  0.00  0.00    -0.491 OA
ATOM     28  C   UNL     1      -0.032  -2.708  -0.013  0.00  0.00    +0.277 C 
ENDBRANCH  26  27
BRANCH  21  29
ATOM     29  O   UNL     1       3.594  -0.625  -0.036  0.00  0.00    -0.489 OA
BRANCH  29  31
ATOM     30  C   UNL     1       6.008  -0.736  -0.060  0.00  0.00    +0.048 C 
ATOM     31  C   UNL     1       4.779   0.174  -0.043  0.00  0.00    +0.226 C 
ENDBRANCH  29  31
ENDBRANCH  21  29
ENDBRANCH   1  24
BRANCH   5  32
ATOM     32  S   UNL     1      -1.719   5.283   5.076  0.00  0.00    -0.083 S 
BRANCH  32  33
ATOM     33  C   UNL     1      -2.110   3.960   6.248  0.00  0.00    +0.112 C 
BRANCH  33  34
ATOM     34  C   UNL     1      -2.255   4.540   7.631  0.00  0.00    -0.037 A 
ATOM     35  C   UNL     1      -1.154   4.628   8.462  0.00  0.00    +0.005 A 
ATOM     36  C   UNL     1      -1.286   5.164   9.729  0.00  0.00    +0.003 A 
ATOM     37  C   UNL     1      -2.520   5.604  10.169  0.00  0.00    -0.050 A 
ATOM     38  C   UNL     1      -3.622   5.511   9.340  0.00  0.00    +0.003 A 
ATOM     39  C   UNL     1      -3.490   4.979   8.071  0.00  0.00    +0.005 A 
ATOM     40  C   UNL     1      -2.665   6.184  11.552  0.00  0.00    +0.044 C 
ENDBRANCH  33  34
ENDBRANCH  32  33
ENDBRANCH   5  32
TORSDOF 7
