REMARK  Name = ZINC43424727
REMARK  6 active torsions:
REMARK  status: ('A' for Active; 'I' for Inactive)
REMARK    1  A    between atoms: C_1  and  C_2
REMARK    2  A    between atoms: C_2  and  C_3
REMARK    3  A    between atoms: C_2  and  O_4
REMARK    4  A    between atoms: O_4  and  C_5
REMARK    5  A    between atoms: C_6  and  N_23
REMARK    6  A    between atoms: C_9  and  N_11
REMARK                            x       y       z     vdW  Elec       q    Type
REMARK                         _______ _______ _______ _____ _____    ______ ____
ROOT
ATOM      1  C   UNL     1      -1.534  -1.808  -0.418  0.00  0.00    +0.238 A 
ATOM      2  C   UNL     1      -2.847  -2.226  -0.621  0.00  0.00    +0.087 A 
ATOM      3  C   UNL     1      -3.088  -3.329  -1.432  0.00  0.00    +0.031 A 
ATOM      4  C   UNL     1      -2.007  -3.975  -2.010  0.00  0.00    +0.046 A 
ATOM      5  C   UNL     1      -0.724  -3.504  -1.763  0.00  0.00    +0.126 A 
ATOM      6  N   UNL     1      -0.527  -2.446  -0.990  0.00  0.00    -0.196 NA
ENDROOT
BRANCH   5   7
ATOM      7  N   UNL     1       0.368  -4.148  -2.340  0.00  0.00    -0.307 N 
ATOM      8  C   UNL     1       1.716  -3.559  -2.286  0.00  0.00    +0.135 C 
ATOM      9  C   UNL     1       2.692  -4.617  -1.761  0.00  0.00    +0.179 C 
ATOM     10  O   UNL     1       2.549  -5.817  -2.526  0.00  0.00    -0.373 OA
ATOM     11  C   UNL     1       1.252  -6.407  -2.441  0.00  0.00    +0.139 C 
ATOM     12  C   UNL     1       0.217  -5.447  -3.022  0.00  0.00    +0.104 C 
ATOM     13  C   UNL     1       0.493  -5.242  -4.514  0.00  0.00    +0.025 C 
ATOM     14  C   UNL     1       0.438  -6.587  -5.240  0.00  0.00    +0.002 C 
ATOM     15  C   UNL     1       1.506  -7.518  -4.661  0.00  0.00    +0.003 C 
ATOM     16  C   UNL     1       1.217  -7.731  -3.197  0.00  0.00    +0.033 C 
ENDBRANCH   5   7
BRANCH   2  17
ATOM     17  N   UNL     1      -3.913  -1.542  -0.016  0.00  0.00    -0.354 N 
ATOM     18  H   UNL     1      -3.737  -0.774   0.549  0.00  0.00    +0.142 HD
ATOM     19  H   UNL     1      -4.824  -1.839  -0.162  0.00  0.00    +0.142 HD
ENDBRANCH   2  17
BRANCH   1  20
ATOM     20  O   UNL     1      -1.286  -0.731   0.372  0.00  0.00    -0.472 OA
BRANCH  20  22
ATOM     21  C   UNL     1       0.164   1.162   0.763  0.00  0.00    +0.051 C 
ATOM     22  C   UNL     1       0.081  -0.349   0.537  0.00  0.00    +0.169 C 
ATOM     23  C   UNL     1       0.673  -1.079   1.744  0.00  0.00    +0.051 C 
ENDBRANCH  20  22
ENDBRANCH   1  20
TORSDOF 4
