REMARK  Name = ZINC20154788
REMARK  11 active torsions:
REMARK  status: ('A' for Active; 'I' for Inactive)
REMARK    1  A    between atoms: C_1  and  O_2
REMARK    2  A    between atoms: O_2  and  C_3
REMARK    3  A    between atoms: C_8  and  O_9
REMARK    4  A    between atoms: O_9  and  C_10
REMARK    5  A    between atoms: C_10  and  C_11
REMARK    6  A    between atoms: C_11  and  C_12
REMARK    7  A    between atoms: C_12  and  O_13
REMARK    8  A    between atoms: O_13  and  C_14
REMARK    9  A    between atoms: C_17  and  C_20
REMARK   10  A    between atoms: C_31  and  S_32
REMARK   11  A    between atoms: S_32  and  C_33
REMARK                            x       y       z     vdW  Elec       q    Type
REMARK                         _______ _______ _______ _____ _____    ______ ____
ROOT
ATOM      1  C   UNL     1       2.810  -8.377   0.668  0.00  0.00    +0.121 A 
ATOM      2  C   UNL     1       1.571  -8.942   0.385  0.00  0.00    +0.046 A 
ATOM      3  C   UNL     1       1.468 -10.286   0.139  0.00  0.00    +0.011 A 
ATOM      4  C   UNL     1       2.614 -11.093   0.174  0.00  0.00    -0.024 A 
ATOM      5  C   UNL     1       3.861 -10.517   0.460  0.00  0.00    +0.011 A 
ATOM      6  C   UNL     1       3.952  -9.171   0.699  0.00  0.00    +0.046 A 
ENDROOT
BRANCH   4   7
ATOM      7  C   UNL     1       2.511 -12.530  -0.087  0.00  0.00    +0.024 C 
ATOM      8  C   UNL     1       3.509 -13.178  -0.779  0.00  0.00    +0.079 C 
ATOM      9  C   UNL     1       3.539 -14.664  -0.912  0.00  0.00    +0.137 C 
ATOM     10  N   UNL     1       2.465 -15.402  -0.974  0.00  0.00    -0.284 NA
ATOM     11  N   UNL     1       4.846 -15.189  -0.964  0.00  0.00    -0.211 N 
ATOM     12  C   UNL     1       5.871 -14.361  -1.376  0.00  0.00    +0.183 C 
ATOM     13  N   UNL     1       5.782 -13.075  -1.638  0.00  0.00    -0.152 NA
ATOM     14  C   UNL     1       4.612 -12.437  -1.441  0.00  0.00    +0.273 C 
ATOM     15  O   UNL     1       4.462 -11.278  -1.793  0.00  0.00    -0.268 OA
ATOM     16  S   UNL     1       7.191 -15.378  -1.428  0.00  0.00    +0.048 S 
ATOM     17  N   UNL     1       6.482 -16.778  -0.841  0.00  0.00    -0.185 NA
ATOM     18  C   UNL     1       5.231 -16.453  -0.657  0.00  0.00    +0.175 C 
ATOM     19  H   UNL     1       1.589 -14.988  -0.933  0.00  0.00    +0.188 HD
BRANCH  18  20
ATOM     20  S   UNL     1       4.074 -17.624  -0.028  0.00  0.00    -0.093 S 
ATOM     21  C   UNL     1       5.060 -19.127   0.216  0.00  0.00    +0.093 C 
ENDBRANCH  18  20
ENDBRANCH   4   7
BRANCH   1  22
ATOM     22  O   UNL     1       2.906  -7.045   0.911  0.00  0.00    -0.492 OA
BRANCH  22  23
ATOM     23  C   UNL     1       1.695  -6.288   0.865  0.00  0.00    +0.232 C 
BRANCH  23  24
ATOM     24  C   UNL     1       2.000  -4.819   1.161  0.00  0.00    +0.082 C 
BRANCH  24  25
ATOM     25  C   UNL     1       0.703  -4.008   1.112  0.00  0.00    +0.232 C 
BRANCH  25  26
ATOM     26  O   UNL     1       0.988  -2.636   1.389  0.00  0.00    -0.488 OA
BRANCH  26  32
ATOM     27  C   UNL     1       0.142  -0.422   1.646  0.00  0.00    +0.161 A 
ATOM     28  C   UNL     1      -0.932   0.453   1.634  0.00  0.00    +0.049 A 
ATOM     29  C   UNL     1      -2.205  -0.017   1.367  0.00  0.00    +0.004 A 
ATOM     30  C   UNL     1      -2.409  -1.361   1.112  0.00  0.00    +0.004 A 
ATOM     31  C   UNL     1      -1.342  -2.240   1.123  0.00  0.00    +0.049 A 
ATOM     32  C   UNL     1      -0.063  -1.774   1.384  0.00  0.00    +0.162 A 
BRANCH  27  34
ATOM     33  C   UNL     1       1.529   1.437   2.168  0.00  0.00    +0.277 C 
ATOM     34  O   UNL     1       1.394   0.039   1.908  0.00  0.00    -0.491 OA
ENDBRANCH  27  34
ENDBRANCH  26  32
ENDBRANCH  25  26
ENDBRANCH  24  25
ENDBRANCH  23  24
ENDBRANCH  22  23
ENDBRANCH   1  22
TORSDOF 9
