REMARK  Name = ZINC36858654
REMARK  7 active torsions:
REMARK  status: ('A' for Active; 'I' for Inactive)
REMARK    1  A    between atoms: C_3  and  C_6
REMARK    2  A    between atoms: C_9  and  S_17
REMARK    3  A    between atoms: N_10  and  C_11
REMARK    4  A    between atoms: S_17  and  C_18
REMARK    5  A    between atoms: C_18  and  C_19
REMARK    6  A    between atoms: N_21  and  C_22
REMARK    7  A    between atoms: C_25  and  C_28
REMARK                            x       y       z     vdW  Elec       q    Type
REMARK                         _______ _______ _______ _____ _____    ______ ____
ROOT
ATOM      1  S   UNL     1       7.112  -0.992   0.327  0.00  0.00    -0.077 S 
ENDROOT
BRANCH   1   5
ATOM      2  C   UNL     1       3.568   0.613  -0.051  0.00  0.00    +0.201 A 
ATOM      3  N   UNL     1       4.372   1.617  -0.327  0.00  0.00    -0.125 NA
ATOM      4  N   UNL     1       5.596   1.234  -0.242  0.00  0.00    -0.122 NA
ATOM      5  C   UNL     1       5.651  -0.035   0.093  0.00  0.00    +0.193 A 
ATOM      6  N   UNL     1       4.364  -0.475   0.233  0.00  0.00    -0.297 N 
BRANCH   6   7
ATOM      7  C   UNL     1       3.923  -1.822   0.603  0.00  0.00    +0.091 C 
ATOM      8  C   UNL     1       4.474  -2.176   1.986  0.00  0.00    +0.025 C 
ATOM      9  C   UNL     1       4.013  -3.583   2.372  0.00  0.00    +0.002 C 
ATOM     10  C   UNL     1       4.532  -4.590   1.343  0.00  0.00    +0.000 C 
ATOM     11  C   UNL     1       3.981  -4.236  -0.040  0.00  0.00    +0.002 C 
ATOM     12  C   UNL     1       4.441  -2.829  -0.426  0.00  0.00    +0.025 C 
ENDBRANCH   6   7
BRANCH   2  15
ATOM     13  C   UNL     1      -0.017   1.337  -0.028  0.00  0.00    +0.042 A 
ATOM     14  C   UNL     1       1.323   1.770  -0.038  0.00  0.00    +0.053 A 
ATOM     15  C   UNL     1       2.097   0.648  -0.041  0.00  0.00    +0.172 A 
ATOM     16  O   UNL     1       1.280  -0.424  -0.033  0.00  0.00    -0.460 OA
ATOM     17  C   UNL     1       0.002  -0.011  -0.025  0.00  0.00    +0.196 A 
ENDBRANCH   2  15
ENDBRANCH   1   5
BRANCH   1  18
ATOM     18  C   UNL     1       8.459   0.178   0.000  0.00  0.00    +0.173 C 
BRANCH  18  19
ATOM     19  C   UNL     1       9.784  -0.521   0.168  0.00  0.00    +0.227 C 
ATOM     20  O   UNL     1       9.816  -1.693   0.477  0.00  0.00    -0.275 OA
ATOM     21  N   UNL     1      10.933   0.156  -0.026  0.00  0.00    -0.285 N 
ATOM     22  H   UNL     1      10.908   1.074  -0.338  0.00  0.00    +0.155 HD
BRANCH  21  23
ATOM     23  C   UNL     1      12.157  -0.463   0.222  0.00  0.00    +0.033 A 
ATOM     24  C   UNL     1      12.318  -1.817  -0.051  0.00  0.00    +0.024 A 
ATOM     25  C   UNL     1      13.526  -2.432   0.192  0.00  0.00    +0.015 A 
ATOM     26  C   UNL     1      14.591  -1.693   0.715  0.00  0.00    +0.037 A 
ATOM     27  C   UNL     1      14.426  -0.332   0.988  0.00  0.00    +0.015 A 
ATOM     28  C   UNL     1      13.217   0.277   0.737  0.00  0.00    +0.024 A 
BRANCH  26  29
ATOM     29  C   UNL     1      15.887  -2.348   0.977  0.00  0.00    +0.242 C 
ATOM     30  O   UNL     1      16.029  -3.532   0.740  0.00  0.00    -0.270 OA
ATOM     31  N   UNL     1      16.913  -1.635   1.481  0.00  0.00    -0.325 N 
ATOM     32  H   UNL     1      16.800  -0.690   1.671  0.00  0.00    +0.145 HD
ATOM     33  H   UNL     1      17.765  -2.065   1.654  0.00  0.00    +0.145 HD
ENDBRANCH  26  29
ENDBRANCH  21  23
ENDBRANCH  18  19
ENDBRANCH   1  18
TORSDOF 7
