REMARK  Name = ZINC39672933
REMARK  10 active torsions:
REMARK  status: ('A' for Active; 'I' for Inactive)
REMARK    1  A    between atoms: C_1  and  C_2
REMARK    2  A    between atoms: C_2  and  C_3
REMARK    3  A    between atoms: C_3  and  C_4
REMARK    4  A    between atoms: C_4  and  C_5
REMARK    5  A    between atoms: C_5  and  C_7
REMARK    6  A    between atoms: C_5  and  C_8
REMARK    7  A    between atoms: C_12  and  C_21
REMARK    8  A    between atoms: N_23  and  C_24
REMARK    9  A    between atoms: C_24  and  C_25
REMARK   10  A    between atoms: C_25  and  N_31
REMARK                            x       y       z     vdW  Elec       q    Type
REMARK                         _______ _______ _______ _____ _____    ______ ____
ROOT
ATOM      1  C   UNL     1      -2.638  -3.805  -0.365  0.00  0.00    +0.218 C 
ATOM      2  O   UNL     1      -1.574  -4.379  -0.452  0.00  0.00    -0.275 OA
ATOM      3  N   UNL     1      -3.783  -4.513  -0.306  0.00  0.00    -0.300 N 
ATOM      4  C   UNL     1      -5.168  -3.994  -0.206  0.00  0.00    +0.121 C 
ATOM      5  C   UNL     1      -5.999  -4.921  -1.121  0.00  0.00    +0.100 C 
ATOM      6  C   UNL     1      -5.191  -6.227  -1.196  0.00  0.00    -0.004 C 
ATOM      7  C   UNL     1      -3.943  -5.987  -0.334  0.00  0.00    +0.115 C 
ATOM      8  C   UNL     1      -4.782  -6.514  -2.637  0.00  0.00    -0.010 C 
ATOM      9  C   UNL     1      -4.029  -7.846  -2.694  0.00  0.00    -0.082 C 
ATOM     10  N   UNL     1      -4.891  -8.920  -2.185  0.00  0.00    +0.379 N 
ATOM     11  C   UNL     1      -5.204  -8.684  -0.771  0.00  0.00    -0.082 C 
ATOM     12  C   UNL     1      -6.007  -7.387  -0.633  0.00  0.00    -0.010 C 
ATOM     13  H   UNL     1      -5.748  -8.943  -2.719  0.00  0.00    -0.086 HD
ATOM     14  H   UNL     1      -4.416  -9.805  -2.280  0.00  0.00    -0.086 HD
ENDROOT
BRANCH   5  15
ATOM     15  C   UNL     1      -6.144  -4.312  -2.492  0.00  0.00    +0.218 C 
ATOM     16  O   UNL     1      -5.289  -3.564  -2.917  0.00  0.00    -0.275 OA
ATOM     17  N   UNL     1      -7.223  -4.599  -3.247  0.00  0.00    -0.313 N 
ATOM     18  H   UNL     1      -7.907  -5.197  -2.907  0.00  0.00    +0.149 HD
BRANCH  17  19
ATOM     19  C   UNL     1      -7.364  -4.007  -4.579  0.00  0.00    +0.126 C 
BRANCH  19  20
ATOM     20  C   UNL     1      -8.726  -4.386  -5.165  0.00  0.00    +0.038 C 
ATOM     21  C   UNL     1      -8.821  -3.879  -6.605  0.00  0.00    +0.024 C 
ATOM     22  C   UNL     1      -8.664  -2.357  -6.621  0.00  0.00    +0.002 C 
ATOM     23  C   UNL     1      -9.774  -1.721  -5.782  0.00  0.00    +0.000 C 
ATOM     24  C   UNL     1      -9.679  -2.228  -4.342  0.00  0.00    +0.002 C 
ATOM     25  C   UNL     1      -9.836  -3.749  -4.326  0.00  0.00    +0.024 C 
BRANCH  20  26
ATOM     26  N   UNL     1      -8.876  -5.847  -5.149  0.00  0.00    -0.291 NA
ATOM     27  C   UNL     1      -7.786  -6.497  -5.890  0.00  0.00    +0.113 C 
ATOM     28  C   UNL     1      -7.948  -8.016  -5.798  0.00  0.00    +0.175 C 
ATOM     29  O   UNL     1      -9.237  -8.384  -6.298  0.00  0.00    -0.377 OA
ATOM     30  C   UNL     1     -10.322  -7.770  -5.598  0.00  0.00    +0.175 C 
ATOM     31  C   UNL     1     -10.184  -6.248  -5.688  0.00  0.00    +0.113 C 
ENDBRANCH  20  26
ENDBRANCH  19  20
ENDBRANCH  17  19
ENDBRANCH   5  15
BRANCH   1  32
ATOM     32  C   UNL     1      -2.680  -2.299  -0.323  0.00  0.00    +0.072 C 
ATOM     33  C   UNL     1      -3.330  -1.843   0.985  0.00  0.00    +0.017 C 
BRANCH  32  34
ATOM     34  C   UNL     1      -1.256  -1.746  -0.405  0.00  0.00    +0.012 C 
BRANCH  34  35
ATOM     35  C   UNL     1      -1.305  -0.219  -0.488  0.00  0.00    +0.000 C 
BRANCH  35  37
ATOM     36  C   UNL     1       0.070   1.860  -0.653  0.00  0.00    +0.004 C 
ATOM     37  C   UNL     1       0.119   0.333  -0.570  0.00  0.00    -0.003 C 
ENDBRANCH  35  37
ENDBRANCH  34  35
ENDBRANCH  32  34
ENDBRANCH   1  32
TORSDOF 8
