REMARK  Name = ZINC08876618
REMARK  3 active torsions:
REMARK  status: ('A' for Active; 'I' for Inactive)
REMARK    1  A    between atoms: C_1  and  C_2
REMARK    2  A    between atoms: C_5  and  C_8
REMARK    3  A    between atoms: C_8  and  C_10
REMARK                            x       y       z     vdW  Elec       q    Type
REMARK                         _______ _______ _______ _____ _____    ______ ____
ROOT
ATOM      1  C   UNL     1       3.711   1.941  -0.079  0.00  0.00    +0.066 C 
ATOM      2  C   UNL     1       4.031   2.318  -1.542  0.00  0.00    -0.055 C 
ATOM      3  C   UNL     1       3.518   3.748  -1.802  0.00  0.00    -0.016 C 
ATOM      4  C   UNL     1       4.789   4.608  -1.990  0.00  0.00    -0.020 C 
ATOM      5  C   UNL     1       5.882   3.771  -1.280  0.00  0.00    -0.076 C 
ATOM      6  C   UNL     1       6.046   1.443  -0.616  0.00  0.00    +0.060 C 
ATOM      7  C   UNL     1       4.938   1.151   0.393  0.00  0.00    +0.085 C 
ATOM      8  C   UNL     1       4.639  -0.320   0.483  0.00  0.00    -0.011 A 
ATOM      9  C   UNL     1       4.230  -1.261  -0.435  0.00  0.00    +0.006 A 
ATOM     10  C   UNL     1       4.032  -2.573  -0.041  0.00  0.00    +0.000 A 
ATOM     11  C   UNL     1       4.246  -2.935   1.276  0.00  0.00    +0.002 A 
ATOM     12  C   UNL     1       4.656  -1.996   2.199  0.00  0.00    +0.023 A 
ATOM     13  C   UNL     1       4.857  -0.673   1.811  0.00  0.00    +0.038 A 
ATOM     14  N   UNL     1       5.262   0.442   2.547  0.00  0.00    -0.285 N 
ATOM     15  C   UNL     1       5.335   1.552   1.789  0.00  0.00    +0.228 C 
ATOM     16  O   UNL     1       5.658   2.662   2.159  0.00  0.00    -0.275 OA
ATOM     17  C   UNL     1       7.263   2.012   0.064  0.00  0.00    -0.027 A 
ATOM     18  C   UNL     1       7.480   3.142   0.820  0.00  0.00    +0.004 A 
ATOM     19  C   UNL     1       8.741   3.406   1.326  0.00  0.00    +0.000 A 
ATOM     20  C   UNL     1       9.781   2.532   1.069  0.00  0.00    +0.002 A 
ATOM     21  C   UNL     1       9.569   1.399   0.312  0.00  0.00    +0.023 A 
ATOM     22  C   UNL     1       8.302   1.126  -0.200  0.00  0.00    +0.036 A 
ATOM     23  N   UNL     1       7.843   0.063  -0.980  0.00  0.00    -0.286 N 
ATOM     24  C   UNL     1       6.534   0.173  -1.269  0.00  0.00    +0.212 C 
ATOM     25  O   UNL     1       5.872  -0.601  -1.927  0.00  0.00    -0.277 OA
ATOM     26  H   UNL     1       5.467   0.420   3.495  0.00  0.00    +0.155 HD
ATOM     27  H   UNL     1       8.404  -0.670  -1.279  0.00  0.00    +0.155 HD
ATOM     28  N   UNL     1       5.482   2.388  -1.604  0.00  0.00    +0.395 N 
ATOM     29  H   UNL     1       5.810   2.141  -2.545  0.00  0.00    -0.079 HD
ENDROOT
BRANCH   1  30
ATOM     30  C   UNL     1       2.475   1.081  -0.016  0.00  0.00    +0.166 C 
ATOM     31  O   UNL     1       2.130   0.444  -0.988  0.00  0.00    -0.292 OA
BRANCH  30  36
ATOM     32  C   UNL     1      -0.603   0.822   4.832  0.00  0.00    +0.044 C 
ATOM     33  C   UNL     1       0.204   0.890   3.561  0.00  0.00    -0.050 A 
ATOM     34  C   UNL     1      -0.129   0.079   2.490  0.00  0.00    +0.004 A 
ATOM     35  C   UNL     1       0.608   0.131   1.326  0.00  0.00    +0.011 A 
ATOM     36  C   UNL     1       1.688   1.014   1.225  0.00  0.00    +0.018 A 
ATOM     37  C   UNL     1       2.014   1.835   2.309  0.00  0.00    +0.011 A 
ATOM     38  C   UNL     1       1.271   1.767   3.469  0.00  0.00    +0.004 A 
ENDBRANCH  30  36
ENDBRANCH   1  30
TORSDOF 2
