REMARK  Name = ZINC17836192
REMARK  5 active torsions:
REMARK  status: ('A' for Active; 'I' for Inactive)
REMARK    1  A    between atoms: C_1  and  C_2
REMARK    2  A    between atoms: N_13  and  C_16
REMARK    3  A    between atoms: C_20  and  C_22
REMARK    4  A    between atoms: N_24  and  C_25
REMARK    5  A    between atoms: C_30  and  C_31
REMARK                            x       y       z     vdW  Elec       q    Type
REMARK                         _______ _______ _______ _____ _____    ______ ____
ROOT
ATOM      1  C   UNL     1      -0.527  -5.188   1.436  0.00  0.00    +0.045 A 
ATOM      2  C   UNL     1      -1.435  -5.157   2.487  0.00  0.00    +0.024 A 
ATOM      3  C   UNL     1      -2.182  -6.279   2.794  0.00  0.00    +0.003 A 
ATOM      4  C   UNL     1      -2.031  -7.437   2.059  0.00  0.00    +0.013 A 
ATOM      5  C   UNL     1      -1.121  -7.478   1.001  0.00  0.00    +0.039 A 
ATOM      6  C   UNL     1      -0.371  -6.344   0.688  0.00  0.00    +0.037 A 
ENDROOT
BRANCH   1  16
ATOM      7  C   UNL     1       0.096   1.490  -0.050  0.00  0.00    +0.007 C 
ATOM      8  C   UNL     1       0.112  -0.040  -0.031  0.00  0.00    -0.013 C 
ATOM      9  C   UNL     1       0.882  -0.551  -1.247  0.00  0.00    +0.004 C 
ATOM     10  C   UNL     1       0.858  -2.079  -1.224  0.00  0.00    +0.014 C 
ATOM     11  C   UNL     1       1.637  -2.593  -0.013  0.00  0.00    +0.088 C 
ATOM     12  C   UNL     1       1.159  -1.946   1.287  0.00  0.00    +0.088 C 
ATOM     13  C   UNL     1       0.765  -0.517   1.250  0.00  0.00    +0.016 C 
ATOM     14  C   UNL     1       0.035  -2.856   1.726  0.00  0.00    +0.230 C 
ATOM     15  O   UNL     1      -0.872  -2.567   2.478  0.00  0.00    -0.275 OA
ATOM     16  N   UNL     1       0.228  -4.047   1.128  0.00  0.00    -0.210 N 
ATOM     17  C   UNL     1       1.221  -4.049   0.200  0.00  0.00    +0.230 C 
ATOM     18  O   UNL     1       1.695  -5.016  -0.357  0.00  0.00    -0.275 OA
ENDBRANCH   1  16
BRANCH   5  19
ATOM     19  C   UNL     1      -0.957  -8.717   0.212  0.00  0.00    +0.248 C 
ATOM     20  O   UNL     1      -0.164  -8.750  -0.710  0.00  0.00    -0.270 OA
ATOM     21  N   UNL     1      -1.686  -9.810   0.513  0.00  0.00    -0.281 N 
ATOM     22  H   UNL     1      -2.363  -9.765   1.206  0.00  0.00    +0.155 HD
BRANCH  21  23
ATOM     23  C   UNL     1      -1.466 -11.008  -0.173  0.00  0.00    +0.045 A 
ATOM     24  C   UNL     1      -0.950 -10.988  -1.463  0.00  0.00    +0.024 A 
ATOM     25  C   UNL     1      -0.734 -12.173  -2.137  0.00  0.00    +0.002 A 
ATOM     26  C   UNL     1      -1.030 -13.380  -1.531  0.00  0.00    +0.001 A 
ATOM     27  C   UNL     1      -1.544 -13.404  -0.247  0.00  0.00    +0.014 A 
ATOM     28  C   UNL     1      -1.756 -12.222   0.436  0.00  0.00    +0.076 A 
BRANCH  28  29
ATOM     29  C   UNL     1      -2.310 -12.250   1.837  0.00  0.00    +0.419 C 
ATOM     30  F   UNL     1      -2.520 -13.576   2.230  0.00  0.00    -0.166 F 
ATOM     31  F   UNL     1      -1.399 -11.644   2.710  0.00  0.00    -0.166 F 
ATOM     32  F   UNL     1      -3.523 -11.555   1.873  0.00  0.00    -0.166 F 
ENDBRANCH  28  29
ENDBRANCH  21  23
ENDBRANCH   5  19
TORSDOF 4
