REMARK  Name = ZINC09602459
REMARK  6 active torsions:
REMARK  status: ('A' for Active; 'I' for Inactive)
REMARK    1  A    between atoms: C_1  and  C_2
REMARK    2  A    between atoms: C_8  and  N_10
REMARK    3  A    between atoms: N_10  and  C_11
REMARK    4  A    between atoms: C_11  and  N_13
REMARK    5  A    between atoms: N_13  and  C_14
REMARK    6  A    between atoms: N_18  and  C_19
REMARK                            x       y       z     vdW  Elec       q    Type
REMARK                         _______ _______ _______ _____ _____    ______ ____
ROOT
ATOM      1  N   UNL     1       0.002  -0.004   0.002  0.00  0.00    -0.282 N 
ATOM      2  H   UNL     1       0.837  -0.475  -0.148  0.00  0.00    +0.155 HD
ENDROOT
BRANCH   1   3
ATOM      3  C   UNL     1      -1.190  -0.718   0.115  0.00  0.00    +0.123 A 
ATOM      4  C   UNL     1      -2.340  -0.277   0.695  0.00  0.00    +0.065 A 
ATOM      5  C   UNL     1      -3.289  -1.298   0.595  0.00  0.00    +0.136 A 
ATOM      6  N   UNL     1      -2.737  -2.314  -0.019  0.00  0.00    -0.178 NA
ATOM      7  N   UNL     1      -1.416  -1.973  -0.337  0.00  0.00    -0.247 N 
BRANCH   7   8
ATOM      8  C   UNL     1      -0.450  -2.825  -1.033  0.00  0.00    +0.109 C 
ATOM      9  C   UNL     1      -0.989  -3.181  -2.420  0.00  0.00    +0.027 C 
ATOM     10  C   UNL     1       0.021  -4.071  -3.147  0.00  0.00    +0.002 C 
ATOM     11  C   UNL     1       0.242  -5.354  -2.342  0.00  0.00    +0.000 C 
ATOM     12  C   UNL     1       0.782  -4.998  -0.956  0.00  0.00    +0.002 C 
ATOM     13  C   UNL     1      -0.228  -4.108  -0.229  0.00  0.00    +0.027 C 
ENDBRANCH   7   8
ENDBRANCH   1   3
BRANCH   1  14
ATOM     14  C   UNL     1      -0.005   1.340   0.101  0.00  0.00    +0.136 C 
ATOM     15  S   UNL     1      -1.492   2.182   0.211  0.00  0.00    -0.019 S 
BRANCH  14  16
ATOM     16  N   UNL     1       1.157   2.022   0.109  0.00  0.00    -0.323 N 
ATOM     17  H   UNL     1       1.999   1.545   0.043  0.00  0.00    +0.148 HD
BRANCH  16  24
ATOM     18  C   UNL     1       2.656   3.344   2.205  0.00  0.00    +0.009 C 
ATOM     19  C   UNL     1       2.475   3.957   0.815  0.00  0.00    +0.006 C 
ATOM     20  C   UNL     1       3.628   3.519  -0.090  0.00  0.00    +0.005 C 
ATOM     21  C   UNL     1       3.447   4.132  -1.480  0.00  0.00    +0.000 C 
ATOM     22  C   UNL     1       2.122   3.658  -2.078  0.00  0.00    +0.002 C 
ATOM     23  C   UNL     1       0.968   4.096  -1.173  0.00  0.00    +0.022 C 
ATOM     24  C   UNL     1       1.149   3.483   0.217  0.00  0.00    +0.075 C 
ENDBRANCH  16  24
ENDBRANCH  14  16
ENDBRANCH   1  14
TORSDOF 5
