REMARK  Name = ZINC67148290
REMARK  5 active torsions:
REMARK  status: ('A' for Active; 'I' for Inactive)
REMARK    1  A    between atoms: C_3  and  N_10
REMARK    2  A    between atoms: C_5  and  N_7
REMARK    3  A    between atoms: C_12  and  C_15
REMARK    4  A    between atoms: N_17  and  C_18
REMARK    5  A    between atoms: C_18  and  C_19
REMARK                            x       y       z     vdW  Elec       q    Type
REMARK                         _______ _______ _______ _____ _____    ______ ____
ROOT
ATOM      1  N   UNL     1       3.586   2.125  -0.021  0.00  0.00    -0.219 N 
ATOM      2  C   UNL     1       3.728   3.464   0.084  0.00  0.00    +0.149 A 
ATOM      3  C   UNL     1       5.069   3.724   0.030  0.00  0.00    +0.167 A 
ATOM      4  N   UNL     1       5.723   2.558  -0.106  0.00  0.00    -0.124 NA
ATOM      5  N   UNL     1       4.877   1.589  -0.134  0.00  0.00    -0.060 NA
ENDROOT
BRANCH   1   8
ATOM      6  C   UNL     1      -0.017   1.378   0.010  0.00  0.00    +0.004 A 
ATOM      7  C   UNL     1       1.169   2.087   0.002  0.00  0.00    +0.028 A 
ATOM      8  C   UNL     1       2.381   1.409  -0.013  0.00  0.00    +0.069 A 
ATOM      9  C   UNL     1       2.396   0.021  -0.021  0.00  0.00    +0.060 A 
ATOM     10  C   UNL     1       1.207  -0.682  -0.013  0.00  0.00    +0.128 A 
ATOM     11  C   UNL     1       0.002  -0.004   0.002  0.00  0.00    +0.033 A 
BRANCH  10  12
ATOM     12  N   UNL     1       1.223  -2.162  -0.021  0.00  0.00    +0.056 N 
ATOM     13  O   UNL     1       2.277  -2.755  -0.035  0.00  0.00    -0.126 OA
ATOM     14  O   UNL     1       0.183  -2.778  -0.015  0.00  0.00    -0.126 OA
ENDBRANCH  10  12
ENDBRANCH   1   8
BRANCH   3  15
ATOM     15  C   UNL     1       5.691   5.059   0.107  0.00  0.00    +0.266 C 
ATOM     16  O   UNL     1       4.996   6.049   0.230  0.00  0.00    -0.268 OA
ATOM     17  N   UNL     1       7.032   5.182   0.042  0.00  0.00    -0.310 N 
ATOM     18  H   UNL     1       7.587   4.393  -0.056  0.00  0.00    +0.149 HD
BRANCH  17  19
ATOM     19  C   UNL     1       7.651   6.508   0.119  0.00  0.00    +0.108 C 
BRANCH  19  20
ATOM     20  C   UNL     1       9.171   6.367   0.021  0.00  0.00    +0.010 C 
ATOM     21  C   UNL     1       9.816   7.759  -0.015  0.00  0.00    +0.009 C 
ATOM     22  C   UNL     1      11.312   7.592  -0.291  0.00  0.00    +0.027 C 
ATOM     23  C   UNL     1      11.898   6.566   0.634  0.00  0.00    -0.031 C 
ATOM     24  C   UNL     1      11.196   5.705   1.300  0.00  0.00    -0.031 C 
ATOM     25  C   UNL     1       9.698   5.616   1.245  0.00  0.00    +0.032 C 
ENDBRANCH  19  20
ENDBRANCH  17  19
ENDBRANCH   3  15
TORSDOF 5
