REMARK  Name = ZINC02778657
REMARK  8 active torsions:
REMARK  status: ('A' for Active; 'I' for Inactive)
REMARK    1  A    between atoms: C_1  and  C_2
REMARK    2  A    between atoms: C_4  and  C_29
REMARK    3  A    between atoms: N_5  and  C_7
REMARK    4  A    between atoms: C_7  and  C_8
REMARK    5  A    between atoms: C_8  and  C_9
REMARK    6  A    between atoms: N_11  and  N_12
REMARK    7  A    between atoms: C_13  and  C_28
REMARK    8  A    between atoms: C_23  and  C_27
REMARK                            x       y       z     vdW  Elec       q    Type
REMARK                         _______ _______ _______ _____ _____    ______ ____
ROOT
ATOM      1  N   UNL     1      -4.471  -3.320  -2.585  0.00  0.00    -0.210 N 
ATOM      2  C   UNL     1      -5.691  -2.801  -2.877  0.00  0.00    +0.129 A 
ATOM      3  N   UNL     1      -6.761  -3.551  -2.882  0.00  0.00    -0.225 NA
ATOM      4  C   UNL     1      -6.687  -4.849  -2.600  0.00  0.00    +0.116 A 
ATOM      5  C   UNL     1      -5.470  -5.475  -2.287  0.00  0.00    +0.077 A 
ATOM      6  C   UNL     1      -4.316  -4.625  -2.295  0.00  0.00    +0.280 A 
ATOM      7  O   UNL     1      -3.212  -5.077  -2.039  0.00  0.00    -0.265 OA
ATOM      8  C   UNL     1      -5.542  -6.906  -1.998  0.00  0.00    -0.023 A 
ATOM      9  C   UNL     1      -6.761  -7.483  -2.061  0.00  0.00    -0.004 A 
ATOM     10  S   UNL     1      -7.868  -6.170  -2.502  0.00  0.00    -0.073 S 
ATOM     11  C   UNL     1      -7.098  -8.921  -1.812  0.00  0.00    +0.046 C 
ATOM     12  C   UNL     1      -5.796  -9.735  -1.832  0.00  0.00    -0.009 C 
ATOM     13  C   UNL     1      -4.758  -9.023  -0.960  0.00  0.00    +0.008 C 
ATOM     14  C   UNL     1      -4.308  -7.729  -1.640  0.00  0.00    +0.037 C 
ATOM     15  C   UNL     1      -6.059 -11.137  -1.280  0.00  0.00    +0.008 C 
ATOM     16  C   UNL     1      -5.814  -1.335  -3.201  0.00  0.00    +0.088 C 
ENDROOT
BRANCH   1  19
ATOM     17  C   UNL     1      -2.799  -2.083  -1.426  0.00  0.00    +0.233 C 
ATOM     18  O   UNL     1      -3.275  -2.452  -0.373  0.00  0.00    -0.274 OA
ATOM     19  N   UNL     1      -3.349  -2.480  -2.590  0.00  0.00    -0.219 N 
ATOM     20  H   UNL     1      -2.968  -2.185  -3.432  0.00  0.00    +0.176 HD
BRANCH  17  21
ATOM     21  C   UNL     1      -1.592  -1.180  -1.432  0.00  0.00    +0.120 C 
BRANCH  21  22
ATOM     22  C   UNL     1      -1.171  -0.882   0.008  0.00  0.00    +0.153 C 
BRANCH  22  27
ATOM     23  C   UNL     1       3.605   0.664  -0.030  0.00  0.00    +0.068 C 
ATOM     24  C   UNL     1       2.098   0.650  -0.015  0.00  0.00    +0.074 A 
ATOM     25  C   UNL     1       1.267   1.776  -0.001  0.00  0.00    +0.061 A 
ATOM     26  C   UNL     1      -0.016   1.346   0.009  0.00  0.00    +0.050 A 
ATOM     27  N   UNL     1       0.002  -0.004   0.002  0.00  0.00    -0.267 N 
ATOM     28  N   UNL     1       1.341  -0.417  -0.013  0.00  0.00    -0.175 NA
ATOM     29  C   UNL     1      -1.245   2.218   0.020  0.00  0.00    +0.066 C 
ATOM     30 BR   UNL     1       1.837   3.579   0.003  0.00  0.00    -0.047 Br
ENDBRANCH  22  27
ENDBRANCH  21  22
ENDBRANCH  17  21
ENDBRANCH   1  19
TORSDOF 4
