REMARK  Name = ZINC15911502
REMARK  9 active torsions:
REMARK  status: ('A' for Active; 'I' for Inactive)
REMARK    1  A    between atoms: C_2  and  C_3
REMARK    2  A    between atoms: C_3  and  N_4
REMARK    3  A    between atoms: C_6  and  C_18
REMARK    4  A    between atoms: N_9  and  S_10
REMARK    5  A    between atoms: S_10  and  C_13
REMARK    6  A    between atoms: N_19  and  N_20
REMARK    7  A    between atoms: N_20  and  C_21
REMARK    8  A    between atoms: C_21  and  N_23
REMARK    9  A    between atoms: N_23  and  C_24
REMARK                            x       y       z     vdW  Elec       q    Type
REMARK                         _______ _______ _______ _____ _____    ______ ____
ROOT
ATOM      1  N   UNL     1      -1.014   1.948  -3.738  0.00  0.00    -0.305 N 
ATOM      2  C   UNL     1      -0.355   1.599  -4.870  0.00  0.00    +0.127 A 
ATOM      3  C   UNL     1       0.839   0.964  -4.784  0.00  0.00    +0.070 A 
ATOM      4  S   UNL     1       1.072   0.847  -3.018  0.00  0.00    -0.046 S 
ATOM      5  C   UNL     1      -0.446   1.646  -2.518  0.00  0.00    +0.196 A 
ATOM      6  N   UNL     1      -0.897   1.885  -1.312  0.00  0.00    -0.103 NA
ATOM      7 CL   UNL     1      -1.040   1.963  -6.423  0.00  0.00    -0.063 Cl
ENDROOT
BRANCH   6   8
ATOM      8  S   UNL     1      -0.017   1.417   0.010  0.00  0.00    +0.107 S 
ATOM      9  O   UNL     1       0.002  -0.004   0.002  0.00  0.00    -0.146 OA
ATOM     10  O   UNL     1       1.172   2.195   0.003  0.00  0.00    -0.146 OA
BRANCH   8  11
ATOM     11  C   UNL     1      -0.927   1.900   1.439  0.00  0.00    +0.150 A 
ATOM     12  C   UNL     1      -1.862   1.205   2.132  0.00  0.00    +0.037 A 
ATOM     13  C   UNL     1      -2.451   1.790   3.236  0.00  0.00    +0.010 A 
ATOM     14  C   UNL     1      -2.076   3.043   3.595  0.00  0.00    +0.047 A 
ATOM     15  S   UNL     1      -0.850   3.430   2.357  0.00  0.00    -0.076 S 
ENDBRANCH   8  11
ENDBRANCH   6   8
BRANCH   3  16
ATOM     16  C   UNL     1       1.717   0.499  -5.864  0.00  0.00    +0.148 C 
ATOM     17  N   UNL     1       2.838  -0.096  -5.579  0.00  0.00    -0.188 NA
BRANCH  17  18
ATOM     18  N   UNL     1       3.676  -0.540  -6.610  0.00  0.00    -0.218 N 
ATOM     19  H   UNL     1       3.421  -0.403  -7.536  0.00  0.00    +0.176 HD
BRANCH  18  20
ATOM     20  C   UNL     1       4.837  -1.157  -6.316  0.00  0.00    +0.150 C 
ATOM     21  S   UNL     1       5.862  -1.700  -7.575  0.00  0.00    -0.017 S 
BRANCH  20  22
ATOM     22  N   UNL     1       5.192  -1.348  -5.029  0.00  0.00    -0.322 N 
ATOM     23  H   UNL     1       4.612  -1.040  -4.316  0.00  0.00    +0.148 HD
BRANCH  22  24
ATOM     24  C   UNL     1       6.454  -2.019  -4.709  0.00  0.00    +0.072 C 
ATOM     25  C   UNL     1       6.244  -3.534  -4.722  0.00  0.00    +0.022 C 
ATOM     26  C   UNL     1       7.562  -4.235  -4.388  0.00  0.00    +0.002 C 
ATOM     27  C   UNL     1       8.035  -3.797  -3.000  0.00  0.00    +0.000 C 
ATOM     28  C   UNL     1       8.245  -2.282  -2.987  0.00  0.00    +0.002 C 
ATOM     29  C   UNL     1       6.927  -1.581  -3.321  0.00  0.00    +0.022 C 
ENDBRANCH  22  24
ENDBRANCH  20  22
ENDBRANCH  18  20
ENDBRANCH  17  18
ENDBRANCH   3  16
BRANCH   1  30
ATOM     30  C   UNL     1      -2.306   2.635  -3.808  0.00  0.00    +0.152 C 
BRANCH  30  32
ATOM     31  C   UNL     1      -2.588   4.848  -4.801  0.00  0.00    +0.005 C 
ATOM     32  C   UNL     1      -2.082   4.125  -3.832  0.00  0.00    -0.013 C 
ENDBRANCH  30  32
ENDBRANCH   1  30
TORSDOF 9
