REMARK  Name = ZINC60155500
REMARK  9 active torsions:
REMARK  status: ('A' for Active; 'I' for Inactive)
REMARK    1  A    between atoms: C_1  and  C_2
REMARK    2  A    between atoms: C_5  and  C_8
REMARK    3  A    between atoms: C_8  and  C_10
REMARK    4  A    between atoms: C_8  and  N_34
REMARK    5  A    between atoms: C_10  and  N_11
REMARK    6  A    between atoms: C_12  and  C_14
REMARK    7  A    between atoms: C_18  and  N_20
REMARK    8  A    between atoms: N_34  and  C_35
REMARK    9  A    between atoms: N_34  and  C_36
REMARK                            x       y       z     vdW  Elec       q    Type
REMARK                         _______ _______ _______ _____ _____    ______ ____
ROOT
ATOM      1  C   UNL     1      -1.403  -8.557   0.880  0.00  0.00    +0.039 A 
ATOM      2  C   UNL     1      -0.081  -9.004   0.871  0.00  0.00    +0.013 A 
ATOM      3  C   UNL     1       0.212 -10.300   1.241  0.00  0.00    +0.003 A 
ATOM      4  C   UNL     1      -0.800 -11.161   1.623  0.00  0.00    +0.025 A 
ATOM      5  C   UNL     1      -2.120 -10.726   1.635  0.00  0.00    +0.057 A 
ATOM      6  C   UNL     1      -2.424  -9.424   1.271  0.00  0.00    +0.038 A 
ENDROOT
BRANCH   5   7
ATOM      7  N   UNL     1      -3.141 -11.601   2.022  0.00  0.00    -0.188 N 
ATOM      8  C   UNL     1      -4.057 -11.202   2.928  0.00  0.00    +0.240 C 
ATOM      9  O   UNL     1      -3.978 -10.109   3.447  0.00  0.00    -0.273 OA
ATOM     10  C   UNL     1      -5.190 -12.147   3.286  0.00  0.00    +0.093 C 
ATOM     11  C   UNL     1      -4.631 -13.172   4.281  0.00  0.00    +0.040 C 
ATOM     12  C   UNL     1      -5.521 -14.371   4.377  0.00  0.00    -0.030 C 
ATOM     13  C   UNL     1      -6.418 -14.687   3.501  0.00  0.00    -0.030 C 
ATOM     14  C   UNL     1      -6.704 -13.874   2.273  0.00  0.00    +0.040 C 
ATOM     15  C   UNL     1      -5.603 -12.865   1.995  0.00  0.00    +0.092 C 
ATOM     16  C   UNL     1      -4.394 -13.528   1.395  0.00  0.00    +0.234 C 
ATOM     17  O   UNL     1      -4.483 -14.613   0.861  0.00  0.00    -0.274 OA
ATOM     18  N   UNL     1      -3.208 -12.884   1.460  0.00  0.00    -0.227 N 
ATOM     19  H   UNL     1      -2.405 -13.311   1.123  0.00  0.00    +0.173 HD
ENDBRANCH   5   7
BRANCH   1  21
ATOM     20  N   UNL     1      -0.732  -6.333   0.107  0.00  0.00    -0.313 N 
ATOM     21  C   UNL     1      -1.720  -7.168   0.484  0.00  0.00    +0.244 C 
ATOM     22  O   UNL     1      -2.872  -6.780   0.498  0.00  0.00    -0.270 OA
ATOM     23  H   UNL     1       0.187  -6.643   0.096  0.00  0.00    +0.149 HD
BRANCH  20  24
ATOM     24  C   UNL     1      -1.046  -4.957  -0.286  0.00  0.00    +0.094 C 
BRANCH  24  25
ATOM     25  C   UNL     1       0.224  -4.268  -0.790  0.00  0.00    -0.021 C 
BRANCH  25  30
ATOM     26  C   UNL     1       1.998  -6.829  -5.657  0.00  0.00    +0.044 C 
ATOM     27  C   UNL     1       1.535  -6.161  -4.388  0.00  0.00    -0.050 A 
ATOM     28  C   UNL     1       2.141  -6.470  -3.184  0.00  0.00    +0.003 A 
ATOM     29  C   UNL     1       1.716  -5.857  -2.020  0.00  0.00    +0.002 A 
ATOM     30  C   UNL     1       0.687  -4.936  -2.060  0.00  0.00    -0.059 A 
ATOM     31  C   UNL     1       0.082  -4.626  -3.264  0.00  0.00    +0.002 A 
ATOM     32  C   UNL     1       0.509  -5.236  -4.428  0.00  0.00    +0.003 A 
ENDBRANCH  25  30
BRANCH  25  33
ATOM     33  N   UNL     1      -0.060  -2.852  -1.057  0.00  0.00    +0.382 N 
ATOM     34  C   UNL     1      -0.510  -2.201   0.181  0.00  0.00    -0.096 C 
ATOM     35  C   UNL     1       1.158  -2.191  -1.543  0.00  0.00    -0.096 C 
ATOM     36  H   UNL     1      -0.784  -2.780  -1.757  0.00  0.00    -0.082 HD
ENDBRANCH  25  33
ENDBRANCH  24  25
ENDBRANCH  20  24
ENDBRANCH   1  21
TORSDOF 6
