REMARK  Name = ZINC10955752
REMARK  8 active torsions:
REMARK  status: ('A' for Active; 'I' for Inactive)
REMARK    1  A    between atoms: C_1  and  C_2
REMARK    2  A    between atoms: C_4  and  N_28
REMARK    3  A    between atoms: C_7  and  N_8
REMARK    4  A    between atoms: C_9  and  C_11
REMARK    5  A    between atoms: C_11  and  O_12
REMARK    6  A    between atoms: O_12  and  C_13
REMARK    7  A    between atoms: C_13  and  C_15
REMARK    8  A    between atoms: C_17  and  C_27
REMARK                            x       y       z     vdW  Elec       q    Type
REMARK                         _______ _______ _______ _____ _____    ______ ____
ROOT
ATOM      1  N   UNL     1      -9.599   0.576  -0.108  0.00  0.00    -0.282 N 
ATOM      2  C   UNL     1      -8.419   1.169  -0.378  0.00  0.00    +0.255 C 
ATOM      3  O   UNL     1      -8.391   2.204  -1.010  0.00  0.00    -0.272 OA
ATOM      4  H   UNL     1      -9.618  -0.292   0.324  0.00  0.00    +0.155 HD
ENDROOT
BRANCH   1  11
ATOM      5  C   UNL     1     -11.900  -1.038  -0.541  0.00  0.00    +0.046 C 
ATOM      6  C   UNL     1     -11.945   0.463  -0.673  0.00  0.00    -0.027 A 
ATOM      7  C   UNL     1     -13.129   1.091  -1.007  0.00  0.00    +0.028 A 
ATOM      8  C   UNL     1     -13.169   2.473  -1.134  0.00  0.00    +0.030 A 
ATOM      9  C   UNL     1     -12.020   3.224  -0.919  0.00  0.00    +0.025 A 
ATOM     10  C   UNL     1     -10.839   2.596  -0.579  0.00  0.00    +0.025 A 
ATOM     11  C   UNL     1     -10.799   1.213  -0.453  0.00  0.00    +0.037 A 
BRANCH   8  12
ATOM     12  N   UNL     1     -14.366   3.110  -1.479  0.00  0.00    -0.330 N 
ATOM     13  C   UNL     1     -14.697   4.183  -0.507  0.00  0.00    +0.105 C 
ATOM     14  C   UNL     1     -15.685   5.080  -1.294  0.00  0.00    +0.020 C 
ATOM     15  C   UNL     1     -15.110   5.054  -2.729  0.00  0.00    +0.020 C 
ATOM     16  C   UNL     1     -14.252   3.777  -2.794  0.00  0.00    +0.105 C 
ENDBRANCH   8  12
ENDBRANCH   1  11
BRANCH   2  17
ATOM     17  C   UNL     1      -7.135   0.546   0.106  0.00  0.00    +0.328 C 
BRANCH  17  18
ATOM     18  O   UNL     1      -6.012   1.368  -0.309  0.00  0.00    -0.453 OA
BRANCH  18  19
ATOM     19  C   UNL     1      -4.787   0.950   0.045  0.00  0.00    +0.352 C 
ATOM     20  O   UNL     1      -4.657  -0.070   0.680  0.00  0.00    -0.246 OA
BRANCH  19  21
ATOM     21  C   UNL     1      -3.574   1.751  -0.350  0.00  0.00    +0.321 C 
ATOM     22  C   UNL     1      -3.590   3.105   0.373  0.00  0.00    +0.222 C 
ATOM     23  O   UNL     1      -2.419   3.833  -0.002  0.00  0.00    -0.481 OA
ATOM     24  C   UNL     1      -1.241   3.151   0.006  0.00  0.00    +0.163 A 
ATOM     25  C   UNL     1      -0.046   3.855  -0.008  0.00  0.00    +0.049 A 
ATOM     26  C   UNL     1       1.157   3.176  -0.008  0.00  0.00    +0.004 A 
ATOM     27  C   UNL     1       1.174   1.793   0.008  0.00  0.00    +0.004 A 
ATOM     28  C   UNL     1      -0.013   1.086   0.024  0.00  0.00    +0.049 A 
ATOM     29  C   UNL     1      -1.225   1.761   0.019  0.00  0.00    +0.163 A 
ATOM     30  O   UNL     1      -2.386   1.051   0.035  0.00  0.00    -0.470 OA
ATOM     31  C   UNL     1      -3.584   2.881   1.887  0.00  0.00    +0.056 C 
ENDBRANCH  19  21
ENDBRANCH  18  19
ENDBRANCH  17  18
ENDBRANCH   2  17
TORSDOF 6
