REMARK  Name = ZINC44168945
REMARK  8 active torsions:
REMARK  status: ('A' for Active; 'I' for Inactive)
REMARK    1  A    between atoms: C_1  and  C_2
REMARK    2  A    between atoms: C_2  and  C_3
REMARK    3  A    between atoms: C_3  and  C_4
REMARK    4  A    between atoms: C_4  and  C_6
REMARK    5  A    between atoms: C_4  and  N_19
REMARK    6  A    between atoms: C_20  and  C_22
REMARK    7  A    between atoms: C_24  and  C_29
REMARK    8  A    between atoms: C_26  and  C_28
REMARK                            x       y       z     vdW  Elec       q    Type
REMARK                         _______ _______ _______ _____ _____    ______ ____
ROOT
ATOM      1  C   UNL     1       0.739  -2.027  -1.265  0.00  0.00    +0.160 C 
ENDROOT
BRANCH   1   2
ATOM      2  C   UNL     1       1.550  -2.512  -2.439  0.00  0.00    +0.240 C 
ATOM      3  O   UNL     1       1.033  -3.212  -3.285  0.00  0.00    -0.273 OA
ATOM      4  N   UNL     1       2.848  -2.168  -2.550  0.00  0.00    -0.254 N 
ATOM      5  C   UNL     1       3.593  -2.614  -3.629  0.00  0.00    +0.200 A 
ATOM      6  N   UNL     1       3.117  -3.399  -4.639  0.00  0.00    -0.326 N 
ATOM      7  H   UNL     1       2.212  -3.737  -4.728  0.00  0.00    +0.169 HD
ATOM      8  C   UNL     1       4.165  -3.621  -5.515  0.00  0.00    +0.067 A 
ATOM      9  C   UNL     1       4.295  -4.327  -6.702  0.00  0.00    +0.028 A 
ATOM     10  C   UNL     1       5.510  -4.357  -7.354  0.00  0.00    +0.002 A 
ATOM     11  C   UNL     1       6.605  -3.685  -6.831  0.00  0.00    +0.002 A 
ATOM     12  C   UNL     1       6.495  -2.979  -5.654  0.00  0.00    +0.030 A 
ATOM     13  C   UNL     1       5.271  -2.939  -4.981  0.00  0.00    +0.091 A 
ATOM     14  N   UNL     1       4.856  -2.341  -3.834  0.00  0.00    -0.214 NA
ATOM     15  H   UNL     1       3.261  -1.609  -1.874  0.00  0.00    +0.158 HD
ENDBRANCH   1   2
BRANCH   1  16
ATOM     16  N   UNL     1      -0.631  -2.534  -1.375  0.00  0.00    -0.300 N 
ATOM     17  C   UNL     1      -1.387  -2.679  -0.269  0.00  0.00    +0.245 C 
ATOM     18  O   UNL     1      -0.932  -2.389   0.821  0.00  0.00    -0.270 OA
ATOM     19  H   UNL     1      -0.995  -2.765  -2.244  0.00  0.00    +0.150 HD
BRANCH  17  20
ATOM     20  C   UNL     1      -2.770  -3.190  -0.380  0.00  0.00    +0.037 A 
ATOM     21  C   UNL     1      -3.294  -3.528  -1.628  0.00  0.00    +0.016 A 
ATOM     22  C   UNL     1      -4.585  -4.005  -1.725  0.00  0.00    -0.049 A 
ATOM     23  C   UNL     1      -5.360  -4.147  -0.588  0.00  0.00    +0.006 A 
ATOM     24  C   UNL     1      -4.847  -3.813   0.653  0.00  0.00    -0.049 A 
ATOM     25  C   UNL     1      -3.555  -3.341   0.764  0.00  0.00    +0.016 A 
ATOM     26  C   UNL     1      -5.698  -3.971   1.886  0.00  0.00    +0.044 C 
ATOM     27  C   UNL     1      -5.152  -4.371  -3.072  0.00  0.00    +0.044 C 
ENDBRANCH  17  20
ENDBRANCH   1  16
BRANCH   1  28
ATOM     28  C   UNL     1       0.718  -0.497  -1.257  0.00  0.00    +0.031 C 
BRANCH  28  30
ATOM     29  C   UNL     1      -0.019   1.526   0.010  0.00  0.00    +0.004 C 
ATOM     30  C   UNL     1       0.002  -0.004   0.002  0.00  0.00    -0.001 C 
ENDBRANCH  28  30
ENDBRANCH   1  28
TORSDOF 5
