REMARK  Name = ZINC64416864
REMARK  6 active torsions:
REMARK  status: ('A' for Active; 'I' for Inactive)
REMARK    1  A    between atoms: C_1  and  C_2
REMARK    2  A    between atoms: C_2  and  C_3
REMARK    3  A    between atoms: C_2  and  C_4
REMARK    4  A    between atoms: C_4  and  S_5
REMARK    5  A    between atoms: S_5  and  C_6
REMARK    6  A    between atoms: C_9  and  C_13
REMARK                            x       y       z     vdW  Elec       q    Type
REMARK                         _______ _______ _______ _____ _____    ______ ____
ROOT
ATOM      1  C   UNL     1       3.124  -2.257   7.191  0.00  0.00    +0.121 C 
ATOM      2  C   UNL     1       2.308  -3.270   7.997  0.00  0.00    +0.128 C 
ATOM      3  C   UNL     1       1.201  -2.476   8.681  0.00  0.00    -0.035 C 
ATOM      4  C   UNL     1       0.059  -3.063   8.350  0.00  0.00    +0.001 A 
ATOM      5  C   UNL     1      -1.330  -2.812   8.764  0.00  0.00    +0.030 A 
ATOM      6  C   UNL     1      -2.277  -3.612   8.205  0.00  0.00    +0.042 A 
ATOM      7  C   UNL     1      -1.984  -4.625   7.286  0.00  0.00    +0.022 A 
ATOM      8  C   UNL     1      -0.734  -4.929   6.854  0.00  0.00    +0.027 A 
ATOM      9  C   UNL     1       0.347  -4.160   7.375  0.00  0.00    +0.043 A 
ATOM     10  N   UNL     1       1.643  -4.258   7.151  0.00  0.00    -0.376 N 
ATOM     11 CL   UNL     1      -3.936  -3.363   8.655  0.00  0.00    -0.084 Cl
ATOM     12  C   UNL     1       1.495  -1.223   9.469  0.00  0.00    +0.048 C 
ATOM     13  C   UNL     1       2.418  -0.365   8.584  0.00  0.00    +0.086 C 
ATOM     14  N   UNL     1       3.540  -1.172   8.094  0.00  0.00    -0.307 NA
ATOM     15  H   UNL     1       4.090  -1.530   8.860  0.00  0.00    +0.123 HD
ATOM     16  H   UNL     1       2.082  -4.867   6.536  0.00  0.00    +0.160 HD
ENDROOT
BRANCH   1  20
ATOM     17  C   UNL     1       0.733  -0.673   4.102  0.00  0.00    +0.173 A 
ATOM     18  N   UNL     1       0.325  -0.599   5.352  0.00  0.00    -0.185 NA
ATOM     19  C   UNL     1       1.061  -1.093   6.351  0.00  0.00    +0.282 A 
ATOM     20  C   UNL     1       2.278  -1.695   6.077  0.00  0.00    +0.102 A 
ATOM     21  C   UNL     1       2.708  -1.771   4.747  0.00  0.00    +0.261 A 
ATOM     22  N   UNL     1       1.919  -1.260   3.778  0.00  0.00    -0.302 N 
ATOM     23  O   UNL     1       3.775  -2.294   4.468  0.00  0.00    -0.267 OA
ATOM     24  O   UNL     1       0.620  -1.004   7.628  0.00  0.00    -0.265 OA
ATOM     25  H   UNL     1       2.199  -1.308   2.851  0.00  0.00    +0.171 HD
BRANCH  17  26
ATOM     26  S   UNL     1      -0.278  -0.006   2.822  0.00  0.00    -0.087 S 
BRANCH  26  27
ATOM     27  C   UNL     1      -1.720   0.655   3.701  0.00  0.00    +0.080 C 
BRANCH  27  29
ATOM     28  C   UNL     1      -3.243   0.177   1.780  0.00  0.00    +0.008 C 
ATOM     29  C   UNL     1      -2.692   1.272   2.695  0.00  0.00    -0.007 C 
ATOM     30  C   UNL     1      -3.847   1.940   3.444  0.00  0.00    +0.008 C 
ENDBRANCH  27  29
ENDBRANCH  26  27
ENDBRANCH  17  26
ENDBRANCH   1  20
TORSDOF 4
