REMARK  Name = ZINC41016095
REMARK  9 active torsions:
REMARK  status: ('A' for Active; 'I' for Inactive)
REMARK    1  A    between atoms: C_1  and  C_2
REMARK    2  A    between atoms: C_2  and  C_3
REMARK    3  A    between atoms: C_3  and  N_4
REMARK    4  A    between atoms: C_7  and  N_17
REMARK    5  A    between atoms: C_12  and  C_16
REMARK    6  A    between atoms: C_18  and  C_20
REMARK    7  A    between atoms: C_22  and  C_27
REMARK    8  A    between atoms: C_24  and  C_25
REMARK    9  A    between atoms: C_24  and  C_26
REMARK                            x       y       z     vdW  Elec       q    Type
REMARK                         _______ _______ _______ _____ _____    ______ ____
ROOT
ATOM      1  N   UNL     1       0.767  -1.990   1.244  0.00  0.00    -0.265 N 
ATOM      2  C   UNL     1      -0.269  -2.714   1.851  0.00  0.00    +0.080 A 
ATOM      3  C   UNL     1      -1.467  -2.099   2.172  0.00  0.00    +0.050 A 
ATOM      4  C   UNL     1      -2.479  -2.835   2.774  0.00  0.00    +0.035 A 
ATOM      5  C   UNL     1      -2.289  -4.182   3.053  0.00  0.00    +0.027 A 
ATOM      6  C   UNL     1      -1.092  -4.795   2.733  0.00  0.00    +0.049 A 
ATOM      7  C   UNL     1      -0.081  -4.067   2.131  0.00  0.00    +0.143 A 
ATOM      8  O   UNL     1       1.101  -4.659   1.807  0.00  0.00    -0.478 OA
ATOM      9  C   UNL     1       1.766  -4.170   0.640  0.00  0.00    +0.256 C 
ATOM     10  C   UNL     1       1.780  -2.663   0.656  0.00  0.00    +0.260 C 
ATOM     11  O   UNL     1       2.699  -2.057   0.146  0.00  0.00    -0.271 OA
ATOM     12  C   UNL     1       3.204  -4.694   0.616  0.00  0.00    +0.062 C 
ENDROOT
BRANCH   4  13
ATOM     13  N   UNL     1      -3.694  -2.217   3.100  0.00  0.00    -0.285 N 
ATOM     14  C   UNL     1      -4.848  -2.906   3.002  0.00  0.00    +0.221 C 
ATOM     15  O   UNL     1      -4.828  -4.084   2.713  0.00  0.00    -0.275 OA
ATOM     16  H   UNL     1      -3.704  -1.294   3.397  0.00  0.00    +0.155 HD
BRANCH  14  17
ATOM     17  C   UNL     1      -6.163  -2.213   3.252  0.00  0.00    +0.089 C 
ATOM     18  C   UNL     1      -6.942  -2.610   4.508  0.00  0.00    +0.033 C 
ATOM     19  C   UNL     1      -7.437  -3.051   3.128  0.00  0.00    -0.016 C 
ATOM     20  C   UNL     1      -8.684  -2.361   2.571  0.00  0.00    +0.012 C 
ATOM     21  C   UNL     1      -7.279  -4.527   2.759  0.00  0.00    +0.012 C 
BRANCH  18  22
ATOM     22  C   UNL     1      -6.337  -3.663   5.400  0.00  0.00    +0.010 C 
ATOM     23  C   UNL     1      -6.874  -3.920   6.570  0.00  0.00    +0.103 C 
ATOM     24 CL   UNL     1      -8.281  -3.047   7.090  0.00  0.00    -0.071 Cl
ATOM     25 CL   UNL     1      -6.176  -5.133   7.598  0.00  0.00    -0.071 Cl
ENDBRANCH  18  22
ENDBRANCH  14  17
ENDBRANCH   4  13
BRANCH   1  26
ATOM     26  C   UNL     1       0.747  -0.525   1.241  0.00  0.00    +0.113 C 
BRANCH  26  28
ATOM     27  C   UNL     1      -0.010   1.503  -0.007  0.00  0.00    +0.005 C 
ATOM     28  C   UNL     1       0.011  -0.027  -0.004  0.00  0.00    +0.016 C 
ENDBRANCH  26  28
ENDBRANCH   1  26
TORSDOF 5
