REMARK  Name = ZINC62824257
REMARK  4 active torsions:
REMARK  status: ('A' for Active; 'I' for Inactive)
REMARK    1  A    between atoms: C_1  and  C_2
REMARK    2  A    between atoms: C_2  and  N_3
REMARK    3  A    between atoms: C_11  and  C_12
REMARK    4  A    between atoms: C_17  and  N_18
REMARK                            x       y       z     vdW  Elec       q    Type
REMARK                         _______ _______ _______ _____ _____    ______ ____
ROOT
ATOM      1  N   UNL     1       0.711  -0.524   1.195  0.00  0.00    -0.324 N 
ATOM      2  C   UNL     1       2.048  -0.865   1.276  0.00  0.00    +0.072 A 
ATOM      3  C   UNL     1       3.091  -0.889   0.360  0.00  0.00    +0.028 A 
ATOM      4  C   UNL     1       4.348  -1.291   0.760  0.00  0.00    +0.005 A 
ATOM      5  C   UNL     1       4.580  -1.672   2.075  0.00  0.00    +0.040 A 
ATOM      6  C   UNL     1       3.558  -1.655   2.998  0.00  0.00    +0.151 A 
ATOM      7  C   UNL     1       2.275  -1.249   2.608  0.00  0.00    +0.125 A 
ATOM      8  N   UNL     1       1.096  -1.129   3.267  0.00  0.00    -0.225 NA
ATOM      9  C   UNL     1       0.173  -0.697   2.443  0.00  0.00    +0.144 A 
ATOM     10  F   UNL     1       3.792  -2.028   4.276  0.00  0.00    -0.203 F 
ENDROOT
BRANCH   9  11
ATOM     11  C   UNL     1      -1.236  -0.440   2.804  0.00  0.00    +0.039 A 
ATOM     12  C   UNL     1      -2.267  -0.969   2.026  0.00  0.00    +0.027 A 
ATOM     13  C   UNL     1      -3.581  -0.725   2.368  0.00  0.00    +0.014 A 
ATOM     14  C   UNL     1      -3.883   0.043   3.482  0.00  0.00    +0.016 A 
ATOM     15  C   UNL     1      -2.872   0.572   4.260  0.00  0.00    +0.024 A 
ATOM     16  C   UNL     1      -1.545   0.331   3.933  0.00  0.00    +0.035 A 
ATOM     17  I   UNL     1      -5.128  -1.519   1.199  0.00  0.00    -0.044 I 
BRANCH  16  18
ATOM     18  N   UNL     1      -0.524   0.859   4.720  0.00  0.00    -0.357 N 
ATOM     19  H   UNL     1       0.401   0.760   4.445  0.00  0.00    +0.142 HD
ATOM     20  H   UNL     1      -0.738   1.326   5.543  0.00  0.00    +0.142 HD
ENDBRANCH  16  18
ENDBRANCH   9  11
BRANCH   1  22
ATOM     21  C   UNL     1      -0.019   1.472  -0.015  0.00  0.00    +0.027 C 
ATOM     22  C   UNL     1       0.003  -0.058   0.000  0.00  0.00    +0.120 C 
ENDBRANCH   1  22
TORSDOF 3
