REMARK  Name = ZINC35929994
REMARK  8 active torsions:
REMARK  status: ('A' for Active; 'I' for Inactive)
REMARK    1  A    between atoms: C_1  and  N_2
REMARK    2  A    between atoms: N_2  and  C_3
REMARK    3  A    between atoms: N_2  and  C_4
REMARK    4  A    between atoms: C_4  and  C_5
REMARK    5  A    between atoms: C_5  and  N_6
REMARK    6  A    between atoms: C_14  and  C_29
REMARK    7  A    between atoms: C_16  and  N_28
REMARK    8  A    between atoms: N_17  and  C_21
REMARK                            x       y       z     vdW  Elec       q    Type
REMARK                         _______ _______ _______ _____ _____    ______ ____
ROOT
ATOM      1  N   UNL     1      -3.930  -2.298   0.808  0.00  0.00    -0.301 NA
ATOM      2  C   UNL     1      -4.376  -1.918  -0.539  0.00  0.00    +0.103 C 
ATOM      3  C   UNL     1      -5.857  -2.274  -0.703  0.00  0.00    +0.123 C 
ATOM      4  N   UNL     1      -6.037  -3.694  -0.367  0.00  0.00    -0.297 N 
ATOM      5  C   UNL     1      -5.493  -4.181   0.910  0.00  0.00    +0.123 C 
ATOM      6  C   UNL     1      -4.026  -3.750   1.011  0.00  0.00    +0.103 C 
ATOM      7  C   UNL     1      -6.699  -4.550  -1.229  0.00  0.00    +0.220 A 
ATOM      8  N   UNL     1      -6.835  -5.822  -0.869  0.00  0.00    -0.214 NA
ATOM      9  C   UNL     1      -7.457  -6.710  -1.636  0.00  0.00    +0.089 A 
ATOM     10  C   UNL     1      -7.986  -6.273  -2.871  0.00  0.00    +0.086 A 
ATOM     11  C   UNL     1      -8.678  -6.863  -3.922  0.00  0.00    +0.131 A 
ATOM     12  N   UNL     1      -8.912  -5.906  -4.841  0.00  0.00    -0.215 N 
ATOM     13  N   UNL     1      -8.378  -4.687  -4.406  0.00  0.00    -0.144 NA
ATOM     14  C   UNL     1      -7.812  -4.854  -3.231  0.00  0.00    +0.189 A 
ATOM     15  N   UNL     1      -7.165  -4.058  -2.358  0.00  0.00    -0.193 NA
ENDROOT
BRANCH  12  16
ATOM     16  C   UNL     1      -9.588  -6.102  -6.052  0.00  0.00    +0.086 A 
ATOM     17  C   UNL     1     -10.226  -7.309  -6.305  0.00  0.00    +0.029 A 
ATOM     18  C   UNL     1     -10.893  -7.498  -7.500  0.00  0.00    +0.002 A 
ATOM     19  C   UNL     1     -10.925  -6.488  -8.444  0.00  0.00    +0.002 A 
ATOM     20  C   UNL     1     -10.290  -5.285  -8.196  0.00  0.00    +0.022 A 
ATOM     21  C   UNL     1      -9.626  -5.087  -7.000  0.00  0.00    +0.066 A 
ATOM     22 CL   UNL     1      -8.835  -3.573  -6.686  0.00  0.00    -0.081 Cl
ENDBRANCH  12  16
BRANCH   9  23
ATOM     23  C   UNL     1      -7.592  -8.120  -1.208  0.00  0.00    +0.001 A 
ATOM     24  C   UNL     1      -7.352  -9.153  -2.115  0.00  0.00    +0.013 A 
ATOM     25  C   UNL     1      -7.480 -10.465  -1.712  0.00  0.00    +0.039 A 
ATOM     26  C   UNL     1      -7.845 -10.759  -0.407  0.00  0.00    +0.123 A 
ATOM     27  C   UNL     1      -8.085  -9.737   0.497  0.00  0.00    +0.039 A 
ATOM     28  C   UNL     1      -7.955  -8.421   0.105  0.00  0.00    +0.013 A 
ATOM     29  F   UNL     1      -7.969 -12.047  -0.017  0.00  0.00    -0.205 F 
ENDBRANCH   9  23
BRANCH  11  30
ATOM     30  N   UNL     1      -9.058  -8.189  -4.008  0.00  0.00    -0.342 N 
ATOM     31  H   UNL     1      -9.421  -8.641  -3.230  0.00  0.00    +0.144 HD
ATOM     32  H   UNL     1      -8.963  -8.668  -4.846  0.00  0.00    +0.144 HD
ENDBRANCH  11  30
BRANCH   1  33
ATOM     33  C   UNL     1      -2.566  -1.819   1.066  0.00  0.00    +0.066 C 
BRANCH  33  34
ATOM     34  C   UNL     1      -2.558  -0.289   1.091  0.00  0.00    -0.064 C 
BRANCH  34  36
ATOM     35  C   UNL     1      -1.163   1.655   1.254  0.00  0.00    -0.097 C 
ATOM     36  N   UNL     1      -1.194   0.190   1.349  0.00  0.00    +0.377 N 
ATOM     37  C   UNL     1      -0.777  -0.223   2.696  0.00  0.00    -0.097 C 
ATOM     38  H   UNL     1      -0.564  -0.205   0.666  0.00  0.00    -0.083 HD
ENDBRANCH  34  36
ENDBRANCH  33  34
ENDBRANCH   1  33
TORSDOF 6
