REMARK  Name = ZINC23595476
REMARK  8 active torsions:
REMARK  status: ('A' for Active; 'I' for Inactive)
REMARK    1  A    between atoms: C_1  and  C_2
REMARK    2  A    between atoms: C_2  and  C_4
REMARK    3  A    between atoms: C_2  and  S_14
REMARK    4  A    between atoms: N_6  and  C_7
REMARK    5  A    between atoms: C_7  and  C_8
REMARK    6  A    between atoms: S_14  and  C_15
REMARK    7  A    between atoms: C_18  and  C_21
REMARK    8  A    between atoms: N_19  and  C_20
REMARK                            x       y       z     vdW  Elec       q    Type
REMARK                         _______ _______ _______ _____ _____    ______ ____
ROOT
ATOM      1  C   UNL     1       2.533  -0.042   1.241  0.00  0.00    +0.192 A 
ATOM      2  N   UNL     1       2.985   0.657   0.225  0.00  0.00    -0.122 NA
ATOM      3  N   UNL     1       4.239   0.893   0.382  0.00  0.00    -0.130 NA
ATOM      4  C   UNL     1       4.658   0.365   1.497  0.00  0.00    +0.178 A 
ATOM      5  N   UNL     1       3.585  -0.245   2.087  0.00  0.00    -0.306 N 
ATOM      6  C   UNL     1       3.570  -0.969   3.360  0.00  0.00    +0.153 C 
ENDROOT
BRANCH   4   7
ATOM      7  C   UNL     1       6.063   0.421   2.039  0.00  0.00    +0.278 C 
ATOM      8  C   UNL     1       6.349   1.824   2.590  0.00  0.00    +0.281 C 
ATOM      9  O   UNL     1       7.694   1.846   3.083  0.00  0.00    -0.484 OA
ATOM     10  C   UNL     1       8.648   1.303   2.279  0.00  0.00    +0.162 A 
ATOM     11  C   UNL     1       9.983   1.604   2.509  0.00  0.00    +0.049 A 
ATOM     12  C   UNL     1      10.964   1.058   1.703  0.00  0.00    +0.004 A 
ATOM     13  C   UNL     1      10.619   0.210   0.667  0.00  0.00    +0.004 A 
ATOM     14  C   UNL     1       9.291  -0.093   0.432  0.00  0.00    +0.049 A 
ATOM     15  C   UNL     1       8.301   0.453   1.236  0.00  0.00    +0.163 A 
ATOM     16  O   UNL     1       6.997   0.152   0.988  0.00  0.00    -0.474 OA
ENDBRANCH   4   7
BRANCH   1  17
ATOM     17  S   UNL     1       0.879  -0.605   1.472  0.00  0.00    -0.074 S 
BRANCH  17  19
ATOM     18  C   UNL     1      -0.019   1.526   0.010  0.00  0.00    +0.029 C 
ATOM     19  C   UNL     1       0.002  -0.004   0.002  0.00  0.00    +0.137 C 
BRANCH  19  20
ATOM     20  C   UNL     1      -1.412  -0.526   0.013  0.00  0.00    +0.226 C 
ATOM     21  O   UNL     1      -1.939  -0.827   1.062  0.00  0.00    -0.275 OA
ATOM     22  N   UNL     1      -2.090  -0.657  -1.144  0.00  0.00    -0.314 N 
ATOM     23  H   UNL     1      -1.669  -0.416  -1.984  0.00  0.00    +0.149 HD
BRANCH  22  24
ATOM     24  C   UNL     1      -3.465  -1.164  -1.134  0.00  0.00    +0.107 C 
BRANCH  24  25
ATOM     25  C   UNL     1      -4.000  -1.215  -2.566  0.00  0.00    +0.006 C 
ATOM     26  C   UNL     1      -4.097   0.206  -3.125  0.00  0.00    +0.005 C 
ATOM     27  C   UNL     1      -4.633   0.155  -4.557  0.00  0.00    +0.000 C 
ATOM     28  C   UNL     1      -6.020  -0.490  -4.560  0.00  0.00    +0.000 C 
ATOM     29  C   UNL     1      -5.923  -1.911  -4.001  0.00  0.00    +0.000 C 
ATOM     30  C   UNL     1      -5.388  -1.860  -2.569  0.00  0.00    +0.005 C 
ENDBRANCH  24  25
ENDBRANCH  22  24
ENDBRANCH  19  20
ENDBRANCH  17  19
ENDBRANCH   1  17
TORSDOF 6
