REMARK  Name = ZINC00919315
REMARK  4 active torsions:
REMARK  status: ('A' for Active; 'I' for Inactive)
REMARK    1  A    between atoms: C_5  and  N_7
REMARK    2  A    between atoms: C_8  and  C_10
REMARK    3  A    between atoms: C_15  and  C_26
REMARK    4  A    between atoms: C_18  and  C_21
REMARK                            x       y       z     vdW  Elec       q    Type
REMARK                         _______ _______ _______ _____ _____    ______ ____
ROOT
ATOM      1  C   UNL     1       0.117  -4.246   0.190  0.00  0.00    +0.149 A 
ATOM      2  C   UNL     1      -1.008  -5.094   0.303  0.00  0.00    +0.078 A 
ATOM      3  C   UNL     1      -0.557  -6.362   0.371  0.00  0.00    +0.119 A 
ATOM      4  N   UNL     1       0.807  -6.332   0.306  0.00  0.00    -0.238 N 
ATOM      5  N   UNL     1       1.202  -5.001   0.186  0.00  0.00    -0.164 NA
ATOM      6  C   UNL     1       1.649  -7.531   0.355  0.00  0.00    +0.215 C 
ATOM      7  C   UNL     1       0.838  -8.683   0.958  0.00  0.00    +0.066 C 
ATOM      8  C   UNL     1      -0.515  -8.797   0.247  0.00  0.00    +0.140 C 
ATOM      9  N   UNL     1      -1.276  -7.555   0.486  0.00  0.00    -0.319 N 
ATOM     10  H   UNL     1      -2.220  -7.566   0.709  0.00  0.00    +0.148 HD
ENDROOT
BRANCH   8  11
ATOM     11  C   UNL     1      -1.277  -9.976   0.795  0.00  0.00    +0.125 A 
ATOM     12  C   UNL     1      -1.369 -11.189   0.221  0.00  0.00    +0.046 A 
ATOM     13  C   UNL     1      -2.174 -11.983   1.069  0.00  0.00    +0.041 A 
ATOM     14  C   UNL     1      -2.526 -11.209   2.111  0.00  0.00    +0.195 A 
ATOM     15  O   UNL     1      -1.975  -9.995   1.943  0.00  0.00    -0.466 OA
ENDBRANCH   8  11
BRANCH   1  17
ATOM     16  N   UNL     1       1.236  -2.080  -0.021  0.00  0.00    -0.278 N 
ATOM     17  C   UNL     1       0.085  -2.773   0.088  0.00  0.00    +0.268 C 
ATOM     18  O   UNL     1      -0.979  -2.185   0.102  0.00  0.00    -0.268 OA
ATOM     19  H   UNL     1       2.079  -2.551  -0.113  0.00  0.00    +0.155 HD
BRANCH  16  24
ATOM     20  C   UNL     1       0.153   1.372   0.637  0.00  0.00    +0.002 A 
ATOM     21  C   UNL     1       1.173   2.087   0.036  0.00  0.00    +0.003 A 
ATOM     22  C   UNL     1       2.215   1.423  -0.585  0.00  0.00    +0.040 A 
ATOM     23  C   UNL     1       2.240   0.040  -0.606  0.00  0.00    +0.144 A 
ATOM     24  C   UNL     1       1.215  -0.681  -0.002  0.00  0.00    +0.069 A 
ATOM     25  C   UNL     1       0.172  -0.009   0.620  0.00  0.00    +0.026 A 
ATOM     26  F   UNL     1       3.257  -0.609  -1.213  0.00  0.00    -0.204 F 
ENDBRANCH  16  24
ENDBRANCH   1  17
BRANCH   6  27
ATOM     27  C   UNL     1       2.879  -7.257   1.224  0.00  0.00    +0.412 C 
ATOM     28  F   UNL     1       2.470  -6.922   2.519  0.00  0.00    -0.168 F 
ATOM     29  F   UNL     1       3.682  -8.402   1.269  0.00  0.00    -0.168 F 
ATOM     30  F   UNL     1       3.610  -6.197   0.676  0.00  0.00    -0.168 F 
ENDBRANCH   6  27
TORSDOF 4
