REMARK  Name = ZINC08773850
REMARK  10 active torsions:
REMARK  status: ('A' for Active; 'I' for Inactive)
REMARK    1  A    between atoms: C_1  and  C_2
REMARK    2  A    between atoms: N_4  and  C_5
REMARK    3  A    between atoms: C_5  and  C_13
REMARK    4  A    between atoms: C_6  and  C_7
REMARK    5  A    between atoms: C_13  and  O_15
REMARK    6  A    between atoms: O_15  and  C_16
REMARK    7  A    between atoms: C_16  and  C_18
REMARK    8  A    between atoms: C_16  and  C_24
REMARK    9  A    between atoms: N_26  and  C_27
REMARK   10  A    between atoms: C_30  and  N_34
REMARK                            x       y       z     vdW  Elec       q    Type
REMARK                         _______ _______ _______ _____ _____    ______ ____
ROOT
ATOM      1  C   UNL     1       2.956  -0.349   0.462  0.00  0.00    +0.292 C 
ENDROOT
BRANCH   1   2
ATOM      2  C   UNL     1       3.301  -1.174  -0.751  0.00  0.00    +0.002 A 
ATOM      3  C   UNL     1       3.453  -0.563  -1.982  0.00  0.00    +0.008 A 
ATOM      4  C   UNL     1       3.773  -1.320  -3.094  0.00  0.00    +0.000 A 
ATOM      5  C   UNL     1       3.933  -2.688  -2.977  0.00  0.00    +0.000 A 
ATOM      6  C   UNL     1       3.777  -3.299  -1.747  0.00  0.00    +0.000 A 
ATOM      7  C   UNL     1       3.460  -2.542  -0.634  0.00  0.00    +0.008 A 
ENDBRANCH   1   2
BRANCH   1   8
ATOM      8  C   UNL     1       1.463  -0.155   0.529  0.00  0.00    +0.263 C 
ATOM      9  O   UNL     1       0.990   0.956   0.411  0.00  0.00    -0.271 OA
ATOM     10  N   UNL     1       0.654  -1.215   0.722  0.00  0.00    -0.281 N 
ATOM     11  H   UNL     1       1.024  -2.111   0.739  0.00  0.00    +0.155 HD
BRANCH  10  12
ATOM     12  C   UNL     1      -0.723  -1.024   0.891  0.00  0.00    +0.052 A 
ATOM     13  C   UNL     1      -1.366   0.016   0.233  0.00  0.00    +0.027 A 
ATOM     14  C   UNL     1      -2.724   0.203   0.402  0.00  0.00    +0.034 A 
ATOM     15  C   UNL     1      -3.444  -0.644   1.225  0.00  0.00    +0.128 A 
ATOM     16  C   UNL     1      -2.806  -1.681   1.882  0.00  0.00    +0.054 A 
ATOM     17  C   UNL     1      -1.449  -1.877   1.713  0.00  0.00    +0.064 A 
ATOM     18 CL   UNL     1      -0.650  -3.182   2.533  0.00  0.00    -0.082 Cl
BRANCH  15  19
ATOM     19  N   UNL     1      -4.899  -0.441   1.403  0.00  0.00    +0.056 N 
ATOM     20  O   UNL     1      -5.462   0.471   0.825  0.00  0.00    -0.126 OA
ATOM     21  O   UNL     1      -5.534  -1.186   2.128  0.00  0.00    -0.126 OA
ENDBRANCH  15  19
ENDBRANCH  10  12
ENDBRANCH   1   8
BRANCH   1  22
ATOM     22  O   UNL     1       3.609   0.945   0.369  0.00  0.00    -0.443 OA
BRANCH  22  23
ATOM     23  C   UNL     1       4.843   1.048   0.903  0.00  0.00    +0.355 C 
ATOM     24  O   UNL     1       5.359   0.082   1.432  0.00  0.00    -0.243 OA
BRANCH  23  25
ATOM     25  C   UNL     1       5.563   2.326   0.846  0.00  0.00    +0.119 C 
ATOM     26  C   UNL     1       6.802   2.430   1.382  0.00  0.00    +0.038 C 
BRANCH  26  27
ATOM     27  C   UNL     1       7.466   3.740   1.452  0.00  0.00    -0.023 A 
ATOM     28  C   UNL     1       8.862   3.820   1.488  0.00  0.00    +0.008 A 
ATOM     29  C   UNL     1       9.477   5.053   1.548  0.00  0.00    +0.001 A 
ATOM     30  C   UNL     1       8.716   6.209   1.585  0.00  0.00    +0.000 A 
ATOM     31  C   UNL     1       7.334   6.138   1.555  0.00  0.00    +0.001 A 
ATOM     32  C   UNL     1       6.704   4.913   1.489  0.00  0.00    +0.008 A 
ENDBRANCH  26  27
BRANCH  25  36
ATOM     33  C   UNL     1       3.095   5.028  -0.035  0.00  0.00    +0.109 C 
ATOM     34  C   UNL     1       3.787   3.901   0.688  0.00  0.00    +0.214 C 
ATOM     35  O   UNL     1       3.279   3.410   1.674  0.00  0.00    -0.276 OA
ATOM     36  N   UNL     1       4.970   3.437   0.237  0.00  0.00    -0.280 N 
ATOM     37  H   UNL     1       5.409   3.874  -0.509  0.00  0.00    +0.155 HD
ENDBRANCH  25  36
ENDBRANCH  23  25
ENDBRANCH  22  23
ENDBRANCH   1  22
TORSDOF 9
