REMARK  Name = ZINC00866771
REMARK  7 active torsions:
REMARK  status: ('A' for Active; 'I' for Inactive)
REMARK    1  A    between atoms: C_1  and  C_2
REMARK    2  A    between atoms: C_2  and  C_3
REMARK    3  A    between atoms: C_3  and  C_5
REMARK    4  A    between atoms: C_3  and  N_6
REMARK    5  A    between atoms: C_7  and  C_9
REMARK    6  A    between atoms: C_13  and  C_24
REMARK    7  A    between atoms: C_16  and  C_20
REMARK                            x       y       z     vdW  Elec       q    Type
REMARK                         _______ _______ _______ _____ _____    ______ ____
ROOT
ATOM      1  C   UNL     1      -0.220   0.415  -4.826  0.00  0.00    +0.110 C 
ATOM      2  C   UNL     1      -1.553   0.659  -4.848  0.00  0.00    +0.072 C 
ATOM      3  C   UNL     1      -1.907   1.009  -6.223  0.00  0.00    +0.114 C 
ATOM      4  N   UNL     1      -3.062   1.333  -6.732  0.00  0.00    -0.365 N 
ATOM      5  C   UNL     1      -3.141   1.681  -8.156  0.00  0.00    +0.113 C 
ATOM      6  C   UNL     1      -2.104   0.895  -8.960  0.00  0.00    +0.062 C 
ATOM      7  C   UNL     1      -0.697   1.181  -8.411  0.00  0.00    +0.201 C 
ATOM      8  N   UNL     1      -0.736   0.931  -6.966  0.00  0.00    -0.226 N 
ATOM      9  N   UNL     1       0.297   0.592  -6.100  0.00  0.00    -0.258 N 
ATOM     10  H   UNL     1       1.230   0.492  -6.347  0.00  0.00    +0.170 HD
ATOM     11  H   UNL     1      -3.858   1.344  -6.178  0.00  0.00    +0.161 HD
ENDROOT
BRANCH   5  12
ATOM     12  C   UNL     1      -4.519   1.355  -8.671  0.00  0.00    -0.021 A 
ATOM     13  C   UNL     1      -5.156   0.201  -8.256  0.00  0.00    +0.009 A 
ATOM     14  C   UNL     1      -6.420  -0.102  -8.725  0.00  0.00    +0.050 A 
ATOM     15  C   UNL     1      -7.052   0.752  -9.615  0.00  0.00    +0.166 A 
ATOM     16  C   UNL     1      -6.411   1.915 -10.033  0.00  0.00    +0.167 A 
ATOM     17  C   UNL     1      -5.146   2.215  -9.554  0.00  0.00    +0.055 A 
ATOM     18  O   UNL     1      -7.232   2.579 -10.899  0.00  0.00    -0.453 OA
ATOM     19  C   UNL     1      -8.209   1.609 -11.321  0.00  0.00    +0.466 C 
ATOM     20  O   UNL     1      -8.275   0.687 -10.218  0.00  0.00    -0.453 OA
ENDBRANCH   5  12
BRANCH   1  22
ATOM     21  N   UNL     1      -0.055  -0.114  -2.441  0.00  0.00    -0.308 N 
ATOM     22  C   UNL     1       0.561   0.028  -3.631  0.00  0.00    +0.260 C 
ATOM     23  O   UNL     1       1.758  -0.163  -3.722  0.00  0.00    -0.269 OA
ATOM     24  H   UNL     1      -1.010   0.038  -2.368  0.00  0.00    +0.149 HD
BRANCH  21  25
ATOM     25  C   UNL     1       0.718  -0.497  -1.257  0.00  0.00    +0.070 C 
ATOM     26  C   UNL     1       0.849  -2.021  -1.205  0.00  0.00    +0.028 C 
BRANCH  25  28
ATOM     27  C   UNL     1      -0.019   1.526   0.010  0.00  0.00    +0.005 C 
ATOM     28  C   UNL     1       0.002  -0.004   0.002  0.00  0.00    +0.018 C 
ENDBRANCH  25  28
ENDBRANCH  21  25
ENDBRANCH   1  22
BRANCH   7  29
ATOM     29  C   UNL     1       0.320   0.251  -9.075  0.00  0.00    +0.410 C 
ATOM     30  F   UNL     1       0.312   0.462 -10.458  0.00  0.00    -0.169 F 
ATOM     31  F   UNL     1       1.597   0.518  -8.570  0.00  0.00    -0.169 F 
ATOM     32  F   UNL     1      -0.019  -1.079  -8.805  0.00  0.00    -0.169 F 
ENDBRANCH   7  29
TORSDOF 5
