REMARK  Name = ZINC12986696
REMARK  10 active torsions:
REMARK  status: ('A' for Active; 'I' for Inactive)
REMARK    1  A    between atoms: C_1  and  C_2
REMARK    2  A    between atoms: C_2  and  O_3
REMARK    3  A    between atoms: O_3  and  C_4
REMARK    4  A    between atoms: C_7  and  C_10
REMARK    5  A    between atoms: C_12  and  C_15
REMARK    6  A    between atoms: C_15  and  C_16
REMARK    7  A    between atoms: C_16  and  C_17
REMARK    8  A    between atoms: N_19  and  C_20
REMARK    9  A    between atoms: C_23  and  C_27
REMARK   10  A    between atoms: C_25  and  C_26
REMARK                            x       y       z     vdW  Elec       q    Type
REMARK                         _______ _______ _______ _____ _____    ______ ____
ROOT
ATOM      1  C   UNL     1      -7.883   2.875  -1.099  0.00  0.00    +0.202 A 
ATOM      2  N   UNL     1      -6.747   2.256  -1.492  0.00  0.00    -0.191 NA
ATOM      3  C   UNL     1      -6.159   1.866  -0.389  0.00  0.00    +0.228 A 
ATOM      4  O   UNL     1      -6.939   2.245   0.628  0.00  0.00    -0.338 OA
ATOM      5  N   UNL     1      -7.918   2.825   0.207  0.00  0.00    -0.056 NA
ENDROOT
BRANCH   1   9
ATOM      6  C   UNL     1     -10.797   4.655  -3.636  0.00  0.00    +0.121 A 
ATOM      7  C   UNL     1     -10.970   4.678  -2.259  0.00  0.00    +0.046 A 
ATOM      8  C   UNL     1     -10.027   4.102  -1.434  0.00  0.00    +0.015 A 
ATOM      9  C   UNL     1      -8.899   3.495  -1.984  0.00  0.00    +0.023 A 
ATOM     10  C   UNL     1      -8.726   3.478  -3.367  0.00  0.00    +0.015 A 
ATOM     11  C   UNL     1      -9.674   4.051  -4.187  0.00  0.00    +0.046 A 
BRANCH   6  12
ATOM     12  O   UNL     1     -11.727   5.223  -4.446  0.00  0.00    -0.492 OA
BRANCH  12  14
ATOM     13  C   UNL     1     -12.632   5.851  -6.597  0.00  0.00    +0.048 C 
ATOM     14  C   UNL     1     -11.485   5.163  -5.853  0.00  0.00    +0.225 C 
ENDBRANCH  12  14
ENDBRANCH   6  12
ENDBRANCH   1   9
BRANCH   3  15
ATOM     15  C   UNL     1      -4.851   1.124  -0.286  0.00  0.00    +0.108 C 
BRANCH  15  16
ATOM     16  C   UNL     1      -3.702   2.128  -0.184  0.00  0.00    +0.105 C 
BRANCH  16  17
ATOM     17  C   UNL     1      -2.394   1.385  -0.081  0.00  0.00    +0.218 C 
ATOM     18  O   UNL     1      -2.383   0.173  -0.088  0.00  0.00    -0.275 OA
ATOM     19  N   UNL     1      -1.237   2.069   0.019  0.00  0.00    -0.285 N 
ATOM     20  H   UNL     1      -1.250   3.037   0.090  0.00  0.00    +0.155 HD
BRANCH  19  21
ATOM     21  C   UNL     1      -0.017   1.384   0.021  0.00  0.00    +0.036 A 
ATOM     22  C   UNL     1       0.078   0.134   0.619  0.00  0.00    +0.024 A 
ATOM     23  C   UNL     1       1.282  -0.542   0.613  0.00  0.00    +0.005 A 
ATOM     24  C   UNL     1       2.392   0.024   0.013  0.00  0.00    -0.050 A 
ATOM     25  C   UNL     1       2.300   1.267  -0.584  0.00  0.00    +0.008 A 
ATOM     26  C   UNL     1       1.099   1.949  -0.581  0.00  0.00    -0.029 A 
ATOM     27  C   UNL     1       1.000   3.305  -1.231  0.00  0.00    +0.045 C 
ATOM     28  C   UNL     1       3.704  -0.717   0.009  0.00  0.00    +0.044 C 
ENDBRANCH  19  21
ENDBRANCH  16  17
ENDBRANCH  15  16
ENDBRANCH   3  15
TORSDOF 7
