REMARK  Name = ZINC67217177
REMARK  10 active torsions:
REMARK  status: ('A' for Active; 'I' for Inactive)
REMARK    1  A    between atoms: C_1  and  C_2
REMARK    2  A    between atoms: C_6  and  N_9
REMARK    3  A    between atoms: C_7  and  C_8
REMARK    4  A    between atoms: C_18  and  S_19
REMARK    5  A    between atoms: S_19  and  C_20
REMARK    6  A    between atoms: C_20  and  C_21
REMARK    7  A    between atoms: N_23  and  C_24
REMARK    8  A    between atoms: C_25  and  C_32
REMARK    9  A    between atoms: C_27  and  C_31
REMARK   10  A    between atoms: C_29  and  C_30
REMARK                            x       y       z     vdW  Elec       q    Type
REMARK                         _______ _______ _______ _____ _____    ______ ____
ROOT
ATOM      1  N   UNL     1       0.250  -2.452   4.070  0.00  0.00    -0.255 N 
ATOM      2  C   UNL     1      -0.906  -3.079   4.398  0.00  0.00    +0.274 A 
ATOM      3  O   UNL     1      -1.952  -2.458   4.485  0.00  0.00    -0.266 OA
ATOM      4  C   UNL     1      -0.868  -4.451   4.632  0.00  0.00    +0.102 A 
ATOM      5  C   UNL     1       0.330  -5.183   4.536  0.00  0.00    +0.086 A 
ATOM      6  C   UNL     1       0.221  -6.556   4.799  0.00  0.00    +0.036 A 
ATOM      7  C   UNL     1      -0.976  -7.093   5.118  0.00  0.00    +0.048 A 
ATOM      8  S   UNL     1      -2.067  -5.681   5.075  0.00  0.00    -0.090 S 
ATOM      9  N   UNL     1       1.446  -4.469   4.200  0.00  0.00    -0.222 NA
ATOM     10  C   UNL     1       1.402  -3.183   3.977  0.00  0.00    +0.177 A 
ENDROOT
BRANCH   1  16
ATOM     11  C   UNL     1       0.756   2.142   5.748  0.00  0.00    +0.044 C 
ATOM     12  C   UNL     1       0.506   1.176   4.620  0.00  0.00    -0.046 A 
ATOM     13  C   UNL     1       0.289   1.650   3.339  0.00  0.00    +0.004 A 
ATOM     14  C   UNL     1       0.059   0.767   2.301  0.00  0.00    +0.002 A 
ATOM     15  C   UNL     1       0.045  -0.594   2.540  0.00  0.00    +0.026 A 
ATOM     16  C   UNL     1       0.263  -1.073   3.824  0.00  0.00    +0.055 A 
ATOM     17  C   UNL     1       0.499  -0.183   4.864  0.00  0.00    -0.024 A 
ATOM     18  C   UNL     1       0.742  -0.700   6.259  0.00  0.00    +0.046 C 
ENDBRANCH   1  16
BRANCH  10  19
ATOM     19  S   UNL     1       2.894  -2.352   3.543  0.00  0.00    -0.078 S 
BRANCH  19  20
ATOM     20  C   UNL     1       4.143  -3.668   3.534  0.00  0.00    +0.173 C 
BRANCH  20  21
ATOM     21  C   UNL     1       5.484  -3.085   3.173  0.00  0.00    +0.228 C 
ATOM     22  O   UNL     1       5.588  -1.899   2.944  0.00  0.00    -0.275 OA
ATOM     23  N   UNL     1       6.569  -3.882   3.104  0.00  0.00    -0.284 N 
ATOM     24  H   UNL     1       6.502  -4.816   3.358  0.00  0.00    +0.155 HD
BRANCH  23  25
ATOM     25  C   UNL     1       7.792  -3.363   2.667  0.00  0.00    +0.039 A 
ATOM     26  C   UNL     1       8.929  -3.504   3.452  0.00  0.00    -0.029 A 
ATOM     27  C   UNL     1      10.135  -2.990   3.017  0.00  0.00    +0.008 A 
ATOM     28  C   UNL     1      10.211  -2.335   1.802  0.00  0.00    -0.050 A 
ATOM     29  C   UNL     1       9.081  -2.193   1.017  0.00  0.00    +0.008 A 
ATOM     30  C   UNL     1       7.874  -2.710   1.444  0.00  0.00    -0.029 A 
ATOM     31  C   UNL     1       6.644  -2.560   0.585  0.00  0.00    +0.045 C 
ATOM     32  C   UNL     1      11.529  -1.776   1.330  0.00  0.00    +0.044 C 
ATOM     33  C   UNL     1       8.847  -4.217   4.777  0.00  0.00    +0.045 C 
ENDBRANCH  23  25
ENDBRANCH  20  21
ENDBRANCH  19  20
ENDBRANCH  10  19
TORSDOF 5
