REMARK  Name = ZINC09848934
REMARK  7 active torsions:
REMARK  status: ('A' for Active; 'I' for Inactive)
REMARK    1  A    between atoms: C_3  and  C_8
REMARK    2  A    between atoms: C_8  and  N_9
REMARK    3  A    between atoms: C_10  and  C_12
REMARK    4  A    between atoms: C_12  and  O_13
REMARK    5  A    between atoms: O_13  and  C_14
REMARK    6  A    between atoms: C_14  and  C_16
REMARK    7  A    between atoms: C_20  and  N_22
REMARK                            x       y       z     vdW  Elec       q    Type
REMARK                         _______ _______ _______ _____ _____    ______ ____
ROOT
ATOM      1  C   UNL     1       2.462   0.920  -0.017  0.00  0.00    +0.328 C 
ENDROOT
BRANCH   1   3
ATOM      2  N   UNL     1      -0.011   0.966   0.007  0.00  0.00    -0.308 N 
ATOM      3  C   UNL     1       1.147   1.655   0.000  0.00  0.00    +0.251 C 
ATOM      4  O   UNL     1       1.130   2.868   0.007  0.00  0.00    -0.272 OA
ATOM      5  H   UNL     1       0.002  -0.004   0.002  0.00  0.00    +0.149 HD
BRANCH   2   6
ATOM      6  C   UNL     1      -1.290   1.681   0.017  0.00  0.00    +0.139 C 
BRANCH   6   9
ATOM      7  C   UNL     1      -3.986  -0.675  -1.181  0.00  0.00    +0.002 A 
ATOM      8  C   UNL     1      -2.950   0.241  -1.180  0.00  0.00    +0.005 A 
ATOM      9  C   UNL     1      -2.422   0.686   0.017  0.00  0.00    -0.029 A 
ATOM     10  C   UNL     1      -2.935   0.224   1.214  0.00  0.00    +0.025 A 
ATOM     11  C   UNL     1      -3.974  -0.689   1.214  0.00  0.00    +0.041 A 
ATOM     12  C   UNL     1      -4.500  -1.139   0.015  0.00  0.00    +0.020 A 
ATOM     13 CL   UNL     1      -4.620  -1.270   2.717  0.00  0.00    -0.084 Cl
ENDBRANCH   6   9
ENDBRANCH   2   6
ENDBRANCH   1   3
BRANCH   1  14
ATOM     14  O   UNL     1       3.553   1.878  -0.022  0.00  0.00    -0.452 OA
BRANCH  14  15
ATOM     15  C   UNL     1       4.804   1.380  -0.036  0.00  0.00    +0.340 C 
ATOM     16  O   UNL     1       4.980   0.178  -0.044  0.00  0.00    -0.245 OA
BRANCH  15  17
ATOM     17  C   UNL     1       5.963   2.296  -0.043  0.00  0.00    +0.061 A 
ATOM     18  C   UNL     1       5.765   3.679  -0.039  0.00  0.00    +0.016 A 
ATOM     19  C   UNL     1       6.851   4.528  -0.040  0.00  0.00    +0.018 A 
ATOM     20  C   UNL     1       8.136   4.013  -0.055  0.00  0.00    +0.048 A 
ATOM     21  C   UNL     1       8.340   2.643  -0.064  0.00  0.00    +0.141 A 
ATOM     22  C   UNL     1       7.262   1.783  -0.058  0.00  0.00    +0.048 A 
ATOM     23 BR   UNL     1       9.620   5.185  -0.064  0.00  0.00    -0.048 Br
BRANCH  21  24
ATOM     24  N   UNL     1       9.717   2.101  -0.079  0.00  0.00    +0.058 N 
ATOM     25  O   UNL     1       9.897   0.897  -0.087  0.00  0.00    -0.126 OA
ATOM     26  O   UNL     1      10.670   2.860  -0.085  0.00  0.00    -0.126 OA
ENDBRANCH  21  24
ENDBRANCH  15  17
ENDBRANCH  14  15
ENDBRANCH   1  14
TORSDOF 7
