REMARK  Name = ZINC16071513
REMARK  9 active torsions:
REMARK  status: ('A' for Active; 'I' for Inactive)
REMARK    1  A    between atoms: C_1  and  C_2
REMARK    2  A    between atoms: C_2  and  C_4
REMARK    3  A    between atoms: C_2  and  S_11
REMARK    4  A    between atoms: N_6  and  C_7
REMARK    5  A    between atoms: C_7  and  C_8
REMARK    6  A    between atoms: C_8  and  C_9
REMARK    7  A    between atoms: C_8  and  C_10
REMARK    8  A    between atoms: S_11  and  C_12
REMARK    9  A    between atoms: N_25  and  C_26
REMARK                            x       y       z     vdW  Elec       q    Type
REMARK                         _______ _______ _______ _____ _____    ______ ____
ROOT
ATOM      1  C   UNL     1      -2.712   0.476   1.429  0.00  0.00    +0.178 A 
ATOM      2  N   UNL     1      -1.956   1.182   2.244  0.00  0.00    -0.215 NA
ATOM      3  C   UNL     1      -2.054   1.036   3.561  0.00  0.00    +0.117 A 
ATOM      4  C   UNL     1      -2.956   0.133   4.148  0.00  0.00    +0.076 A 
ATOM      5  C   UNL     1      -2.948   0.083   5.611  0.00  0.00    -0.023 A 
ATOM      6  C   UNL     1      -2.085   0.900   6.247  0.00  0.00    -0.004 A 
ATOM      7  S   UNL     1      -1.242   1.775   4.956  0.00  0.00    -0.073 S 
ATOM      8  C   UNL     1      -1.886   1.037   7.726  0.00  0.00    +0.043 C 
ATOM      9  C   UNL     1      -3.074   0.373   8.438  0.00  0.00    +0.005 C 
ATOM     10  C   UNL     1      -3.312  -1.005   7.815  0.00  0.00    +0.005 C 
ATOM     11  C   UNL     1      -3.867  -0.846   6.399  0.00  0.00    +0.037 C 
ATOM     12  C   UNL     1      -3.764  -0.621   3.240  0.00  0.00    +0.268 A 
ATOM     13  O   UNL     1      -4.576  -1.428   3.659  0.00  0.00    -0.267 OA
ATOM     14  N   UNL     1      -3.621  -0.422   1.916  0.00  0.00    -0.255 N 
ENDROOT
BRANCH  14  15
ATOM     15  C   UNL     1      -4.413  -1.153   1.022  0.00  0.00    +0.052 A 
ATOM     16  C   UNL     1      -5.641  -0.653   0.611  0.00  0.00    +0.026 A 
ATOM     17  C   UNL     1      -6.419  -1.376  -0.272  0.00  0.00    +0.002 A 
ATOM     18  C   UNL     1      -5.977  -2.597  -0.746  0.00  0.00    +0.000 A 
ATOM     19  C   UNL     1      -4.755  -3.099  -0.338  0.00  0.00    +0.002 A 
ATOM     20  C   UNL     1      -3.969  -2.377   0.539  0.00  0.00    +0.026 A 
ENDBRANCH  14  15
BRANCH   1  21
ATOM     21  S   UNL     1      -2.556   0.696  -0.312  0.00  0.00    -0.075 S 
BRANCH  21  23
ATOM     22  C   UNL     1      -1.753   3.275   0.116  0.00  0.00    +0.029 C 
ATOM     23  C   UNL     1      -1.261   1.955  -0.481  0.00  0.00    +0.137 C 
BRANCH  23  24
ATOM     24  C   UNL     1      -0.939   2.152  -1.940  0.00  0.00    +0.226 C 
ATOM     25  O   UNL     1      -1.768   1.891  -2.784  0.00  0.00    -0.275 OA
ATOM     26  N   UNL     1       0.272   2.619  -2.305  0.00  0.00    -0.314 N 
ATOM     27  H   UNL     1       0.935   2.828  -1.629  0.00  0.00    +0.149 HD
BRANCH  26  28
ATOM     28  C   UNL     1       0.585   2.810  -3.723  0.00  0.00    +0.107 C 
BRANCH  28  29
ATOM     29  C   UNL     1       2.012   3.345  -3.863  0.00  0.00    -0.000 C 
ATOM     30  C   UNL     1       2.383   3.427  -5.345  0.00  0.00    +0.009 C 
ATOM     31  C   UNL     1       2.097   4.739  -3.237  0.00  0.00    +0.009 C 
ENDBRANCH  28  29
ENDBRANCH  26  28
ENDBRANCH  23  24
ENDBRANCH  21  23
ENDBRANCH   1  21
TORSDOF 6
