REMARK  Name = ZINC39666199
REMARK  11 active torsions:
REMARK  status: ('A' for Active; 'I' for Inactive)
REMARK    1  A    between atoms: C_1  and  C_2
REMARK    2  A    between atoms: C_5  and  O_8
REMARK    3  A    between atoms: O_8  and  C_9
REMARK    4  A    between atoms: C_9  and  C_11
REMARK    5  A    between atoms: C_9  and  C_12
REMARK    6  A    between atoms: C_12  and  N_13
REMARK    7  A    between atoms: C_14  and  C_16
REMARK    8  A    between atoms: C_27  and  C_29
REMARK    9  A    between atoms: C_30  and  C_40
REMARK   10  A    between atoms: C_33  and  C_34
REMARK   11  A    between atoms: C_36  and  C_39
REMARK                            x       y       z     vdW  Elec       q    Type
REMARK                         _______ _______ _______ _____ _____    ______ ____
ROOT
ATOM      1  C   UNL     1      -3.890  -6.928  -0.092  0.00  0.00    +0.100 C 
ATOM      2  C   UNL     1      -3.846  -6.412  -1.548  0.00  0.00    +0.121 C 
ATOM      3  N   UNL     1      -3.911  -7.637  -2.380  0.00  0.00    -0.296 N 
ATOM      4  C   UNL     1      -4.879  -8.511  -1.676  0.00  0.00    +0.115 C 
ATOM      5  C   UNL     1      -4.571  -8.303  -0.180  0.00  0.00    -0.004 C 
ATOM      6  C   UNL     1      -3.628  -9.393   0.320  0.00  0.00    -0.010 C 
ATOM      7  C   UNL     1      -4.347 -10.744   0.276  0.00  0.00    -0.082 C 
ATOM      8  N   UNL     1      -5.550 -10.687   1.116  0.00  0.00    +0.379 N 
ATOM      9  C   UNL     1      -6.493  -9.701   0.575  0.00  0.00    -0.082 C 
ATOM     10  C   UNL     1      -5.864  -8.306   0.631  0.00  0.00    -0.010 C 
ATOM     11  C   UNL     1      -3.240  -7.897  -3.520  0.00  0.00    +0.252 C 
ATOM     12  O   UNL     1      -3.403  -8.958  -4.093  0.00  0.00    -0.270 OA
ATOM     13  H   UNL     1      -5.989 -11.596   1.134  0.00  0.00    -0.086 HD
ATOM     14  H   UNL     1      -5.291 -10.423   2.054  0.00  0.00    -0.086 HD
ENDROOT
BRANCH  11  15
ATOM     15  C   UNL     1      -2.312  -6.897  -4.073  0.00  0.00    +0.108 A 
ATOM     16  C   UNL     1      -0.928  -6.787  -3.788  0.00  0.00    +0.093 A 
ATOM     17  N   UNL     1      -0.453  -5.784  -4.465  0.00  0.00    -0.082 NA
ATOM     18  O   UNL     1      -1.500  -5.202  -5.216  0.00  0.00    -0.352 OA
ATOM     19  C   UNL     1      -2.627  -5.891  -4.975  0.00  0.00    +0.201 A 
ATOM     20  C   UNL     1      -0.143  -7.678  -2.860  0.00  0.00    +0.070 C 
BRANCH  19  21
ATOM     21  C   UNL     1      -3.959  -5.624  -5.559  0.00  0.00    +0.152 A 
ATOM     22  C   UNL     1      -4.275  -4.598  -6.485  0.00  0.00    +0.079 A 
ATOM     23  C   UNL     1      -5.585  -4.688  -6.774  0.00  0.00    +0.135 A 
ATOM     24  O   UNL     1      -6.101  -5.713  -6.078  0.00  0.00    -0.359 OA
ATOM     25  N   UNL     1      -5.059  -6.299  -5.319  0.00  0.00    -0.075 NA
ATOM     26  C   UNL     1      -6.345  -3.790  -7.716  0.00  0.00    +0.089 C 
ENDBRANCH  19  21
ENDBRANCH  11  15
BRANCH   1  28
ATOM     27  N   UNL     1      -2.285  -7.032   1.788  0.00  0.00    -0.312 N 
ATOM     28  C   UNL     1      -2.493  -7.068   0.457  0.00  0.00    +0.218 C 
ATOM     29  O   UNL     1      -1.556  -7.213  -0.300  0.00  0.00    -0.275 OA
ATOM     30  H   UNL     1      -3.035  -6.916   2.393  0.00  0.00    +0.149 HD
BRANCH  27  31
ATOM     31  C   UNL     1      -0.928  -7.168   2.321  0.00  0.00    +0.148 C 
BRANCH  31  32
ATOM     32  C   UNL     1      -0.970  -7.094   3.849  0.00  0.00    +0.187 C 
ATOM     33  C   UNL     1       0.448  -7.237   4.406  0.00  0.00    +0.053 C 
BRANCH  32  34
ATOM     34  O   UNL     1      -1.515  -5.836   4.250  0.00  0.00    -0.488 OA
BRANCH  34  39
ATOM     35  C   UNL     1      -3.898  -5.588   9.347  0.00  0.00    +0.044 C 
ATOM     36  C   UNL     1      -3.261  -5.654   7.983  0.00  0.00    -0.050 A 
ATOM     37  C   UNL     1      -2.619  -6.810   7.577  0.00  0.00    +0.007 A 
ATOM     38  C   UNL     1      -2.034  -6.873   6.327  0.00  0.00    +0.046 A 
ATOM     39  C   UNL     1      -2.091  -5.776   5.479  0.00  0.00    +0.121 A 
ATOM     40  C   UNL     1      -2.735  -4.618   5.890  0.00  0.00    +0.046 A 
ATOM     41  C   UNL     1      -3.324  -4.562   7.138  0.00  0.00    +0.007 A 
ENDBRANCH  34  39
ENDBRANCH  32  34
ENDBRANCH  31  32
ENDBRANCH  27  31
ENDBRANCH   1  28
TORSDOF 7
