REMARK  Name = ZINC06800797
REMARK  7 active torsions:
REMARK  status: ('A' for Active; 'I' for Inactive)
REMARK    1  A    between atoms: C_1  and  C_2
REMARK    2  A    between atoms: C_2  and  C_3
REMARK    3  A    between atoms: C_3  and  C_4
REMARK    4  A    between atoms: C_4  and  N_5
REMARK    5  A    between atoms: C_13  and  C_16
REMARK    6  A    between atoms: N_19  and  S_20
REMARK    7  A    between atoms: S_20  and  C_23
REMARK                            x       y       z     vdW  Elec       q    Type
REMARK                         _______ _______ _______ _____ _____    ______ ____
ROOT
ATOM      1  N   UNL     1       4.676   4.231  -0.019  0.00  0.00    -0.245 N 
ATOM      2  C   UNL     1       3.637   3.336  -0.014  0.00  0.00    +0.161 A 
ATOM      3  C   UNL     1       2.446   4.106   0.002  0.00  0.00    +0.062 A 
ATOM      4  C   UNL     1       1.213   3.471   0.010  0.00  0.00    +0.025 A 
ATOM      5  C   UNL     1       1.197   2.068   0.002  0.00  0.00    +0.001 A 
ATOM      6  C   UNL     1      -0.016   1.356   0.009  0.00  0.00    +0.010 A 
ATOM      7  C   UNL     1       0.002  -0.004   0.002  0.00  0.00    +0.001 A 
ATOM      8  C   UNL     1       1.209  -0.703  -0.013  0.00  0.00    +0.005 A 
ATOM      9  C   UNL     1       2.401  -0.049  -0.021  0.00  0.00    -0.024 A 
ATOM     10  C   UNL     1       2.427   1.359  -0.014  0.00  0.00    +0.076 A 
ATOM     11  N   UNL     1       3.588   2.017  -0.022  0.00  0.00    -0.227 NA
ATOM     12  C   UNL     1       3.690  -0.829  -0.036  0.00  0.00    +0.046 C 
ATOM     13  C   UNL     1       2.865   5.511   0.005  0.00  0.00    +0.169 A 
ATOM     14  N   UNL     1       4.170   5.533  -0.008  0.00  0.00    -0.152 NA
ATOM     15  N   UNL     1       2.021   6.624   0.018  0.00  0.00    -0.198 N 
ATOM     16  H   UNL     1       1.059   6.503   0.026  0.00  0.00    +0.175 HD
ENDROOT
BRANCH  15  17
ATOM     17  S   UNL     1       2.664   8.150   0.020  0.00  0.00    +0.074 S 
ATOM     18  O   UNL     1       1.566   9.053   0.007  0.00  0.00    -0.150 OA
ATOM     19  O   UNL     1       3.656   8.172   1.037  0.00  0.00    -0.150 OA
BRANCH  17  20
ATOM     20  C   UNL     1       3.507   8.362  -1.512  0.00  0.00    +0.109 A 
ATOM     21  C   UNL     1       4.845   8.027  -1.617  0.00  0.00    +0.029 A 
ATOM     22  C   UNL     1       5.505   8.189  -2.821  0.00  0.00    +0.002 A 
ATOM     23  C   UNL     1       4.832   8.695  -3.916  0.00  0.00    +0.000 A 
ATOM     24  C   UNL     1       3.496   9.035  -3.810  0.00  0.00    +0.002 A 
ATOM     25  C   UNL     1       2.834   8.869  -2.608  0.00  0.00    +0.029 A 
ENDBRANCH  17  20
ENDBRANCH  15  17
BRANCH   1  26
ATOM     26  C   UNL     1       6.098   3.876  -0.035  0.00  0.00    +0.146 C 
BRANCH  26  27
ATOM     27  C   UNL     1       6.579   3.760  -1.483  0.00  0.00    +0.023 C 
BRANCH  27  29
ATOM     28  C   UNL     1       8.544   3.273  -2.947  0.00  0.00    +0.004 C 
ATOM     29  C   UNL     1       8.063   3.389  -1.499  0.00  0.00    -0.002 C 
ENDBRANCH  27  29
ENDBRANCH  26  27
ENDBRANCH   1  26
TORSDOF 5
