REMARK  Name = ZINC33768814
REMARK  8 active torsions:
REMARK  status: ('A' for Active; 'I' for Inactive)
REMARK    1  A    between atoms: C_1  and  O_2
REMARK    2  A    between atoms: O_2  and  C_3
REMARK    3  A    between atoms: C_5  and  C_10
REMARK    4  A    between atoms: C_8  and  O_9
REMARK    5  A    between atoms: N_14  and  C_25
REMARK    6  A    between atoms: N_16  and  C_17
REMARK    7  A    between atoms: C_21  and  O_23
REMARK    8  A    between atoms: C_25  and  C_26
REMARK                            x       y       z     vdW  Elec       q    Type
REMARK                         _______ _______ _______ _____ _____    ______ ____
ROOT
ATOM      1  C   UNL     1       2.497  -1.379  -0.030  0.00  0.00    +0.028 C 
ATOM      2  C   UNL     1       1.766  -0.239  -0.120  0.00  0.00    +0.078 C 
ATOM      3  C   UNL     1       2.198   1.122  -0.491  0.00  0.00    +0.259 C 
ATOM      4  O   UNL     1       3.356   1.367  -0.776  0.00  0.00    -0.269 OA
ATOM      5  N   UNL     1       1.270   2.064  -0.500  0.00  0.00    -0.242 N 
ATOM      6  C   UNL     1      -0.035   1.767  -0.174  0.00  0.00    +0.169 C 
ATOM      7  N   UNL     1      -1.073   2.574  -0.138  0.00  0.00    -0.225 NA
ATOM      8  S   UNL     1       0.023   0.018   0.179  0.00  0.00    -0.049 S 
ENDROOT
BRANCH   1  11
ATOM      9  C   UNL     1       6.014  -2.265  -0.983  0.00  0.00    +0.162 A 
ATOM     10  C   UNL     1       4.639  -2.321  -0.869  0.00  0.00    +0.057 A 
ATOM     11  C   UNL     1       3.959  -1.327  -0.154  0.00  0.00    -0.020 A 
ATOM     12  C   UNL     1       4.677  -0.279   0.435  0.00  0.00    +0.012 A 
ATOM     13  C   UNL     1       6.049  -0.235   0.320  0.00  0.00    +0.050 A 
ATOM     14  C   UNL     1       6.722  -1.222  -0.389  0.00  0.00    +0.158 A 
BRANCH   9  16
ATOM     15  C   UNL     1       5.889  -4.268  -2.259  0.00  0.00    +0.277 C 
ATOM     16  O   UNL     1       6.678  -3.229  -1.676  0.00  0.00    -0.491 OA
ENDBRANCH   9  16
BRANCH  14  17
ATOM     17  O   UNL     1       8.075  -1.169  -0.503  0.00  0.00    -0.503 OA
ATOM     18  H   UNL     1       8.635  -0.347  -0.035  0.00  0.00    +0.292 HD
ENDBRANCH  14  17
ENDBRANCH   1  11
BRANCH   7  19
ATOM     19  C   UNL     1      -2.305   2.089   0.206  0.00  0.00    +0.070 A 
ATOM     20  C   UNL     1      -2.767   0.891  -0.346  0.00  0.00    +0.028 A 
ATOM     21  C   UNL     1      -4.007   0.403   0.009  0.00  0.00    +0.006 A 
ATOM     22  C   UNL     1      -4.801   1.101   0.901  0.00  0.00    +0.045 A 
ATOM     23  C   UNL     1      -4.353   2.295   1.450  0.00  0.00    +0.119 A 
ATOM     24  C   UNL     1      -3.107   2.792   1.106  0.00  0.00    +0.073 A 
BRANCH  23  25
ATOM     25  O   UNL     1      -5.138   2.976   2.326  0.00  0.00    -0.507 OA
ATOM     26  H   UNL     1      -4.784   3.922   2.761  0.00  0.00    +0.292 HD
ENDBRANCH  23  25
ENDBRANCH   7  19
BRANCH   5  27
ATOM     27  C   UNL     1       1.633   3.437  -0.860  0.00  0.00    +0.142 C 
BRANCH  27  28
ATOM     28  C   UNL     1       2.033   4.193   0.380  0.00  0.00    -0.015 C 
ATOM     29  C   UNL     1       3.199   4.787   0.438  0.00  0.00    +0.005 C 
ENDBRANCH  27  28
ENDBRANCH   5  27
TORSDOF 7
