REMARK  Name = ZINC20676592
REMARK  5 active torsions:
REMARK  status: ('A' for Active; 'I' for Inactive)
REMARK    1  A    between atoms: N_10  and  C_13
REMARK    2  A    between atoms: C_13  and  C_14
REMARK    3  A    between atoms: C_22  and  C_24
REMARK    4  A    between atoms: C_24  and  C_25
REMARK    5  A    between atoms: N_27  and  C_28
REMARK                            x       y       z     vdW  Elec       q    Type
REMARK                         _______ _______ _______ _____ _____    ______ ____
ROOT
ATOM      1  C   UNL     1       0.318  -6.558  -2.347  0.00  0.00    +0.230 C 
ATOM      2  O   UNL     1      -0.145  -6.287  -1.260  0.00  0.00    -0.274 OA
ATOM      3  N   UNL     1      -0.013  -7.717  -2.951  0.00  0.00    -0.287 N 
ATOM      4  C   UNL     1       0.536  -8.079  -4.268  0.00  0.00    +0.127 C 
ATOM      5  C   UNL     1       1.342  -9.370  -4.110  0.00  0.00    +0.123 C 
ATOM      6  N   UNL     1       0.595 -10.355  -3.340  0.00  0.00    -0.312 N 
ATOM      7  C   UNL     1      -0.401 -10.063  -2.502  0.00  0.00    +0.234 C 
ATOM      8  O   UNL     1      -0.895 -10.963  -1.855  0.00  0.00    -0.274 OA
ATOM      9  C   UNL     1      -0.934  -8.673  -2.318  0.00  0.00    +0.171 C 
ATOM     10  H   UNL     1       0.838 -11.288  -3.444  0.00  0.00    +0.149 HD
ENDROOT
BRANCH   1  11
ATOM     11  C   UNL     1       1.265  -5.601  -3.023  0.00  0.00    +0.180 C 
BRANCH  11  21
ATOM     12  C   UNL     1       0.250   1.651  -1.395  0.00  0.00    +0.005 A 
ATOM     13  C   UNL     1       1.427   2.346  -1.642  0.00  0.00    +0.018 A 
ATOM     14  C   UNL     1       2.607   1.646  -1.790  0.00  0.00    +0.084 A 
ATOM     15  N   UNL     1       2.628   0.329  -1.699  0.00  0.00    -0.350 N 
ATOM     16  C   UNL     1       1.528  -0.369  -1.465  0.00  0.00    +0.099 A 
ATOM     17  C   UNL     1       0.304   0.273  -1.305  0.00  0.00    +0.042 A 
ATOM     18  N   UNL     1       1.597  -1.754  -1.377  0.00  0.00    -0.314 N 
ATOM     19  C   UNL     1       2.850  -2.467  -1.666  0.00  0.00    +0.122 C 
ATOM     20  C   UNL     1       2.555  -3.581  -2.677  0.00  0.00    +0.104 C 
ATOM     21  N   UNL     1       1.464  -4.423  -2.168  0.00  0.00    -0.291 NA
ATOM     22  C   UNL     1       0.218  -3.656  -2.030  0.00  0.00    +0.104 C 
ATOM     23  C   UNL     1       0.420  -2.545  -0.987  0.00  0.00    +0.122 C 
ATOM     24  H   UNL     1       3.471  -0.138  -1.807  0.00  0.00    +0.166 HD
ENDBRANCH  11  21
ENDBRANCH   1  11
BRANCH   9  25
ATOM     25  C   UNL     1      -2.313  -8.567  -2.974  0.00  0.00    +0.128 C 
BRANCH  25  26
ATOM     26  C   UNL     1      -2.898  -7.207  -2.695  0.00  0.00    +0.219 C 
ATOM     27  O   UNL     1      -2.275  -6.402  -2.036  0.00  0.00    -0.275 OA
ATOM     28  N   UNL     1      -4.115  -6.886  -3.176  0.00  0.00    -0.285 N 
ATOM     29  H   UNL     1      -4.642  -7.551  -3.647  0.00  0.00    +0.155 HD
BRANCH  28  30
ATOM     30  C   UNL     1      -4.619  -5.592  -2.998  0.00  0.00    +0.033 A 
ATOM     31  C   UNL     1      -5.396  -5.006  -3.989  0.00  0.00    +0.025 A 
ATOM     32  C   UNL     1      -5.892  -3.729  -3.811  0.00  0.00    +0.022 A 
ATOM     33  C   UNL     1      -5.616  -3.035  -2.646  0.00  0.00    +0.041 A 
ATOM     34  C   UNL     1      -4.843  -3.617  -1.657  0.00  0.00    +0.022 A 
ATOM     35  C   UNL     1      -4.349  -4.895  -1.828  0.00  0.00    +0.025 A 
ATOM     36 CL   UNL     1      -6.241  -1.430  -2.425  0.00  0.00    -0.084 Cl
ENDBRANCH  28  30
ENDBRANCH  25  26
ENDBRANCH   9  25
TORSDOF 5
