REMARK  Name = ZINC67226690
REMARK  10 active torsions:
REMARK  status: ('A' for Active; 'I' for Inactive)
REMARK    1  A    between atoms: C_1  and  C_2
REMARK    2  A    between atoms: C_2  and  C_3
REMARK    3  A    between atoms: C_3  and  C_4
REMARK    4  A    between atoms: C_4  and  C_5
REMARK    5  A    between atoms: C_5  and  C_7
REMARK    6  A    between atoms: C_5  and  N_11
REMARK    7  A    between atoms: C_7  and  O_9
REMARK    8  A    between atoms: O_9  and  C_10
REMARK    9  A    between atoms: C_14  and  C_17
REMARK   10  A    between atoms: C_17  and  C_19
REMARK                            x       y       z     vdW  Elec       q    Type
REMARK                         _______ _______ _______ _____ _____    ______ ____
ROOT
ATOM      1  N   UNL     1       0.680  -2.136  -3.711  0.00  0.00    -0.290 NA
ATOM      2  C   UNL     1      -0.659  -2.739  -3.683  0.00  0.00    +0.086 C 
ATOM      3  C   UNL     1      -1.486  -2.203  -4.854  0.00  0.00    +0.027 C 
ATOM      4  C   UNL     1      -0.779  -2.543  -6.169  0.00  0.00    +0.063 C 
ATOM      5  C   UNL     1       0.630  -1.945  -6.153  0.00  0.00    +0.027 C 
ATOM      6  C   UNL     1       1.395  -2.489  -4.944  0.00  0.00    +0.086 C 
ENDROOT
BRANCH   4   7
ATOM      7  C   UNL     1      -1.558  -1.966  -7.323  0.00  0.00    +0.166 C 
ATOM      8  O   UNL     1      -2.204  -0.951  -7.171  0.00  0.00    -0.292 OA
BRANCH   7   9
ATOM      9  C   UNL     1      -1.534  -2.632  -8.632  0.00  0.00    +0.021 A 
ATOM     10  C   UNL     1      -0.792  -3.807  -8.809  0.00  0.00    +0.015 A 
ATOM     11  C   UNL     1      -0.771  -4.428 -10.037  0.00  0.00    +0.050 A 
ATOM     12  C   UNL     1      -1.484  -3.893 -11.105  0.00  0.00    +0.162 A 
ATOM     13  C   UNL     1      -2.225  -2.726 -10.937  0.00  0.00    +0.163 A 
ATOM     14  C   UNL     1      -2.256  -2.099  -9.706  0.00  0.00    +0.060 A 
ATOM     15  O   UNL     1      -2.934  -2.195 -11.971  0.00  0.00    -0.485 OA
ATOM     16  C   UNL     1      -2.588  -2.646 -13.285  0.00  0.00    +0.270 C 
ATOM     17  C   UNL     1      -2.465  -4.175 -13.252  0.00  0.00    +0.270 C 
ATOM     18  O   UNL     1      -1.444  -4.522 -12.310  0.00  0.00    -0.485 OA
ENDBRANCH   7   9
ENDBRANCH   4   7
BRANCH   1  19
ATOM     19  C   UNL     1       1.455  -2.521  -2.524  0.00  0.00    +0.166 C 
BRANCH  19  20
ATOM     20  C   UNL     1       1.584  -4.021  -2.473  0.00  0.00    +0.324 C 
ATOM     21  O   UNL     1       1.082  -4.701  -3.337  0.00  0.00    -0.249 OA
BRANCH  20  22
ATOM     22  O   UNL     1       2.257  -4.603  -1.468  0.00  0.00    -0.467 OA
ATOM     23  C   UNL     1       2.340  -6.030  -1.483  0.00  0.00    +0.280 C 
ENDBRANCH  20  22
ENDBRANCH  19  20
BRANCH  19  24
ATOM     24  C   UNL     1       0.739  -2.027  -1.265  0.00  0.00    +0.030 C 
BRANCH  24  25
ATOM     25  C   UNL     1       0.718  -0.497  -1.257  0.00  0.00    +0.002 C 
BRANCH  25  27
ATOM     26  C   UNL     1      -0.019   1.526   0.010  0.00  0.00    +0.004 C 
ATOM     27  C   UNL     1       0.002  -0.004   0.002  0.00  0.00    -0.003 C 
ENDBRANCH  25  27
ENDBRANCH  24  25
ENDBRANCH  19  24
ENDBRANCH   1  19
TORSDOF 8
