REMARK  Name = ZINC35486191
REMARK  15 active torsions:
REMARK  status: ('A' for Active; 'I' for Inactive)
REMARK    1  A    between atoms: C_1  and  C_2
REMARK    2  A    between atoms: C_2  and  N_3
REMARK    3  A    between atoms: N_3  and  C_4
REMARK    4  A    between atoms: N_3  and  C_6
REMARK    5  A    between atoms: C_4  and  C_5
REMARK    6  A    between atoms: C_6  and  C_7
REMARK    7  A    between atoms: C_7  and  N_8
REMARK    8  A    between atoms: C_9  and  C_25
REMARK    9  A    between atoms: C_16  and  C_24
REMARK   10  A    between atoms: C_28  and  O_34
REMARK   11  A    between atoms: C_29  and  O_31
REMARK   12  A    between atoms: O_31  and  C_32
REMARK   13  A    between atoms: C_32  and  C_33
REMARK   14  A    between atoms: O_34  and  C_35
REMARK   15  A    between atoms: C_35  and  C_36
REMARK                            x       y       z     vdW  Elec       q    Type
REMARK                         _______ _______ _______ _____ _____    ______ ____
ROOT
ATOM      1  N   UNL     1       2.011  -3.380  -2.845  0.00  0.00    -0.285 N 
ATOM      2  C   UNL     1       3.002  -4.263  -2.210  0.00  0.00    +0.145 C 
ATOM      3  C   UNL     1       2.693  -5.640  -2.699  0.00  0.00    +0.072 A 
ATOM      4  C   UNL     1       3.337  -6.930  -2.425  0.00  0.00    +0.199 A 
ATOM      5  O   UNL     1       4.182  -7.083  -1.562  0.00  0.00    -0.287 OA
ATOM      6  C   UNL     1       2.859  -8.030  -3.300  0.00  0.00    +0.065 A 
ATOM      7  C   UNL     1       3.508  -9.264  -3.302  0.00  0.00    +0.018 A 
ATOM      8  C   UNL     1       3.059 -10.265  -4.117  0.00  0.00    -0.050 A 
ATOM      9  C   UNL     1       1.962 -10.056  -4.941  0.00  0.00    +0.007 A 
ATOM     10  C   UNL     1       1.307  -8.845  -4.950  0.00  0.00    +0.047 A 
ATOM     11  C   UNL     1       1.745  -7.808  -4.126  0.00  0.00    +0.139 A 
ATOM     12  O   UNL     1       1.081  -6.630  -4.144  0.00  0.00    -0.450 OA
ATOM     13  C   UNL     1       1.618  -5.553  -3.536  0.00  0.00    +0.199 A 
ATOM     14  C   UNL     1       1.205  -4.141  -3.614  0.00  0.00    +0.283 C 
ATOM     15  O   UNL     1       0.275  -3.723  -4.274  0.00  0.00    -0.267 OA
ATOM     16  C   UNL     1       3.758 -11.600  -4.122  0.00  0.00    +0.044 C 
ENDROOT
BRANCH   2  17
ATOM     17  C   UNL     1       2.868  -4.201  -0.710  0.00  0.00    -0.019 A 
ATOM     18  C   UNL     1       1.613  -4.158  -0.131  0.00  0.00    +0.009 A 
ATOM     19  C   UNL     1       1.484  -4.101   1.244  0.00  0.00    +0.050 A 
ATOM     20  C   UNL     1       2.615  -4.086   2.046  0.00  0.00    +0.162 A 
ATOM     21  C   UNL     1       3.877  -4.129   1.463  0.00  0.00    +0.162 A 
ATOM     22  C   UNL     1       3.999  -4.192   0.084  0.00  0.00    +0.055 A 
BRANCH  21  23
ATOM     23  O   UNL     1       4.990  -4.115   2.245  0.00  0.00    -0.489 OA
BRANCH  23  24
ATOM     24  C   UNL     1       6.253  -4.162   1.578  0.00  0.00    +0.226 C 
ATOM     25  C   UNL     1       7.378  -4.137   2.615  0.00  0.00    +0.048 C 
ENDBRANCH  23  24
ENDBRANCH  21  23
BRANCH  20  26
ATOM     26  O   UNL     1       2.490  -4.029   3.399  0.00  0.00    -0.489 OA
BRANCH  26  27
ATOM     27  C   UNL     1       1.163  -3.987   3.927  0.00  0.00    +0.226 C 
ATOM     28  C   UNL     1       1.223  -3.926   5.454  0.00  0.00    +0.048 C 
ENDBRANCH  26  27
ENDBRANCH  20  26
ENDBRANCH   2  17
BRANCH   1  29
ATOM     29  C   UNL     1       1.913  -1.929  -2.670  0.00  0.00    +0.090 C 
BRANCH  29  30
ATOM     30  C   UNL     1       0.994  -1.619  -1.487  0.00  0.00    -0.060 C 
BRANCH  30  31
ATOM     31  N   UNL     1       0.788  -0.168  -1.393  0.00  0.00    +0.380 N 
ATOM     32  H   UNL     1       1.683   0.297  -1.351  0.00  0.00    -0.082 HD
BRANCH  31  34
ATOM     33  C   UNL     1      -0.056   1.826  -2.538  0.00  0.00    -0.017 C 
ATOM     34  C   UNL     1       0.050   0.300  -2.574  0.00  0.00    -0.082 C 
ENDBRANCH  31  34
BRANCH  31  35
ATOM     35  C   UNL     1       0.019   0.141  -0.180  0.00  0.00    -0.082 C 
ATOM     36  C   UNL     1       0.851  -0.210   1.055  0.00  0.00    -0.017 C 
ENDBRANCH  31  35
ENDBRANCH  30  31
ENDBRANCH  29  30
ENDBRANCH   1  29
TORSDOF 10
