REMARK  Name = ZINC32655122
REMARK  9 active torsions:
REMARK  status: ('A' for Active; 'I' for Inactive)
REMARK    1  A    between atoms: C_1  and  C_2
REMARK    2  A    between atoms: C_2  and  S_3
REMARK    3  A    between atoms: S_3  and  C_4
REMARK    4  A    between atoms: C_15  and  C_17
REMARK    5  A    between atoms: C_19  and  O_26
REMARK    6  A    between atoms: C_20  and  O_25
REMARK    7  A    between atoms: C_21  and  O_23
REMARK    8  A    between atoms: O_23  and  C_24
REMARK    9  A    between atoms: O_26  and  C_27
REMARK                            x       y       z     vdW  Elec       q    Type
REMARK                         _______ _______ _______ _____ _____    ______ ____
ROOT
ATOM      1  C   UNL     1      -2.151   2.478  -3.337  0.00  0.00    +0.171 A 
ATOM      2  N   UNL     1      -2.637   1.411  -2.642  0.00  0.00    -0.302 N 
ATOM      3  H   UNL     1      -3.574   0.930  -2.959  0.00  0.00    +0.171 HD
ATOM      4  C   UNL     1      -1.971   0.944  -1.565  0.00  0.00    +0.258 A 
ATOM      5  O   UNL     1      -2.399  -0.010  -0.935  0.00  0.00    -0.267 OA
ATOM      6  C   UNL     1      -0.779   1.573  -1.185  0.00  0.00    +0.069 A 
ATOM      7  C   UNL     1      -0.326   2.649  -1.928  0.00  0.00    +0.135 A 
ATOM      8  N   UNL     1      -1.029   3.072  -2.984  0.00  0.00    -0.208 NA
ATOM      9  N   UNL     1       0.851   3.278  -1.573  0.00  0.00    -0.302 N 
ATOM     10  C   UNL     1       1.765   2.646  -0.774  0.00  0.00    +0.017 C 
ATOM     11  C   UNL     1       1.405   1.598  -0.003  0.00  0.00    +0.024 C 
ATOM     12  C   UNL     1      -0.013   1.086   0.008  0.00  0.00    +0.093 C 
ATOM     13  C   UNL     1       2.343   0.950   0.821  0.00  0.00    +0.162 C 
ATOM     14  O   UNL     1       1.992  -0.002   1.489  0.00  0.00    -0.292 OA
ATOM     15  C   UNL     1       3.772   1.413   0.891  0.00  0.00    +0.080 C 
ATOM     16  C   UNL     1       3.825   2.914   0.588  0.00  0.00    +0.014 C 
ATOM     17  C   UNL     1       3.187   3.152  -0.782  0.00  0.00    +0.051 C 
ATOM     18  H   UNL     1       1.060   4.296  -1.932  0.00  0.00    +0.153 HD
ENDROOT
BRANCH  12  19
ATOM     19  C   UNL     1      -0.700   1.562   1.262  0.00  0.00    -0.028 A 
ATOM     20  C   UNL     1      -0.837   2.917   1.500  0.00  0.00    +0.054 A 
ATOM     21  C   UNL     1      -1.474   3.360   2.650  0.00  0.00    +0.165 A 
ATOM     22  C   UNL     1      -1.964   2.439   3.568  0.00  0.00    +0.201 A 
ATOM     23  C   UNL     1      -1.819   1.078   3.328  0.00  0.00    +0.165 A 
ATOM     24  C   UNL     1      -1.186   0.644   2.173  0.00  0.00    +0.054 A 
BRANCH  23  25
ATOM     25  O   UNL     1      -2.298   0.174   4.223  0.00  0.00    -0.491 OA
ATOM     26  C   UNL     1      -2.114  -1.208   3.911  0.00  0.00    +0.277 C 
ENDBRANCH  23  25
BRANCH  22  27
ATOM     27  O   UNL     1      -2.585   2.870   4.700  0.00  0.00    -0.501 OA
ATOM     28  H   UNL     1      -2.972   2.140   5.427  0.00  0.00    +0.292 HD
ENDBRANCH  22  27
BRANCH  21  29
ATOM     29  O   UNL     1      -1.613   4.693   2.880  0.00  0.00    -0.491 OA
ATOM     30  C   UNL     1      -1.085   5.581   1.893  0.00  0.00    +0.277 C 
ENDBRANCH  21  29
ENDBRANCH  12  19
BRANCH   1  31
ATOM     31  S   UNL     1      -3.040   3.074  -4.736  0.00  0.00    -0.088 S 
BRANCH  31  33
ATOM     32  C   UNL     1      -2.552   5.131  -6.466  0.00  0.00    +0.016 C 
ATOM     33  C   UNL     1      -1.964   4.442  -5.233  0.00  0.00    +0.074 C 
ENDBRANCH  31  33
ENDBRANCH   1  31
TORSDOF 6
