REMARK  Name = ZINC59887391
REMARK  11 active torsions:
REMARK  status: ('A' for Active; 'I' for Inactive)
REMARK    1  A    between atoms: C_1  and  O_2
REMARK    2  A    between atoms: O_2  and  C_3
REMARK    3  A    between atoms: C_3  and  C_4
REMARK    4  A    between atoms: C_4  and  N_5
REMARK    5  A    between atoms: C_7  and  C_10
REMARK    6  A    between atoms: N_11  and  N_12
REMARK    7  A    between atoms: C_15  and  S_18
REMARK    8  A    between atoms: S_18  and  C_19
REMARK    9  A    between atoms: C_19  and  C_20
REMARK   10  A    between atoms: N_22  and  C_23
REMARK   11  A    between atoms: N_22  and  C_29
REMARK                            x       y       z     vdW  Elec       q    Type
REMARK                         _______ _______ _______ _____ _____    ______ ____
ROOT
ATOM      1  N   UNL     1      -9.701  -1.546   6.646  0.00  0.00    -0.205 N 
ATOM      2  C   UNL     1     -10.659  -2.285   5.979  0.00  0.00    +0.232 A 
ATOM      3  N   UNL     1     -10.429  -3.234   5.094  0.00  0.00    -0.186 NA
ATOM      4  C   UNL     1     -11.590  -3.731   4.655  0.00  0.00    +0.211 A 
ATOM      5  N   UNL     1     -12.576  -3.105   5.254  0.00  0.00    -0.144 NA
ATOM      6  N   UNL     1     -11.996  -2.166   6.123  0.00  0.00    -0.245 N 
ATOM      7  H   UNL     1      -9.969  -0.869   7.286  0.00  0.00    +0.177 HD
ATOM      8  H   UNL     1     -12.465  -1.551   6.709  0.00  0.00    +0.192 HD
ENDROOT
BRANCH   1  10
ATOM      9  C   UNL     1      -7.441  -1.082   7.024  0.00  0.00    +0.141 C 
ATOM     10  N   UNL     1      -8.341  -1.776   6.398  0.00  0.00    -0.187 NA
BRANCH   9  13
ATOM     11  N   UNL     1      -3.817  -1.189   6.836  0.00  0.00    -0.269 N 
ATOM     12  C   UNL     1      -4.949  -0.668   7.351  0.00  0.00    +0.117 A 
ATOM     13  C   UNL     1      -6.009  -1.324   6.763  0.00  0.00    +0.032 A 
ATOM     14  C   UNL     1      -5.470  -2.271   5.865  0.00  0.00    +0.143 A 
ATOM     15  N   UNL     1      -4.168  -2.180   5.912  0.00  0.00    -0.179 NA
BRANCH  11  16
ATOM     16  C   UNL     1      -2.452  -0.784   7.181  0.00  0.00    +0.171 C 
BRANCH  16  17
ATOM     17  C   UNL     1      -1.653  -2.010   7.628  0.00  0.00    +0.182 C 
BRANCH  17  19
ATOM     18  C   UNL     1       0.513  -2.690   8.396  0.00  0.00    +0.194 C 
ATOM     19  O   UNL     1      -0.322  -1.614   7.964  0.00  0.00    -0.381 OA
ENDBRANCH  17  19
ENDBRANCH  16  17
ENDBRANCH  11  16
ENDBRANCH   9  13
ENDBRANCH   1  10
BRANCH   4  20
ATOM     20  S   UNL     1     -11.768  -5.017   3.464  0.00  0.00    -0.075 S 
BRANCH  20  21
ATOM     21  C   UNL     1     -13.564  -5.224   3.307  0.00  0.00    +0.173 C 
BRANCH  21  22
ATOM     22  C   UNL     1     -13.858  -6.310   2.304  0.00  0.00    +0.226 C 
ATOM     23  O   UNL     1     -13.033  -6.598   1.463  0.00  0.00    -0.275 OA
ATOM     24  N   UNL     1     -15.038  -6.960   2.342  0.00  0.00    -0.295 N 
BRANCH  24  25
ATOM     25  C   UNL     1     -15.243  -8.154   1.518  0.00  0.00    +0.076 C 
ATOM     26  C   UNL     1     -14.136  -9.169   1.806  0.00  0.00    +0.022 C 
ATOM     27  C   UNL     1     -14.350 -10.416   0.945  0.00  0.00    +0.002 C 
ATOM     28  C   UNL     1     -14.313 -10.026  -0.535  0.00  0.00    +0.000 C 
ATOM     29  C   UNL     1     -15.421  -9.011  -0.823  0.00  0.00    +0.002 C 
ATOM     30  C   UNL     1     -15.206  -7.764   0.038  0.00  0.00    +0.022 C 
ENDBRANCH  24  25
BRANCH  24  31
ATOM     31  C   UNL     1     -16.115  -6.473   3.207  0.00  0.00    +0.076 C 
ATOM     32  C   UNL     1     -16.230  -4.954   3.073  0.00  0.00    +0.022 C 
ATOM     33  C   UNL     1     -17.355  -4.445   3.977  0.00  0.00    +0.002 C 
ATOM     34  C   UNL     1     -17.044  -4.807   5.431  0.00  0.00    +0.000 C 
ATOM     35  C   UNL     1     -16.929  -6.327   5.565  0.00  0.00    +0.002 C 
ATOM     36  C   UNL     1     -15.804  -6.835   4.661  0.00  0.00    +0.022 C 
ENDBRANCH  24  31
ENDBRANCH  21  22
ENDBRANCH  20  21
ENDBRANCH   4  20
TORSDOF 10
