REMARK  Name = ZINC03234670
REMARK  9 active torsions:
REMARK  status: ('A' for Active; 'I' for Inactive)
REMARK    1  A    between atoms: C_1  and  N_2
REMARK    2  A    between atoms: C_6  and  S_7
REMARK    3  A    between atoms: S_7  and  C_8
REMARK    4  A    between atoms: C_8  and  C_9
REMARK    5  A    between atoms: C_12  and  C_15
REMARK    6  A    between atoms: N_17  and  N_18
REMARK    7  A    between atoms: C_19  and  C_20
REMARK    8  A    between atoms: N_22  and  C_36
REMARK    9  A    between atoms: C_24  and  C_25
REMARK                            x       y       z     vdW  Elec       q    Type
REMARK                         _______ _______ _______ _____ _____    ______ ____
ROOT
ATOM      1  C   UNL     1      -2.163  -0.237  13.509  0.00  0.00    +0.041 A 
ATOM      2  C   UNL     1      -3.252  -0.223  14.336  0.00  0.00    +0.124 A 
ATOM      3  N   UNL     1      -2.813  -0.059  15.601  0.00  0.00    -0.239 N 
ATOM      4  N   UNL     1      -1.418   0.036  15.603  0.00  0.00    -0.165 NA
ATOM      5  C   UNL     1      -0.984  -0.072  14.364  0.00  0.00    +0.109 A 
ENDROOT
BRANCH   5   6
ATOM      6  C   UNL     1       0.427  -0.031  13.920  0.00  0.00    +0.088 A 
ATOM      7  C   UNL     1       0.896   0.985  13.120  0.00  0.00    +0.028 A 
ATOM      8  C   UNL     1       2.308   0.940  12.730  0.00  0.00    +0.018 A 
ATOM      9  C   UNL     1       2.929   2.052  12.150  0.00  0.00    +0.011 A 
ATOM     10  C   UNL     1       4.248   1.984  11.798  0.00  0.00    +0.001 A 
ATOM     11  C   UNL     1       4.976   0.823  12.013  0.00  0.00    +0.004 A 
ATOM     12  C   UNL     1       4.383  -0.285  12.583  0.00  0.00    +0.047 A 
ATOM     13  C   UNL     1       3.044  -0.240  12.946  0.00  0.00    +0.139 A 
ATOM     14  O   UNL     1       2.440  -1.317  13.501  0.00  0.00    -0.422 OA
ATOM     15  C   UNL     1       1.389  -1.073  14.321  0.00  0.00    +0.347 A 
ATOM     16  O   UNL     1       1.240  -1.697  15.355  0.00  0.00    -0.244 OA
ENDBRANCH   5   6
BRANCH   3  17
ATOM     17  C   UNL     1      -3.628   0.008  16.738  0.00  0.00    +0.065 A 
ATOM     18  C   UNL     1      -5.007  -0.104  16.612  0.00  0.00    +0.028 A 
ATOM     19  C   UNL     1      -5.809  -0.038  17.735  0.00  0.00    +0.002 A 
ATOM     20  C   UNL     1      -5.240   0.139  18.983  0.00  0.00    +0.000 A 
ATOM     21  C   UNL     1      -3.868   0.250  19.111  0.00  0.00    +0.002 A 
ATOM     22  C   UNL     1      -3.060   0.179  17.993  0.00  0.00    +0.028 A 
ENDBRANCH   3  17
BRANCH   1  24
ATOM     23  N   UNL     1      -1.053  -0.488  11.394  0.00  0.00    -0.187 NA
ATOM     24  C   UNL     1      -2.172  -0.394  12.044  0.00  0.00    +0.142 C 
BRANCH  23  27
ATOM     25  C   UNL     1       0.101  -0.840   9.341  0.00  0.00    +0.263 C 
ATOM     26  O   UNL     1       1.158  -0.708   9.928  0.00  0.00    -0.268 OA
ATOM     27  N   UNL     1      -1.062  -0.743  10.016  0.00  0.00    -0.203 N 
ATOM     28  H   UNL     1      -1.905  -0.848   9.548  0.00  0.00    +0.178 HD
BRANCH  25  32
ATOM     29  C   UNL     1       0.073  -1.612   5.165  0.00  0.00    -0.037 A 
ATOM     30  C   UNL     1       1.277  -1.461   5.829  0.00  0.00    +0.005 A 
ATOM     31  C   UNL     1       1.293  -1.210   7.185  0.00  0.00    +0.013 A 
ATOM     32  C   UNL     1       0.091  -1.108   7.888  0.00  0.00    +0.038 A 
ATOM     33  C   UNL     1      -1.120  -1.261   7.211  0.00  0.00    +0.013 A 
ATOM     34  C   UNL     1      -1.122  -1.507   5.853  0.00  0.00    +0.005 A 
BRANCH  29  35
ATOM     35  C   UNL     1       0.063  -1.886   3.683  0.00  0.00    +0.112 C 
BRANCH  35  36
ATOM     36  S   UNL     1       0.028  -0.314   2.777  0.00  0.00    -0.081 S 
BRANCH  36  42
ATOM     37  C   UNL     1      -0.029   1.499   0.013  0.00  0.00    +0.152 C 
ATOM     38  N   UNL     1      -0.005   0.034   0.001  0.00  0.00    -0.312 N 
ATOM     39  C   UNL     1       0.004  -0.783  -1.095  0.00  0.00    +0.225 A 
ATOM     40  N   UNL     1       0.027  -2.012  -0.663  0.00  0.00    -0.137 NA
ATOM     41  N   UNL     1       0.033  -2.027   0.622  0.00  0.00    -0.123 NA
ATOM     42  C   UNL     1       0.019  -0.798   1.083  0.00  0.00    +0.191 A 
ENDBRANCH  36  42
ENDBRANCH  35  36
ENDBRANCH  29  35
ENDBRANCH  25  32
ENDBRANCH  23  27
ENDBRANCH   1  24
TORSDOF 8
