REMARK  Name = ZINC64152466
REMARK  9 active torsions:
REMARK  status: ('A' for Active; 'I' for Inactive)
REMARK    1  A    between atoms: C_1  and  C_2
REMARK    2  A    between atoms: C_2  and  C_3
REMARK    3  A    between atoms: C_5  and  C_9
REMARK    4  A    between atoms: N_11  and  C_12
REMARK    5  A    between atoms: C_12  and  C_13
REMARK    6  A    between atoms: C_14  and  C_36
REMARK    7  A    between atoms: C_23  and  C_25
REMARK    8  A    between atoms: C_25  and  C_26
REMARK    9  A    between atoms: C_26  and  C_27
REMARK                            x       y       z     vdW  Elec       q    Type
REMARK                         _______ _______ _______ _____ _____    ______ ____
ROOT
ATOM      1  C   UNL     1      -6.389   0.909  -3.834  0.00  0.00    -0.006 A 
ATOM      2  C   UNL     1      -5.703   1.687  -4.745  0.00  0.00    +0.043 A 
ATOM      3  N   UNL     1      -6.039   1.683  -6.020  0.00  0.00    -0.260 NA
ATOM      4  C   UNL     1      -7.036   0.948  -6.468  0.00  0.00    +0.116 A 
ATOM      5  C   UNL     1      -7.770   0.143  -5.611  0.00  0.00    -0.008 A 
ATOM      6  C   UNL     1      -7.439   0.109  -4.273  0.00  0.00    -0.033 A 
ATOM      7  C   UNL     1      -8.152  -0.755  -3.272  0.00  0.00    +0.055 C 
ATOM      8  C   UNL     1      -9.523  -1.177  -3.799  0.00  0.00    +0.113 C 
ATOM      9  N   UNL     1      -9.354  -1.650  -5.183  0.00  0.00    -0.297 N 
ATOM     10  C   UNL     1      -8.908  -0.666  -6.179  0.00  0.00    +0.144 C 
ATOM     11  C   UNL     1      -9.605  -2.931  -5.520  0.00  0.00    +0.216 C 
ATOM     12  O   UNL     1      -9.978  -3.718  -4.676  0.00  0.00    -0.276 OA
ATOM     13  C   UNL     1      -4.559   2.550  -4.277  0.00  0.00    +0.066 C 
ENDROOT
BRANCH   1  14
ATOM     14  C   UNL     1      -5.999   0.920  -2.378  0.00  0.00    +0.141 C 
BRANCH  14  17
ATOM     15  C   UNL     1      -4.489  -0.287  -0.895  0.00  0.00    +0.237 C 
ATOM     16  O   UNL     1      -4.875   0.411   0.018  0.00  0.00    -0.274 OA
ATOM     17  N   UNL     1      -4.989  -0.112  -2.135  0.00  0.00    -0.309 N 
ATOM     18  H   UNL     1      -4.679  -0.670  -2.865  0.00  0.00    +0.149 HD
BRANCH  15  21
ATOM     19  C   UNL     1      -1.412  -0.526   0.013  0.00  0.00    +0.123 C 
ATOM     20  C   UNL     1      -2.075  -0.868  -1.071  0.00  0.00    +0.047 C 
ATOM     21  C   UNL     1      -3.449  -1.349  -0.645  0.00  0.00    +0.204 C 
ATOM     22  N   UNL     1      -3.273  -1.587   0.811  0.00  0.00    -0.140 NA
ATOM     23  O   UNL     1      -2.143  -0.701   1.140  0.00  0.00    -0.410 OA
ATOM     24  H   UNL     1      -4.102  -1.324   1.324  0.00  0.00    +0.168 HD
BRANCH  19  26
ATOM     25  C   UNL     1      -0.019   1.526   0.010  0.00  0.00    +0.012 C 
ATOM     26  C   UNL     1       0.002  -0.004   0.002  0.00  0.00    +0.073 C 
ENDBRANCH  19  26
ENDBRANCH  15  21
ENDBRANCH  14  17
ENDBRANCH   1  14
BRANCH  11  27
ATOM     27  C   UNL     1      -9.422  -3.385  -6.945  0.00  0.00    +0.100 C 
BRANCH  27  28
ATOM     28  C   UNL     1      -9.771  -4.870  -7.056  0.00  0.00    +0.042 C 
BRANCH  28  29
ATOM     29  C   UNL     1      -9.588  -5.324  -8.481  0.00  0.00    -0.041 C 
ATOM     30  C   UNL     1      -8.495  -5.918  -9.011  0.00  0.00    -0.001 A 
ATOM     31  C   UNL     1      -7.198  -6.303  -8.442  0.00  0.00    +0.010 A 
ATOM     32  C   UNL     1      -6.280  -6.894  -9.240  0.00  0.00    +0.001 A 
ATOM     33  C   UNL     1      -6.536  -7.147 -10.595  0.00  0.00    +0.002 A 
ATOM     34  C   UNL     1      -7.703  -6.823 -11.190  0.00  0.00    +0.026 A 
ATOM     35  C   UNL     1      -8.740  -6.197 -10.444  0.00  0.00    +0.043 A 
ATOM     36  N   UNL     1      -9.939  -5.791 -10.787  0.00  0.00    -0.380 N 
ATOM     37  C   UNL     1     -10.592  -5.214  -9.607  0.00  0.00    +0.144 C 
ATOM     38  H   UNL     1     -10.330  -5.864 -11.671  0.00  0.00    +0.160 HD
ENDBRANCH  28  29
ENDBRANCH  27  28
ENDBRANCH  11  27
TORSDOF 7
