REMARK  Name = ZINC16533777
REMARK  15 active torsions:
REMARK  status: ('A' for Active; 'I' for Inactive)
REMARK    1  A    between atoms: C_1  and  C_2
REMARK    2  A    between atoms: C_2  and  C_3
REMARK    3  A    between atoms: C_3  and  N_4
REMARK    4  A    between atoms: N_4  and  C_5
REMARK    5  A    between atoms: C_5  and  C_6
REMARK    6  A    between atoms: N_10  and  C_11
REMARK    7  A    between atoms: C_11  and  C_12
REMARK    8  A    between atoms: C_15  and  C_17
REMARK    9  A    between atoms: N_19  and  C_20
REMARK   10  A    between atoms: C_20  and  C_21
REMARK   11  A    between atoms: C_21  and  C_22
REMARK   12  A    between atoms: C_22  and  N_80
REMARK   13  A    between atoms: C_27  and  C_29
REMARK   14  A    between atoms: C_30  and  C_32
REMARK   15  A    between atoms: C_35  and  C_38
REMARK                            x       y       z     vdW  Elec       q    Type
REMARK                         _______ _______ _______ _____ _____    ______ ____
ROOT
ATOM      1  C   UNL     1     -11.206  -2.748   0.378  0.00  0.00    +0.195 C 
ENDROOT
BRANCH   1   6
ATOM      2  C   UNL     1     -13.618  -3.306   0.828  0.00  0.00    +0.037 A 
ATOM      3  C   UNL     1     -14.461  -4.314   0.526  0.00  0.00    +0.024 A 
ATOM      4  C   UNL     1     -13.739  -5.253  -0.236  0.00  0.00    +0.019 A 
ATOM      5  C   UNL     1     -12.483  -4.781  -0.375  0.00  0.00    +0.086 A 
ATOM      6  N   UNL     1     -12.402  -3.589   0.282  0.00  0.00    -0.342 N 
BRANCH   2   7
ATOM      7  C   UNL     1     -13.961  -2.078   1.632  0.00  0.00    +0.161 C 
BRANCH   7   8
ATOM      8  N   UNL     1     -12.924  -1.849   2.642  0.00  0.00    -0.292 N 
ATOM      9  C   UNL     1     -12.256  -0.679   2.668  0.00  0.00    +0.247 C 
ATOM     10  O   UNL     1     -11.407  -0.484   3.515  0.00  0.00    -0.270 OA
BRANCH   9  11
ATOM     11  C   UNL     1     -12.556   0.366   1.667  0.00  0.00    +0.037 A 
ATOM     12  C   UNL     1     -12.876   0.010   0.355  0.00  0.00    +0.013 A 
ATOM     13  C   UNL     1     -13.159   0.990  -0.573  0.00  0.00    +0.004 A 
ATOM     14  C   UNL     1     -13.116   2.325  -0.209  0.00  0.00    -0.050 A 
ATOM     15  C   UNL     1     -12.795   2.685   1.087  0.00  0.00    +0.004 A 
ATOM     16  C   UNL     1     -12.515   1.714   2.027  0.00  0.00    +0.013 A 
ATOM     17  C   UNL     1     -13.422   3.390  -1.230  0.00  0.00    +0.044 C 
ENDBRANCH   9  11
BRANCH   8  18
ATOM     18  C   UNL     1     -12.614  -2.893   3.622  0.00  0.00    +0.108 C 
BRANCH  18  20
ATOM     19  C   UNL     1     -11.086  -4.794   4.163  0.00  0.00    +0.005 C 
ATOM     20  C   UNL     1     -11.411  -3.705   3.139  0.00  0.00    +0.016 C 
ENDBRANCH  18  20
ENDBRANCH   8  18
ENDBRANCH   7   8
ENDBRANCH   2   7
ENDBRANCH   1   6
BRANCH   1  21
ATOM     21  C   UNL     1     -10.217  -3.158  -0.682  0.00  0.00    +0.126 A 
ATOM     22  C   UNL     1     -10.088  -2.588  -1.901  0.00  0.00    +0.047 A 
ATOM     23  C   UNL     1      -9.058  -3.269  -2.568  0.00  0.00    +0.055 A 
ATOM     24  C   UNL     1      -8.604  -4.231  -1.712  0.00  0.00    +0.189 A 
ATOM     25  O   UNL     1      -9.324  -4.150  -0.574  0.00  0.00    -0.453 OA
BRANCH  24  26
ATOM     26  C   UNL     1      -7.526  -5.187  -1.984  0.00  0.00    +0.279 C 
ATOM     27  O   UNL     1      -6.889  -5.108  -3.018  0.00  0.00    -0.267 OA
ATOM     28  N   UNL     1      -7.242  -6.154  -1.090  0.00  0.00    -0.309 N 
ATOM     29  H   UNL     1      -7.795  -6.263  -0.301  0.00  0.00    +0.149 HD
BRANCH  28  30
ATOM     30  C   UNL     1      -6.096  -7.041  -1.309  0.00  0.00    +0.103 C 
BRANCH  30  31
ATOM     31  C   UNL     1      -6.070  -8.118  -0.222  0.00  0.00    +0.000 C 
BRANCH  31  32
ATOM     32  C   UNL     1      -4.949  -9.116  -0.520  0.00  0.00    -0.077 C 
BRANCH  32  39
ATOM     33  C   UNL     1      -6.231 -10.986   0.328  0.00  0.00    -0.078 C 
ATOM     34  C   UNL     1      -6.309 -12.019   1.455  0.00  0.00    -0.019 C 
ATOM     35  C   UNL     1      -5.091 -12.945   1.377  0.00  0.00    -0.003 C 
ATOM     36  C   UNL     1      -3.814 -12.105   1.469  0.00  0.00    -0.016 C 
ATOM     37  C   UNL     1      -3.809 -11.069   0.342  0.00  0.00    -0.072 C 
ATOM     38  C   UNL     1      -2.544 -10.214   0.442  0.00  0.00    -0.013 C 
ATOM     39  N   UNL     1      -4.992 -10.195   0.488  0.00  0.00    +0.381 N 
ATOM     40  H   UNL     1      -4.983  -9.776   1.425  0.00  0.00    -0.081 HD
ENDBRANCH  32  39
ENDBRANCH  31  32
ENDBRANCH  30  31
ENDBRANCH  28  30
ENDBRANCH  24  26
ENDBRANCH   1  21
TORSDOF 12
