REMARK  Name = ZINC13500992
REMARK  13 active torsions:
REMARK  status: ('A' for Active; 'I' for Inactive)
REMARK    1  A    between atoms: C_1  and  C_2
REMARK    2  A    between atoms: C_2  and  C_3
REMARK    3  A    between atoms: C_3  and  C_4
REMARK    4  A    between atoms: C_4  and  C_6
REMARK    5  A    between atoms: C_4  and  N_69
REMARK    6  A    between atoms: N_10  and  C_11
REMARK    7  A    between atoms: C_11  and  C_12
REMARK    8  A    between atoms: C_17  and  C_18
REMARK    9  A    between atoms: C_17  and  N_69
REMARK   10  A    between atoms: C_18  and  C_19
REMARK   11  A    between atoms: C_25  and  C_26
REMARK   12  A    between atoms: C_25  and  N_69
REMARK   13  A    between atoms: C_30  and  C_38
REMARK                            x       y       z     vdW  Elec       q    Type
REMARK                         _______ _______ _______ _____ _____    ______ ____
ROOT
ATOM      1  N   UNL     1      -2.048  -0.688   0.358  0.00  0.00    +0.389 N 
ATOM      2  H   UNL     1      -2.969  -0.502  -0.057  0.00  0.00    -0.080 HD
ENDROOT
BRANCH   1   3
ATOM      3  C   UNL     1      -1.586  -2.022  -0.078  0.00  0.00    +0.003 C 
BRANCH   3   4
ATOM      4  C   UNL     1      -0.254  -2.350   0.546  0.00  0.00    +0.139 A 
ATOM      5  N   UNL     1       0.256  -1.815   1.629  0.00  0.00    -0.115 NA
ATOM      6  N   UNL     1       1.405  -2.358   1.838  0.00  0.00    -0.023 NA
ATOM      7  N   UNL     1       1.645  -3.221   0.913  0.00  0.00    -0.044 NA
ATOM      8  N   UNL     1       0.646  -3.245   0.098  0.00  0.00    -0.223 N 
BRANCH   8   9
ATOM      9  C   UNL     1       0.515  -4.088  -1.094  0.00  0.00    +0.221 C 
BRANCH   9  10
ATOM     10  C   UNL     1       1.086  -3.365  -2.286  0.00  0.00    +0.126 A 
ATOM     11  C   UNL     1       2.363  -3.422  -2.703  0.00  0.00    +0.046 A 
ATOM     12  C   UNL     1       2.458  -2.599  -3.849  0.00  0.00    +0.041 A 
ATOM     13  C   UNL     1       1.234  -2.083  -4.059  0.00  0.00    +0.195 A 
ATOM     14  O   UNL     1       0.407  -2.550  -3.110  0.00  0.00    -0.466 OA
ENDBRANCH   9  10
ENDBRANCH   8   9
ENDBRANCH   3   4
BRANCH   3  15
ATOM     15  C   UNL     1      -2.619  -3.068   0.347  0.00  0.00    -0.008 C 
BRANCH  15  17
ATOM     16  C   UNL     1      -5.014  -3.754   0.168  0.00  0.00    +0.004 C 
ATOM     17  C   UNL     1      -3.959  -2.764  -0.327  0.00  0.00    -0.005 C 
ENDBRANCH  15  17
ENDBRANCH   3  15
ENDBRANCH   1   3
BRANCH   1  18
ATOM     18  C   UNL     1      -1.098   0.349  -0.098  0.00  0.00    -0.073 C 
BRANCH  18  19
ATOM     19  C   UNL     1      -1.154   0.433  -1.625  0.00  0.00    +0.016 C 
BRANCH  19  20
ATOM     20  C   UNL     1      -0.275   1.562  -2.099  0.00  0.00    -0.049 A 
ATOM     21  C   UNL     1      -0.784   2.844  -2.188  0.00  0.00    +0.003 A 
ATOM     22  C   UNL     1       0.024   3.880  -2.617  0.00  0.00    +0.000 A 
ATOM     23  C   UNL     1       1.338   3.632  -2.968  0.00  0.00    +0.000 A 
ATOM     24  C   UNL     1       1.845   2.349  -2.884  0.00  0.00    +0.000 A 
ATOM     25  C   UNL     1       1.039   1.314  -2.449  0.00  0.00    +0.003 A 
ENDBRANCH  19  20
ENDBRANCH  18  19
ENDBRANCH   1  18
BRANCH   1  26
ATOM     26  C   UNL     1      -2.168  -0.650   1.831  0.00  0.00    -0.037 C 
BRANCH  26  27
ATOM     27  C   UNL     1      -3.007   0.540   2.217  0.00  0.00    +0.001 A 
ATOM     28  C   UNL     1      -4.346   0.401   2.373  0.00  0.00    +0.017 A 
ATOM     29  C   UNL     1      -5.133   1.575   2.754  0.00  0.00    -0.001 A 
ATOM     30  C   UNL     1      -6.517   1.492   2.934  0.00  0.00    +0.013 A 
ATOM     31  C   UNL     1      -7.223   2.609   3.283  0.00  0.00    -0.050 A 
ATOM     32  C   UNL     1      -6.578   3.825   3.461  0.00  0.00    +0.005 A 
ATOM     33  C   UNL     1      -5.215   3.930   3.290  0.00  0.00    +0.026 A 
ATOM     34  C   UNL     1      -4.475   2.807   2.934  0.00  0.00    +0.049 A 
ATOM     35  N   UNL     1      -3.111   2.884   2.755  0.00  0.00    -0.322 N 
ATOM     36  H   UNL     1      -2.659   3.733   2.880  0.00  0.00    +0.169 HD
ATOM     37  C   UNL     1      -2.396   1.798   2.410  0.00  0.00    +0.251 A 
ATOM     38  O   UNL     1      -1.191   1.903   2.260  0.00  0.00    -0.268 OA
ATOM     39  C   UNL     1      -8.715   2.519   3.477  0.00  0.00    +0.044 C 
ENDBRANCH  26  27
ENDBRANCH   1  26
TORSDOF 11
