REMARK  Name = ZINC00781969
REMARK  10 active torsions:
REMARK  status: ('A' for Active; 'I' for Inactive)
REMARK    1  A    between atoms: C_1  and  C_2
REMARK    2  A    between atoms: C_9  and  C_14
REMARK    3  A    between atoms: C_14  and  C_16
REMARK    4  A    between atoms: C_14  and  N_68
REMARK    5  A    between atoms: N_20  and  C_21
REMARK    6  A    between atoms: C_21  and  C_22
REMARK    7  A    between atoms: C_21  and  C_23
REMARK    8  A    between atoms: C_21  and  C_24
REMARK    9  A    between atoms: N_27  and  C_30
REMARK   10  A    between atoms: C_34  and  C_36
REMARK                            x       y       z     vdW  Elec       q    Type
REMARK                         _______ _______ _______ _____ _____    ______ ____
ROOT
ATOM      1  C   UNL     1       0.492   9.254  -0.976  0.00  0.00    +0.039 C 
ENDROOT
BRANCH   1  10
ATOM      2  C   UNL     1      -4.879  13.067  -4.473  0.00  0.00    +0.044 C 
ATOM      3  C   UNL     1      -3.720  12.104  -4.500  0.00  0.00    -0.050 A 
ATOM      4  C   UNL     1      -3.313  11.551  -5.707  0.00  0.00    +0.005 A 
ATOM      5  C   UNL     1      -2.255  10.669  -5.755  0.00  0.00    +0.026 A 
ATOM      6  C   UNL     1      -1.587  10.328  -4.584  0.00  0.00    +0.049 A 
ATOM      7  C   UNL     1      -2.002  10.890  -3.362  0.00  0.00    -0.001 A 
ATOM      8  C   UNL     1      -3.079  11.784  -3.337  0.00  0.00    +0.013 A 
ATOM      9  C   UNL     1      -1.297  10.520  -2.134  0.00  0.00    +0.017 A 
ATOM     10  C   UNL     1      -0.258   9.652  -2.220  0.00  0.00    +0.011 A 
ATOM     11  C   UNL     1       0.118   9.116  -3.470  0.00  0.00    +0.251 A 
ATOM     12  O   UNL     1       1.052   8.335  -3.525  0.00  0.00    -0.268 OA
ATOM     13  N   UNL     1      -0.526   9.447  -4.603  0.00  0.00    -0.322 N 
ATOM     14  H   UNL     1      -0.233   9.048  -5.471  0.00  0.00    +0.169 HD
ENDBRANCH   1  10
BRANCH   1  20
ATOM     15  C   UNL     1       1.031   7.388   0.472  0.00  0.00    -0.058 C 
ATOM     16  C   UNL     1       0.951   5.866   0.606  0.00  0.00    +0.086 C 
ATOM     17  N   UNL     1      -0.459   5.450   0.597  0.00  0.00    -0.333 N 
ATOM     18  C   UNL     1      -1.120   5.865  -0.648  0.00  0.00    +0.086 C 
ATOM     19  C   UNL     1      -1.039   7.388  -0.782  0.00  0.00    -0.058 C 
ATOM     20  N   UNL     1       0.383   7.791  -0.794  0.00  0.00    +0.391 N 
ATOM     21  H   UNL     1       0.856   7.321  -1.575  0.00  0.00    -0.080 HD
BRANCH  17  22
ATOM     22  C   UNL     1      -0.575   4.072   0.789  0.00  0.00    +0.030 A 
ATOM     23  C   UNL     1       0.564   3.293   0.957  0.00  0.00    +0.023 A 
ATOM     24  C   UNL     1       0.445   1.931   1.147  0.00  0.00    +0.002 A 
ATOM     25  C   UNL     1      -0.805   1.341   1.170  0.00  0.00    +0.012 A 
ATOM     26  C   UNL     1      -1.940   2.111   0.998  0.00  0.00    +0.057 A 
ATOM     27  C   UNL     1      -1.829   3.475   0.814  0.00  0.00    +0.035 A 
BRANCH  26  28
ATOM     28  C   UNL     1      -3.301   1.462   1.018  0.00  0.00    +0.417 C 
ATOM     29  F   UNL     1      -3.158   0.086   1.223  0.00  0.00    -0.166 F 
ATOM     30  F   UNL     1      -4.064   2.012   2.053  0.00  0.00    -0.166 F 
ATOM     31  F   UNL     1      -3.942   1.688  -0.205  0.00  0.00    -0.166 F 
ENDBRANCH  26  28
ENDBRANCH  17  22
ENDBRANCH   1  20
BRANCH   1  32
ATOM     32  C   UNL     1      -0.086   9.978   0.213  0.00  0.00    +0.143 A 
ATOM     33  N   UNL     1      -1.231   9.729   0.799  0.00  0.00    -0.115 NA
ATOM     34  N   UNL     1      -1.367  10.559   1.776  0.00  0.00    -0.023 NA
ATOM     35  N   UNL     1      -0.341  11.335   1.822  0.00  0.00    -0.043 NA
ATOM     36  N   UNL     1       0.471  11.009   0.875  0.00  0.00    -0.225 N 
BRANCH  36  37
ATOM     37  C   UNL     1       1.759  11.641   0.576  0.00  0.00    +0.059 C 
ATOM     38  C   UNL     1       1.762  12.131  -0.873  0.00  0.00    +0.036 C 
ATOM     39  C   UNL     1       1.974  12.828   1.516  0.00  0.00    +0.036 C 
ATOM     40  C   UNL     1       2.885  10.623   0.773  0.00  0.00    +0.036 C 
ENDBRANCH  36  37
ENDBRANCH   1  32
TORSDOF 6
