REMARK  Name = ZINC02542250
REMARK  2 active torsions:
REMARK  status: ('A' for Active; 'I' for Inactive)
REMARK    1  A    between atoms: C_5  and  C_7
REMARK    2  A    between atoms: C_18  and  C_20
REMARK                            x       y       z     vdW  Elec       q    Type
REMARK                         _______ _______ _______ _____ _____    ______ ____
ROOT
ATOM      1  C   UNL     1       1.228  -2.186  -0.022  0.00  0.00    +0.162 C 
ATOM      2  C   UNL     1       1.546  -2.646  -1.428  0.00  0.00    +0.028 C 
ATOM      3  C   UNL     1       0.655  -3.443  -2.051  0.00  0.00    +0.083 C 
ATOM      4  C   UNL     1       0.976  -3.879  -3.434  0.00  0.00    +0.042 A 
ATOM      5  C   UNL     1       0.305  -4.934  -4.036  0.00  0.00    +0.013 A 
ATOM      6  C   UNL     1       0.637  -5.308  -5.324  0.00  0.00    +0.001 A 
ATOM      7  C   UNL     1       1.633  -4.635  -6.010  0.00  0.00    +0.004 A 
ATOM      8  C   UNL     1       2.305  -3.582  -5.418  0.00  0.00    +0.046 A 
ATOM      9  C   UNL     1       1.982  -3.196  -4.129  0.00  0.00    +0.131 A 
ATOM     10  O   UNL     1       2.621  -2.162  -3.526  0.00  0.00    -0.479 OA
ATOM     11  C   UNL     1       2.818  -2.239  -2.112  0.00  0.00    +0.241 C 
ATOM     12  N   UNL     1      -0.492  -3.835  -1.444  0.00  0.00    -0.213 NA
ATOM     13  C   UNL     1      -0.845  -3.483  -0.230  0.00  0.00    +0.237 C 
ATOM     14  N   UNL     1      -0.043  -2.664   0.535  0.00  0.00    -0.208 N 
ATOM     15  N   UNL     1      -0.704  -2.485   1.752  0.00  0.00    -0.251 N 
ATOM     16  C   UNL     1      -1.862  -3.197   1.670  0.00  0.00    +0.203 C 
ATOM     17  N   UNL     1      -1.934  -3.777   0.514  0.00  0.00    -0.205 NA
ATOM     18  H   UNL     1      -0.398  -1.958   2.507  0.00  0.00    +0.171 HD
ENDROOT
BRANCH   1  23
ATOM     19  C   UNL     1      -0.017   1.378   0.010  0.00  0.00    +0.001 A 
ATOM     20  C   UNL     1       1.171   2.087   0.002  0.00  0.00    +0.003 A 
ATOM     21  C   UNL     1       2.377   1.414  -0.013  0.00  0.00    +0.039 A 
ATOM     22  C   UNL     1       2.397   0.029  -0.021  0.00  0.00    +0.129 A 
ATOM     23  C   UNL     1       1.208  -0.679  -0.013  0.00  0.00    +0.014 A 
ATOM     24  C   UNL     1       0.002  -0.004   0.002  0.00  0.00    +0.008 A 
ATOM     25  F   UNL     1       3.577  -0.630  -0.036  0.00  0.00    -0.205 F 
ENDBRANCH   1  23
BRANCH  11  26
ATOM     26  C   UNL     1       3.892  -3.253  -1.813  0.00  0.00    +0.034 A 
ATOM     27  C   UNL     1       4.837  -3.235  -0.842  0.00  0.00    +0.015 A 
ATOM     28  C   UNL     1       5.729  -4.287  -0.755  0.00  0.00    +0.008 A 
ATOM     29  C   UNL     1       5.632  -5.306  -1.643  0.00  0.00    +0.045 A 
ATOM     30  S   UNL     1       4.243  -4.795  -2.641  0.00  0.00    -0.098 S 
ENDBRANCH  11  26
TORSDOF 2
