REMARK  Name = ZINC08382040
REMARK  3 active torsions:
REMARK  status: ('A' for Active; 'I' for Inactive)
REMARK    1  A    between atoms: C_10  and  C_11
REMARK    2  A    between atoms: C_16  and  N_18
REMARK    3  A    between atoms: N_18  and  C_19
REMARK                            x       y       z     vdW  Elec       q    Type
REMARK                         _______ _______ _______ _____ _____    ______ ____
ROOT
ATOM      1  C   UNL     1       5.421  -0.510   1.129  0.00  0.00    +0.029 C 
ATOM      2  C   UNL     1       6.427  -0.930   0.316  0.00  0.00    +0.080 C 
ATOM      3  C   UNL     1       6.462  -2.058  -0.644  0.00  0.00    +0.276 C 
ATOM      4  O   UNL     1       5.500  -2.790  -0.815  0.00  0.00    -0.267 OA
ATOM      5  N   UNL     1       7.588  -2.227  -1.303  0.00  0.00    -0.150 NA
ATOM      6  C   UNL     1       8.638  -1.442  -1.128  0.00  0.00    +0.189 C 
ATOM      7  S   UNL     1       8.076  -0.273   0.100  0.00  0.00    -0.047 S 
ENDROOT
BRANCH   1  17
ATOM      8  C   UNL     1       0.382   0.543   1.415  0.00  0.00    +0.001 A 
ATOM      9  C   UNL     1       1.529   1.326   1.311  0.00  0.00    +0.001 A 
ATOM     10  C   UNL     1       2.765   0.753   1.253  0.00  0.00    +0.009 A 
ATOM     11  C   UNL     1       2.885  -0.640   1.298  0.00  0.00    -0.011 A 
ATOM     12  C   UNL     1       1.721  -1.440   1.405  0.00  0.00    -0.017 A 
ATOM     13  C   UNL     1       0.463  -0.816   1.462  0.00  0.00    +0.008 A 
ATOM     14  C   UNL     1       1.846  -2.838   1.451  0.00  0.00    +0.008 A 
ATOM     15  C   UNL     1       3.071  -3.431   1.395  0.00  0.00    +0.001 A 
ATOM     16  C   UNL     1       4.239  -2.689   1.291  0.00  0.00    +0.008 A 
ATOM     17  C   UNL     1       4.191  -1.298   1.239  0.00  0.00    -0.016 A 
ENDBRANCH   1  17
BRANCH   6  18
ATOM     18  N   UNL     1       9.864  -1.507  -1.745  0.00  0.00    -0.189 NA
BRANCH  18  19
ATOM     19  C   UNL     1      10.184  -2.595  -2.531  0.00  0.00    +0.216 C 
ATOM     20  N   UNL     1      11.138  -2.503  -3.413  0.00  0.00    -0.267 NA
ATOM     21  N   UNL     1       9.496  -3.775  -2.384  0.00  0.00    -0.368 N 
ATOM     22  H   UNL     1       8.785  -3.844  -1.727  0.00  0.00    +0.159 HD
ATOM     23  H   UNL     1       9.720  -4.540  -2.936  0.00  0.00    +0.159 HD
ATOM     24  H   UNL     1      11.645  -1.680  -3.495  0.00  0.00    +0.190 HD
ENDBRANCH  18  19
ENDBRANCH   6  18
TORSDOF 3
