REMARK  Name = ZINC39371270
REMARK  9 active torsions:
REMARK  status: ('A' for Active; 'I' for Inactive)
REMARK    1  A    between atoms: C_1  and  O_2
REMARK    2  A    between atoms: O_2  and  C_3
REMARK    3  A    between atoms: C_3  and  C_5
REMARK    4  A    between atoms: C_8  and  C_10
REMARK    5  A    between atoms: C_10  and  S_11
REMARK    6  A    between atoms: S_11  and  C_12
REMARK    7  A    between atoms: C_15  and  N_28
REMARK    8  A    between atoms: C_16  and  N_20
REMARK    9  A    between atoms: C_21  and  C_23
REMARK                            x       y       z     vdW  Elec       q    Type
REMARK                         _______ _______ _______ _____ _____    ______ ____
ROOT
ATOM      1  C   UNL     1       1.693  -7.354  -1.577  0.00  0.00    +0.220 C 
ATOM      2  N   UNL     1       0.874  -8.332  -0.850  0.00  0.00    -0.305 N 
ATOM      3  C   UNL     1       0.770  -8.213   0.522  0.00  0.00    +0.110 C 
ATOM      4  C   UNL     1       1.827  -7.657   1.214  0.00  0.00    +0.132 C 
ATOM      5  C   UNL     1       2.954  -7.204   0.508  0.00  0.00    +0.263 C 
ATOM      6  O   UNL     1       3.961  -6.886   1.118  0.00  0.00    -0.269 OA
ATOM      7  N   UNL     1       2.934  -7.118  -0.836  0.00  0.00    -0.283 N 
ATOM      8  H   UNL     1       0.416  -9.044  -1.322  0.00  0.00    +0.150 HD
ATOM      9  H   UNL     1       3.748  -6.898  -1.317  0.00  0.00    +0.152 HD
ENDROOT
BRANCH   4  10
ATOM     10  N   UNL     1       1.775  -7.544   2.622  0.00  0.00    -0.272 N 
ATOM     11  C   UNL     1       1.956  -6.344   3.208  0.00  0.00    +0.284 C 
ATOM     12  O   UNL     1       2.074  -5.344   2.524  0.00  0.00    -0.266 OA
ATOM     13  H   UNL     1       1.609  -8.329   3.166  0.00  0.00    +0.155 HD
BRANCH  11  14
ATOM     14  C   UNL     1       2.011  -6.243   4.670  0.00  0.00    +0.189 A 
ATOM     15  C   UNL     1       2.183  -5.096   5.390  0.00  0.00    +0.054 A 
ATOM     16  C   UNL     1       2.172  -5.463   6.745  0.00  0.00    +0.042 A 
ATOM     17  C   UNL     1       1.996  -6.802   6.792  0.00  0.00    +0.196 A 
ATOM     18  O   UNL     1       1.894  -7.268   5.541  0.00  0.00    -0.458 OA
ENDBRANCH  11  14
ENDBRANCH   4  10
BRANCH   3  19
ATOM     19  N   UNL     1      -0.358  -8.638   1.181  0.00  0.00    -0.345 N 
ATOM     20  H   UNL     1      -1.094  -9.027   0.683  0.00  0.00    +0.144 HD
ATOM     21  H   UNL     1      -0.419  -8.550   2.145  0.00  0.00    +0.144 HD
ENDBRANCH   3  19
BRANCH   1  22
ATOM     22  S   UNL     1       0.777  -5.797  -1.739  0.00  0.00    -0.112 S 
BRANCH  22  23
ATOM     23  C   UNL     1       0.467  -5.290  -0.025  0.00  0.00    +0.146 C 
BRANCH  23  27
ATOM     24  C   UNL     1      -0.738  -1.842   0.004  0.00  0.00    +0.212 A 
ATOM     25  C   UNL     1      -1.936  -2.499  -0.005  0.00  0.00    +0.057 A 
ATOM     26  C   UNL     1      -1.644  -3.871  -0.017  0.00  0.00    +0.046 A 
ATOM     27  C   UNL     1      -0.298  -3.992  -0.015  0.00  0.00    +0.116 A 
ATOM     28  O   UNL     1       0.245  -2.768  -0.008  0.00  0.00    -0.452 OA
BRANCH  24  29
ATOM     29  C   UNL     1      -0.552  -0.390   0.017  0.00  0.00    +0.375 C 
ATOM     30  O   UNL     1      -1.519   0.347   0.026  0.00  0.00    -0.241 OA
BRANCH  29  32
ATOM     31  C   UNL     1       0.800   1.556   0.032  0.00  0.00    +0.280 C 
ATOM     32  O   UNL     1       0.693   0.131   0.019  0.00  0.00    -0.462 OA
ENDBRANCH  29  32
ENDBRANCH  24  29
ENDBRANCH  23  27
ENDBRANCH  22  23
ENDBRANCH   1  22
TORSDOF 8
