REMARK  Name = ZINC62617118
REMARK  4 active torsions:
REMARK  status: ('A' for Active; 'I' for Inactive)
REMARK    1  A    between atoms: C_1  and  C_2
REMARK    2  A    between atoms: C_7  and  S_8
REMARK    3  A    between atoms: S_8  and  N_11
REMARK    4  A    between atoms: C_19  and  C_21
REMARK                            x       y       z     vdW  Elec       q    Type
REMARK                         _______ _______ _______ _____ _____    ______ ____
ROOT
ATOM      1  N   UNL     1       1.434   1.129   2.630  0.00  0.00    -0.162 NA
ATOM      2  C   UNL     1       2.669   0.458   3.062  0.00  0.00    +0.132 C 
ATOM      3  C   UNL     1       3.637   0.368   1.877  0.00  0.00    +0.138 C 
ATOM      4  N   UNL     1       3.696   1.668   1.201  0.00  0.00    -0.348 N 
ATOM      5  C   UNL     1       4.667   2.107   0.355  0.00  0.00    +0.086 A 
ATOM      6  C   UNL     1       4.340   3.350  -0.056  0.00  0.00    +0.019 A 
ATOM      7  C   UNL     1       3.121   3.694   0.564  0.00  0.00    +0.025 A 
ATOM      8  C   UNL     1       2.753   2.653   1.327  0.00  0.00    +0.042 A 
ATOM      9  C   UNL     1       1.526   2.534   2.193  0.00  0.00    +0.156 C 
ENDROOT
BRANCH   9  10
ATOM     10  C   UNL     1       1.659   3.438   3.392  0.00  0.00    -0.023 A 
ATOM     11  C   UNL     1       2.761   3.332   4.218  0.00  0.00    +0.005 A 
ATOM     12  C   UNL     1       2.884   4.161   5.318  0.00  0.00    +0.000 A 
ATOM     13  C   UNL     1       1.903   5.096   5.590  0.00  0.00    +0.000 A 
ATOM     14  C   UNL     1       0.800   5.203   4.763  0.00  0.00    +0.000 A 
ATOM     15  C   UNL     1       0.681   4.377   3.661  0.00  0.00    +0.005 A 
ENDBRANCH   9  10
BRANCH   1  16
ATOM     16  S   UNL     1      -0.015   0.328   2.628  0.00  0.00    +0.062 S 
ATOM     17  O   UNL     1      -1.027   1.321   2.527  0.00  0.00    -0.153 OA
ATOM     18  O   UNL     1       0.034  -0.603   3.700  0.00  0.00    -0.153 OA
BRANCH  16  25
ATOM     19  C   UNL     1      -0.123   1.528  -0.146  0.00  0.00    +0.046 C 
ATOM     20  C   UNL     1      -0.133   0.022  -0.082  0.00  0.00    -0.024 A 
ATOM     21  C   UNL     1      -0.183  -0.720  -1.247  0.00  0.00    +0.005 A 
ATOM     22  C   UNL     1      -0.192  -2.100  -1.188  0.00  0.00    +0.000 A 
ATOM     23  C   UNL     1      -0.151  -2.740   0.037  0.00  0.00    +0.002 A 
ATOM     24  C   UNL     1      -0.100  -1.998   1.203  0.00  0.00    +0.029 A 
ATOM     25  C   UNL     1      -0.086  -0.617   1.143  0.00  0.00    +0.108 A 
ENDBRANCH  16  25
ENDBRANCH   1  16
TORSDOF 3
