REMARK  Name = ZINC13460384
REMARK  6 active torsions:
REMARK  status: ('A' for Active; 'I' for Inactive)
REMARK    1  A    between atoms: C_3  and  S_12
REMARK    2  A    between atoms: C_6  and  C_7
REMARK    3  A    between atoms: C_7  and  C_8
REMARK    4  A    between atoms: C_8  and  C_9
REMARK    5  A    between atoms: S_12  and  N_15
REMARK    6  A    between atoms: C_18  and  C_21
REMARK                            x       y       z     vdW  Elec       q    Type
REMARK                         _______ _______ _______ _____ _____    ______ ____
ROOT
ATOM      1  N   UNL     1       4.327   2.556   1.555  0.00  0.00    -0.103 NA
ATOM      2  C   UNL     1       5.427   3.208   1.837  0.00  0.00    +0.192 A 
ATOM      3  N   UNL     1       5.969   3.510   3.068  0.00  0.00    -0.332 N 
ATOM      4  C   UNL     1       7.145   4.212   3.111  0.00  0.00    +0.055 A 
ATOM      5  C   UNL     1       7.740   4.587   1.961  0.00  0.00    +0.075 A 
ATOM      6  S   UNL     1       6.626   3.933   0.729  0.00  0.00    -0.056 S 
ATOM      7  H   UNL     1       5.527   3.233   3.885  0.00  0.00    +0.168 HD
ENDROOT
BRANCH   4   8
ATOM      8  C   UNL     1       7.758   4.557   4.412  0.00  0.00    -0.001 A 
ATOM      9  C   UNL     1       7.145   4.166   5.604  0.00  0.00    +0.013 A 
ATOM     10  C   UNL     1       7.719   4.483   6.814  0.00  0.00    +0.046 A 
ATOM     11  C   UNL     1       8.914   5.200   6.862  0.00  0.00    +0.124 A 
ATOM     12  C   UNL     1       9.515   5.594   5.672  0.00  0.00    -0.002 A 
ATOM     13  C   UNL     1       8.956   5.272   4.458  0.00  0.00    +0.017 A 
ATOM     14  C   UNL     1      10.768   6.366   6.041  0.00  0.00    +0.080 C 
ATOM     15  C   UNL     1      10.531   6.662   7.541  0.00  0.00    +0.234 C 
ATOM     16  O   UNL     1       9.645   5.601   7.939  0.00  0.00    -0.491 OA
ENDBRANCH   4   8
BRANCH   1  17
ATOM     17  S   UNL     1       3.891   2.312  -0.024  0.00  0.00    +0.101 S 
ATOM     18  O   UNL     1       4.872   1.453  -0.588  0.00  0.00    -0.146 OA
ATOM     19  O   UNL     1       3.597   3.593  -0.566  0.00  0.00    -0.146 OA
BRANCH  17  22
ATOM     20  C   UNL     1      -0.017   1.378   0.010  0.00  0.00    +0.005 A 
ATOM     21  C   UNL     1       1.171   2.086   0.002  0.00  0.00    +0.029 A 
ATOM     22  C   UNL     1       2.377   1.411  -0.013  0.00  0.00    +0.113 A 
ATOM     23  C   UNL     1       2.396   0.029  -0.020  0.00  0.00    +0.029 A 
ATOM     24  C   UNL     1       1.208  -0.679  -0.012  0.00  0.00    +0.005 A 
ATOM     25  C   UNL     1       0.002  -0.004   0.002  0.00  0.00    -0.047 A 
BRANCH  25  26
ATOM     26  C   UNL     1      -1.293  -0.775   0.011  0.00  0.00    +0.046 C 
BRANCH  26  27
ATOM     27  C   UNL     1      -1.745  -1.028  -1.429  0.00  0.00    +0.130 C 
BRANCH  27  28
ATOM     28  C   UNL     1      -3.040  -1.800  -1.420  0.00  0.00    +0.356 C 
ATOM     29  O   UNL     1      -3.553  -2.117  -0.361  0.00  0.00    -0.246 OA
ATOM     30  O   UNL     1      -3.574  -2.106  -2.472  0.00  0.00    -0.246 OA
ENDBRANCH  27  28
ENDBRANCH  26  27
ENDBRANCH  25  26
ENDBRANCH  17  22
ENDBRANCH   1  17
TORSDOF 6
