REMARK  Name = ZINC33302963
REMARK  5 active torsions:
REMARK  status: ('A' for Active; 'I' for Inactive)
REMARK    1  A    between atoms: C_3  and  N_21
REMARK    2  A    between atoms: C_10  and  C_13
REMARK    3  A    between atoms: N_15  and  C_16
REMARK    4  A    between atoms: N_21  and  S_22
REMARK    5  A    between atoms: S_22  and  C_25
REMARK                            x       y       z     vdW  Elec       q    Type
REMARK                         _______ _______ _______ _____ _____    ______ ____
ROOT
ATOM      1  C   UNL     1       1.179   1.772   0.000  0.00  0.00    +0.019 A 
ATOM      2  C   UNL     1       1.157   3.160   0.007  0.00  0.00    +0.031 A 
ATOM      3  C   UNL     1      -0.074   3.802   0.022  0.00  0.00    +0.112 A 
ATOM      4  C   UNL     1      -1.239   3.031   0.029  0.00  0.00    +0.124 A 
ATOM      5  N   UNL     1      -1.171   1.711   0.017  0.00  0.00    -0.348 N 
ATOM      6  C   UNL     1      -0.013   1.076   0.008  0.00  0.00    +0.084 A 
ATOM      7  N   UNL     1      -2.483   3.658   0.044  0.00  0.00    -0.315 N 
ATOM      8  C   UNL     1      -2.616   4.590  -1.083  0.00  0.00    +0.107 C 
ATOM      9  C   UNL     1      -3.929   5.365  -0.953  0.00  0.00    +0.031 C 
ATOM     10  C   UNL     1      -5.100   4.378  -0.941  0.00  0.00    +0.078 C 
ATOM     11  C   UNL     1      -4.912   3.389   0.213  0.00  0.00    +0.031 C 
ATOM     12  C   UNL     1      -3.570   2.671   0.050  0.00  0.00    +0.107 C 
ATOM     13  H   UNL     1      -2.094   1.112   0.014  0.00  0.00    +0.167 HD
ENDROOT
BRANCH  10  14
ATOM     14  C   UNL     1      -6.392   5.131  -0.753  0.00  0.00    +0.216 C 
ATOM     15  O   UNL     1      -7.094   4.901   0.208  0.00  0.00    -0.276 OA
ATOM     16  N   UNL     1      -6.767   6.061  -1.654  0.00  0.00    -0.312 N 
ATOM     17  H   UNL     1      -6.130   6.269  -2.527  0.00  0.00    +0.149 HD
BRANCH  16  18
ATOM     18  C   UNL     1      -8.023   6.793  -1.472  0.00  0.00    +0.073 C 
ATOM     19  C   UNL     1      -9.190   6.004  -2.100  0.00  0.00    +0.022 C 
ATOM     20  C   UNL     1     -10.104   7.098  -2.706  0.00  0.00    +0.002 C 
ATOM     21  C   UNL     1      -9.087   8.128  -3.257  0.00  0.00    +0.002 C 
ATOM     22  C   UNL     1      -7.957   8.143  -2.208  0.00  0.00    +0.022 C 
ENDBRANCH  16  18
ENDBRANCH  10  14
BRANCH   3  23
ATOM     23  N   UNL     1      -0.146   5.200   0.029  0.00  0.00    -0.094 NA
BRANCH  23  24
ATOM     24  S   UNL     1       0.976   6.092  -0.800  0.00  0.00    +0.092 S 
ATOM     25  O   UNL     1       0.622   7.457  -0.623  0.00  0.00    -0.148 OA
ATOM     26  O   UNL     1       2.251   5.582  -0.433  0.00  0.00    -0.148 OA
BRANCH  24  27
ATOM     27  C   UNL     1       0.765   5.734  -2.512  0.00  0.00    +0.111 A 
ATOM     28  C   UNL     1       1.469   4.696  -3.093  0.00  0.00    +0.031 A 
ATOM     29  C   UNL     1       1.301   4.411  -4.434  0.00  0.00    +0.040 A 
ATOM     30  C   UNL     1       0.433   5.172  -5.199  0.00  0.00    +0.124 A 
ATOM     31  C   UNL     1      -0.268   6.215  -4.618  0.00  0.00    +0.040 A 
ATOM     32  C   UNL     1      -0.102   6.494  -3.275  0.00  0.00    +0.031 A 
ATOM     33  F   UNL     1       0.271   4.898  -6.512  0.00  0.00    -0.205 F 
ENDBRANCH  24  27
ENDBRANCH  23  24
ENDBRANCH   3  23
TORSDOF 5
