REMARK  Name = ZINC11916907
REMARK  10 active torsions:
REMARK  status: ('A' for Active; 'I' for Inactive)
REMARK    1  A    between atoms: C_1  and  C_2
REMARK    2  A    between atoms: C_5  and  C_9
REMARK    3  A    between atoms: C_11  and  C_14
REMARK    4  A    between atoms: N_16  and  C_17
REMARK    5  A    between atoms: C_18  and  C_26
REMARK    6  A    between atoms: N_28  and  C_29
REMARK    7  A    between atoms: C_29  and  C_30
REMARK    8  A    between atoms: C_30  and  C_31
REMARK    9  A    between atoms: C_31  and  O_32
REMARK   10  A    between atoms: O_32  and  C_33
REMARK                            x       y       z     vdW  Elec       q    Type
REMARK                         _______ _______ _______ _____ _____    ______ ____
ROOT
ATOM      1  C   UNL     1      -5.548  -4.854   0.026  0.00  0.00    +0.085 A 
ATOM      2  C   UNL     1      -6.917  -5.082   0.042  0.00  0.00    +0.069 A 
ATOM      3  C   UNL     1      -7.367  -6.464   0.033  0.00  0.00    -0.023 A 
ATOM      4  C   UNL     1      -6.383  -7.389   0.020  0.00  0.00    -0.004 A 
ATOM      5  S   UNL     1      -4.881  -6.453   0.012  0.00  0.00    -0.077 S 
ATOM      6  C   UNL     1      -6.544  -8.878   0.014  0.00  0.00    +0.043 C 
ATOM      7  C   UNL     1      -7.992  -9.210   0.403  0.00  0.00    +0.005 C 
ATOM      8  C   UNL     1      -8.938  -8.332  -0.422  0.00  0.00    +0.005 C 
ATOM      9  C   UNL     1      -8.834  -6.878   0.042  0.00  0.00    +0.037 C 
ENDROOT
BRANCH   1  12
ATOM     10  C   UNL     1      -3.530  -3.616   0.015  0.00  0.00    +0.270 C 
ATOM     11  O   UNL     1      -2.904  -4.657   0.004  0.00  0.00    -0.268 OA
ATOM     12  N   UNL     1      -4.878  -3.642   0.026  0.00  0.00    -0.274 N 
ATOM     13  H   UNL     1      -5.378  -2.811   0.035  0.00  0.00    +0.156 HD
BRANCH  10  16
ATOM     14  C   UNL     1      -1.266  -0.764   0.010  0.00  0.00    +0.168 A 
ATOM     15  C   UNL     1      -1.407  -2.123  -0.002  0.00  0.00    +0.086 A 
ATOM     16  C   UNL     1      -2.813  -2.319   0.016  0.00  0.00    +0.169 A 
ATOM     17  N   UNL     1      -3.351  -1.123   0.026  0.00  0.00    -0.073 NA
ATOM     18  O   UNL     1      -2.511  -0.254   0.023  0.00  0.00    -0.354 OA
BRANCH  14  23
ATOM     19  C   UNL     1       3.670   2.198  -0.023  0.00  0.00    +0.047 C 
ATOM     20  C   UNL     1       2.378   1.422  -0.013  0.00  0.00    -0.015 A 
ATOM     21  C   UNL     1       1.169   2.096   0.002  0.00  0.00    +0.007 A 
ATOM     22  C   UNL     1      -0.017   1.392   0.010  0.00  0.00    +0.012 A 
ATOM     23  C   UNL     1       0.002  -0.004   0.002  0.00  0.00    +0.023 A 
ATOM     24  C   UNL     1       1.223  -0.679  -0.013  0.00  0.00    +0.050 A 
ATOM     25  C   UNL     1       2.405   0.037  -0.021  0.00  0.00    +0.127 A 
ATOM     26  F   UNL     1       3.588  -0.615  -0.035  0.00  0.00    -0.205 F 
ENDBRANCH  14  23
ENDBRANCH  10  16
ENDBRANCH   1  12
BRANCH   2  27
ATOM     27  C   UNL     1      -7.874  -3.971   0.064  0.00  0.00    +0.247 C 
ATOM     28  O   UNL     1      -8.285  -3.502  -0.981  0.00  0.00    -0.270 OA
ATOM     29  N   UNL     1      -8.297  -3.470   1.241  0.00  0.00    -0.311 N 
ATOM     30  H   UNL     1      -7.969  -3.844   2.074  0.00  0.00    +0.149 HD
BRANCH  29  31
ATOM     31  C   UNL     1      -9.253  -2.360   1.263  0.00  0.00    +0.107 C 
BRANCH  31  32
ATOM     32  C   UNL     1      -9.566  -1.984   2.713  0.00  0.00    +0.047 C 
BRANCH  32  33
ATOM     33  C   UNL     1     -10.563  -0.825   2.735  0.00  0.00    +0.161 C 
BRANCH  33  34
ATOM     34  O   UNL     1     -10.856  -0.474   4.090  0.00  0.00    -0.383 OA
ATOM     35  C   UNL     1     -11.783   0.605   4.223  0.00  0.00    +0.193 C 
ENDBRANCH  33  34
ENDBRANCH  32  33
ENDBRANCH  31  32
ENDBRANCH  29  31
ENDBRANCH   2  27
TORSDOF 8
