REMARK  Name = ZINC01902172
REMARK  7 active torsions:
REMARK  status: ('A' for Active; 'I' for Inactive)
REMARK    1  A    between atoms: C_4  and  C_7
REMARK    2  A    between atoms: C_7  and  C_8
REMARK    3  A    between atoms: C_8  and  N_9
REMARK    4  A    between atoms: C_21  and  S_22
REMARK    5  A    between atoms: S_22  and  C_23
REMARK    6  A    between atoms: C_23  and  C_24
REMARK    7  A    between atoms: N_26  and  C_27
REMARK                            x       y       z     vdW  Elec       q    Type
REMARK                         _______ _______ _______ _____ _____    ______ ____
ROOT
ATOM      1  N   UNL     1       5.449  -1.677   1.357  0.00  0.00    -0.276 N 
ATOM      2  C   UNL     1       5.451  -3.021   1.351  0.00  0.00    +0.264 A 
ATOM      3  O   UNL     1       4.399  -3.634   1.351  0.00  0.00    -0.267 OA
ATOM      4  C   UNL     1       6.739  -3.753   1.345  0.00  0.00    +0.074 A 
ATOM      5  C   UNL     1       6.951  -5.201   1.342  0.00  0.00    -0.023 A 
ATOM      6  C   UNL     1       8.244  -5.584   1.336  0.00  0.00    -0.004 A 
ATOM      7  S   UNL     1       9.159  -4.070   1.334  0.00  0.00    -0.074 S 
ATOM      8  C   UNL     1       7.892  -2.978   1.343  0.00  0.00    +0.102 A 
ATOM      9  N   UNL     1       7.839  -1.600   1.349  0.00  0.00    -0.249 N 
ATOM     10  C   UNL     1       6.631  -0.955   1.350  0.00  0.00    +0.240 A 
ATOM     11  N   UNL     1       6.861   0.337   1.351  0.00  0.00    -0.109 NA
ATOM     12  N   UNL     1       8.248   0.531   1.342  0.00  0.00    -0.120 NA
ATOM     13  C   UNL     1       8.823  -0.646   1.349  0.00  0.00    +0.198 A 
ATOM     14  C   UNL     1       8.768  -6.987   1.335  0.00  0.00    +0.043 C 
ATOM     15  C   UNL     1       7.619  -7.930   1.722  0.00  0.00    +0.005 C 
ATOM     16  C   UNL     1       6.383  -7.572   0.892  0.00  0.00    +0.005 C 
ATOM     17  C   UNL     1       5.823  -6.222   1.345  0.00  0.00    +0.037 C 
ENDROOT
BRANCH   1  18
ATOM     18  C   UNL     1       4.171  -0.962   1.363  0.00  0.00    +0.133 C 
BRANCH  18  19
ATOM     19  C   UNL     1       3.718  -0.713  -0.077  0.00  0.00    +0.057 C 
BRANCH  19  23
ATOM     20  C   UNL     1      -0.009   1.373  -0.060  0.00  0.00    +0.000 A 
ATOM     21  C   UNL     1       1.178   2.080  -0.065  0.00  0.00    +0.000 A 
ATOM     22  C   UNL     1       2.385   1.405  -0.071  0.00  0.00    +0.004 A 
ATOM     23  C   UNL     1       2.403   0.023  -0.070  0.00  0.00    -0.046 A 
ATOM     24  C   UNL     1       1.216  -0.685  -0.065  0.00  0.00    +0.004 A 
ATOM     25  C   UNL     1       0.009  -0.010  -0.061  0.00  0.00    +0.000 A 
ENDBRANCH  19  23
ENDBRANCH  18  19
ENDBRANCH   1  18
BRANCH  13  26
ATOM     26  S   UNL     1      10.559  -0.950   1.340  0.00  0.00    -0.076 S 
BRANCH  26  27
ATOM     27  C   UNL     1      11.295   0.708   1.345  0.00  0.00    +0.173 C 
BRANCH  27  28
ATOM     28  C   UNL     1      12.797   0.591   1.338  0.00  0.00    +0.227 C 
ATOM     29  O   UNL     1      13.320  -0.504   1.330  0.00  0.00    -0.275 OA
ATOM     30  N   UNL     1      13.560   1.702   1.339  0.00  0.00    -0.285 N 
ATOM     31  H   UNL     1      13.143   2.576   1.278  0.00  0.00    +0.155 HD
BRANCH  30  32
ATOM     32  C   UNL     1      14.952   1.595   1.431  0.00  0.00    +0.033 A 
ATOM     33  C   UNL     1      15.678   2.546   2.134  0.00  0.00    +0.024 A 
ATOM     34  C   UNL     1      17.052   2.438   2.223  0.00  0.00    +0.017 A 
ATOM     35  C   UNL     1      17.705   1.383   1.612  0.00  0.00    +0.018 A 
ATOM     36  C   UNL     1      16.984   0.433   0.910  0.00  0.00    +0.017 A 
ATOM     37  C   UNL     1      15.610   0.533   0.823  0.00  0.00    +0.024 A 
ATOM     38 BR   UNL     1      19.587   1.238   1.736  0.00  0.00    -0.050 Br
ENDBRANCH  30  32
ENDBRANCH  27  28
ENDBRANCH  26  27
ENDBRANCH  13  26
TORSDOF 7
