REMARK  Name = ZINC33902779
REMARK  14 active torsions:
REMARK  status: ('A' for Active; 'I' for Inactive)
REMARK    1  A    between atoms: C_1  and  C_2
REMARK    2  A    between atoms: C_2  and  C_3
REMARK    3  A    between atoms: C_6  and  C_11
REMARK    4  A    between atoms: N_8  and  C_10
REMARK    5  A    between atoms: N_13  and  C_14
REMARK    6  A    between atoms: C_14  and  C_16
REMARK    7  A    between atoms: C_14  and  C_32
REMARK    8  A    between atoms: C_18  and  O_31
REMARK    9  A    between atoms: C_20  and  O_30
REMARK   10  A    between atoms: C_22  and  O_29
REMARK   11  A    between atoms: C_24  and  S_27
REMARK   12  A    between atoms: S_27  and  C_28
REMARK   13  A    between atoms: C_32  and  C_34
REMARK   14  A    between atoms: C_32  and  O_35
REMARK                            x       y       z     vdW  Elec       q    Type
REMARK                         _______ _______ _______ _____ _____    ______ ____
ROOT
ATOM      1  C   UNL     1       2.104   0.841  -6.154  0.00  0.00    +0.132 C 
ENDROOT
BRANCH   1   2
ATOM      2  C   UNL     1       1.423   1.504  -7.352  0.00  0.00    +0.173 C 
ATOM      3  C   UNL     1       0.587   0.464  -8.103  0.00  0.00    +0.176 C 
ATOM      4  C   UNL     1      -0.044   1.121  -9.335  0.00  0.00    +0.177 C 
ATOM      5  C   UNL     1       1.066   1.715 -10.208  0.00  0.00    +0.184 C 
ATOM      6  C   UNL     1       1.883   2.706  -9.376  0.00  0.00    +0.207 C 
ATOM      7  O   UNL     1       2.416   2.039  -8.230  0.00  0.00    -0.356 OA
BRANCH   6   8
ATOM      8  S   UNL     1       3.244   3.362 -10.380  0.00  0.00    -0.131 S 
ATOM      9  C   UNL     1       4.010   4.615  -9.316  0.00  0.00    +0.087 C 
ENDBRANCH   6   8
BRANCH   5  10
ATOM     10  O   UNL     1       1.917   0.667 -10.677  0.00  0.00    -0.386 OA
ATOM     11  H   UNL     1       2.644   0.972 -11.237  0.00  0.00    +0.210 HD
ENDBRANCH   5  10
BRANCH   4  12
ATOM     12  O   UNL     1      -0.768   0.140 -10.081  0.00  0.00    -0.386 OA
ATOM     13  H   UNL     1      -1.195   0.487 -10.877  0.00  0.00    +0.210 HD
ENDBRANCH   4  12
BRANCH   3  14
ATOM     14  O   UNL     1       1.426  -0.617  -8.514  0.00  0.00    -0.387 OA
ATOM     15  H   UNL     1       0.961  -1.314  -8.997  0.00  0.00    +0.210 HD
ENDBRANCH   3  14
ENDBRANCH   1   2
BRANCH   1  18
ATOM     16  C   UNL     1       1.393  -0.735  -4.437  0.00  0.00    +0.200 C 
ATOM     17  O   UNL     1       2.511  -1.204  -4.445  0.00  0.00    -0.278 OA
ATOM     18  N   UNL     1       1.086   0.292  -5.255  0.00  0.00    -0.309 N 
ATOM     19  H   UNL     1       0.192   0.667  -5.248  0.00  0.00    +0.149 HD
BRANCH  16  22
ATOM     20  C   UNL     1       0.718  -0.497  -1.257  0.00  0.00    -0.029 C 
ATOM     21  C   UNL     1      -0.127  -0.210  -2.526  0.00  0.00    -0.005 C 
ATOM     22  C   UNL     1       0.345  -1.299  -3.512  0.00  0.00    +0.019 C 
ATOM     23  N   UNL     1       0.918  -2.396  -2.710  0.00  0.00    +0.386 N 
ATOM     24  C   UNL     1       0.800  -2.044  -1.278  0.00  0.00    -0.075 C 
ATOM     25  C   UNL     1       0.183  -3.639  -2.976  0.00  0.00    -0.095 C 
ATOM     26  H   UNL     1       1.890  -2.520  -2.950  0.00  0.00    -0.081 HD
BRANCH  20  28
ATOM     27  C   UNL     1      -0.019   1.526   0.010  0.00  0.00    +0.004 C 
ATOM     28  C   UNL     1       0.002  -0.004   0.002  0.00  0.00    -0.002 C 
ENDBRANCH  20  28
ENDBRANCH  16  22
ENDBRANCH   1  18
BRANCH   1  29
ATOM     29  C   UNL     1       2.940   1.880  -5.404  0.00  0.00    +0.134 C 
ATOM     30  C   UNL     1       3.622   1.217  -4.205  0.00  0.00    +0.039 C 
BRANCH  29  31
ATOM     31  O   UNL     1       3.934   2.415  -6.281  0.00  0.00    -0.390 OA
ATOM     32  H   UNL     1       4.547   1.755  -6.630  0.00  0.00    +0.210 HD
ENDBRANCH  29  31
ENDBRANCH   1  29
TORSDOF 10
