REMARK  Name = ZINC26403377
REMARK  8 active torsions:
REMARK  status: ('A' for Active; 'I' for Inactive)
REMARK    1  A    between atoms: C_1  and  C_2
REMARK    2  A    between atoms: C_2  and  C_3
REMARK    3  A    between atoms: C_8  and  N_9
REMARK    4  A    between atoms: C_13  and  S_14
REMARK    5  A    between atoms: S_14  and  C_15
REMARK    6  A    between atoms: C_15  and  C_16
REMARK    7  A    between atoms: N_18  and  C_19
REMARK    8  A    between atoms: C_24  and  N_25
REMARK                            x       y       z     vdW  Elec       q    Type
REMARK                         _______ _______ _______ _____ _____    ______ ____
ROOT
ATOM      1  C   UNL     1       2.811   6.635   4.606  0.00  0.00    +0.228 C 
ATOM      2  O   UNL     1       1.751   6.239   5.044  0.00  0.00    -0.275 OA
ATOM      3  N   UNL     1       3.563   7.486   5.331  0.00  0.00    -0.283 N 
ATOM      4  H   UNL     1       4.557   7.788   4.968  0.00  0.00    +0.155 HD
ENDROOT
BRANCH   3   5
ATOM      5  C   UNL     1       3.080   7.987   6.547  0.00  0.00    +0.055 A 
ATOM      6  C   UNL     1       2.287   7.191   7.361  0.00  0.00    +0.025 A 
ATOM      7  C   UNL     1       1.815   7.686   8.562  0.00  0.00    +0.002 A 
ATOM      8  C   UNL     1       2.122   8.977   8.951  0.00  0.00    +0.002 A 
ATOM      9  C   UNL     1       2.907   9.779   8.144  0.00  0.00    +0.025 A 
ATOM     10  C   UNL     1       3.389   9.289   6.939  0.00  0.00    +0.057 A 
BRANCH  10  11
ATOM     11  N   UNL     1       4.184  10.100   6.120  0.00  0.00    -0.270 N 
ATOM     12  C   UNL     1       3.661  10.980   5.069  0.00  0.00    +0.114 C 
ATOM     13  C   UNL     1       4.808  11.969   4.753  0.00  0.00    +0.029 C 
ATOM     14  C   UNL     1       6.051  11.148   5.166  0.00  0.00    +0.098 C 
ATOM     15  C   UNL     1       5.525  10.167   6.190  0.00  0.00    +0.220 C 
ATOM     16  O   UNL     1       6.212   9.533   6.963  0.00  0.00    -0.275 OA
ENDBRANCH  10  11
ENDBRANCH   3   5
BRANCH   1  17
ATOM     17  C   UNL     1       3.287   6.175   3.252  0.00  0.00    +0.173 C 
BRANCH  17  18
ATOM     18  S   UNL     1       2.067   5.047   2.535  0.00  0.00    -0.076 S 
BRANCH  18  23
ATOM     19  N   UNL     1       2.379   3.850   0.023  0.00  0.00    -0.276 N 
ATOM     20  C   UNL     1       3.321   3.877  -0.972  0.00  0.00    +0.230 A 
ATOM     21  N   UNL     1       4.279   4.668  -0.577  0.00  0.00    -0.137 NA
ATOM     22  N   UNL     1       4.011   5.139   0.589  0.00  0.00    -0.122 NA
ATOM     23  C   UNL     1       2.855   4.677   1.004  0.00  0.00    +0.196 A 
BRANCH  19  29
ATOM     24  C   UNL     1      -0.038   3.804   0.036  0.00  0.00    -0.024 A 
ATOM     25  C   UNL     1      -1.222   3.092   0.044  0.00  0.00    +0.005 A 
ATOM     26  C   UNL     1      -1.199   1.710   0.042  0.00  0.00    +0.000 A 
ATOM     27  C   UNL     1       0.009   1.036   0.042  0.00  0.00    +0.002 A 
ATOM     28  C   UNL     1       1.196   1.742   0.034  0.00  0.00    +0.026 A 
ATOM     29  C   UNL     1       1.176   3.130   0.031  0.00  0.00    +0.053 A 
BRANCH  24  31
ATOM     30  C   UNL     1       0.045   5.819  -1.407  0.00  0.00    +0.009 C 
ATOM     31  C   UNL     1      -0.064   5.311   0.032  0.00  0.00    +0.034 C 
ENDBRANCH  24  31
ENDBRANCH  19  29
ENDBRANCH  18  23
ENDBRANCH  17  18
ENDBRANCH   1  17
TORSDOF 7
