REMARK  Name = ZINC25071135
REMARK  10 active torsions:
REMARK  status: ('A' for Active; 'I' for Inactive)
REMARK    1  A    between atoms: C_1  and  C_2
REMARK    2  A    between atoms: C_2  and  O_3
REMARK    3  A    between atoms: O_3  and  C_4
REMARK    4  A    between atoms: C_6  and  C_11
REMARK    5  A    between atoms: C_9  and  O_10
REMARK    6  A    between atoms: C_13  and  C_27
REMARK    7  A    between atoms: C_14  and  C_26
REMARK    8  A    between atoms: N_15  and  C_19
REMARK    9  A    between atoms: N_29  and  C_30
REMARK   10  A    between atoms: N_29  and  C_31
REMARK                            x       y       z     vdW  Elec       q    Type
REMARK                         _______ _______ _______ _____ _____    ______ ____
ROOT
ATOM      1  C   UNL     1       0.040  -0.356   0.190  0.00  0.00    +0.139 C 
ATOM      2  C   UNL     1       0.340  -0.339  -1.296  0.00  0.00    +0.056 C 
ATOM      3  C   UNL     1       1.367  -1.095  -1.738  0.00  0.00    +0.025 C 
ATOM      4  N   UNL     1       2.110  -1.850  -0.874  0.00  0.00    -0.255 N 
ATOM      5  C   UNL     1       1.889  -1.902   0.445  0.00  0.00    +0.142 C 
ATOM      6  S   UNL     1       2.896  -2.890   1.415  0.00  0.00    -0.018 S 
ATOM      7  N   UNL     1       0.900  -1.202   1.035  0.00  0.00    -0.315 N 
ATOM      8  C   UNL     1       1.698  -1.108  -3.208  0.00  0.00    +0.062 C 
ATOM      9  H   UNL     1       0.727  -1.251   2.120  0.00  0.00    +0.149 HD
ENDROOT
BRANCH   4  10
ATOM     10  C   UNL     1       3.161  -2.613  -1.399  0.00  0.00    +0.040 A 
ATOM     11  C   UNL     1       4.477  -2.224  -1.185  0.00  0.00    +0.025 A 
ATOM     12  C   UNL     1       5.512  -2.981  -1.698  0.00  0.00    +0.022 A 
ATOM     13  C   UNL     1       5.238  -4.119  -2.437  0.00  0.00    +0.041 A 
ATOM     14  C   UNL     1       3.928  -4.506  -2.657  0.00  0.00    +0.022 A 
ATOM     15  C   UNL     1       2.889  -3.756  -2.140  0.00  0.00    +0.025 A 
ATOM     16 CL   UNL     1       6.541  -5.064  -3.087  0.00  0.00    -0.084 Cl
ENDBRANCH   4  10
BRANCH   1  19
ATOM     17  C   UNL     1      -0.913   3.142   1.251  0.00  0.00    +0.162 A 
ATOM     18  C   UNL     1      -1.000   1.843   0.779  0.00  0.00    +0.055 A 
ATOM     19  C   UNL     1       0.137   1.059   0.699  0.00  0.00    -0.019 A 
ATOM     20  C   UNL     1       1.363   1.573   1.079  0.00  0.00    +0.009 A 
ATOM     21  C   UNL     1       1.456   2.871   1.546  0.00  0.00    +0.049 A 
ATOM     22  C   UNL     1       0.321   3.660   1.634  0.00  0.00    +0.158 A 
BRANCH  22  23
ATOM     23  O   UNL     1       0.411   4.937   2.092  0.00  0.00    -0.503 OA
ATOM     24  H   UNL     1       1.387   5.345   2.395  0.00  0.00    +0.292 HD
ENDBRANCH  22  23
BRANCH  17  25
ATOM     25  O   UNL     1      -2.031   3.912   1.336  0.00  0.00    -0.489 OA
BRANCH  25  27
ATOM     26  C   UNL     1      -4.402   4.317   1.104  0.00  0.00    +0.048 C 
ATOM     27  C   UNL     1      -3.277   3.283   1.029  0.00  0.00    +0.226 C 
ENDBRANCH  25  27
ENDBRANCH  17  25
ENDBRANCH   1  19
BRANCH   2  28
ATOM     28  C   UNL     1      -0.432   0.443  -2.190  0.00  0.00    +0.246 C 
ATOM     29  O   UNL     1      -0.175   1.624  -2.342  0.00  0.00    -0.270 OA
ATOM     30  N   UNL     1      -1.450  -0.119  -2.871  0.00  0.00    -0.304 N 
ATOM     31  C   UNL     1      -2.188   0.666  -3.864  0.00  0.00    +0.132 C 
ATOM     32  C   UNL     1      -1.818  -1.514  -2.619  0.00  0.00    +0.132 C 
ENDBRANCH   2  28
TORSDOF 6
