REMARK  Name = ZINC03958823
REMARK  4 active torsions:
REMARK  status: ('A' for Active; 'I' for Inactive)
REMARK    1  A    between atoms: C_1  and  C_2
REMARK    2  A    between atoms: C_4  and  N_22
REMARK    3  A    between atoms: C_7  and  N_8
REMARK    4  A    between atoms: C_9  and  C_11
REMARK                            x       y       z     vdW  Elec       q    Type
REMARK                         _______ _______ _______ _____ _____    ______ ____
ROOT
ATOM      1  N   UNL     1       2.402   1.107  -0.014  0.00  0.00    -0.281 N 
ATOM      2  C   UNL     1       2.426  -0.237   0.081  0.00  0.00    +0.255 C 
ATOM      3  O   UNL     1       1.384  -0.865   0.088  0.00  0.00    -0.270 OA
ATOM      4  H   UNL     1       3.233   1.603  -0.085  0.00  0.00    +0.155 HD
ENDROOT
BRANCH   2   5
ATOM      5  C   UNL     1       3.713  -0.946   0.177  0.00  0.00    +0.122 A 
ATOM      6  C   UNL     1       4.906  -0.243   0.171  0.00  0.00    +0.031 A 
ATOM      7  C   UNL     1       6.122  -0.966   0.265  0.00  0.00    +0.018 A 
ATOM      8  C   UNL     1       7.350  -0.286   0.260  0.00  0.00    +0.011 A 
ATOM      9  C   UNL     1       8.517  -0.988   0.350  0.00  0.00    +0.001 A 
ATOM     10  C   UNL     1       8.499  -2.373   0.448  0.00  0.00    +0.004 A 
ATOM     11  C   UNL     1       7.305  -3.062   0.454  0.00  0.00    +0.047 A 
ATOM     12  C   UNL     1       6.102  -2.369   0.362  0.00  0.00    +0.139 A 
ATOM     13  O   UNL     1       4.934  -3.046   0.368  0.00  0.00    -0.422 OA
ATOM     14  C   UNL     1       3.754  -2.408   0.287  0.00  0.00    +0.350 A 
ATOM     15  O   UNL     1       2.718  -3.045   0.300  0.00  0.00    -0.244 OA
ENDBRANCH   2   5
BRANCH   1  22
ATOM     16  C   UNL     1       2.287   3.657   1.243  0.00  0.00    +0.046 C 
ATOM     17  C   UNL     1       1.079   3.034   0.592  0.00  0.00    -0.027 A 
ATOM     18  C   UNL     1      -0.130   3.702   0.595  0.00  0.00    +0.038 A 
ATOM     19  C   UNL     1      -1.238   3.131  -0.001  0.00  0.00    +0.127 A 
ATOM     20  C   UNL     1      -1.140   1.891  -0.606  0.00  0.00    +0.034 A 
ATOM     21  C   UNL     1       0.064   1.215  -0.608  0.00  0.00    +0.026 A 
ATOM     22  C   UNL     1       1.180   1.787  -0.010  0.00  0.00    +0.037 A 
BRANCH  19  23
ATOM     23  N   UNL     1      -2.532   3.850   0.004  0.00  0.00    +0.056 N 
ATOM     24  O   UNL     1      -2.619   4.944   0.532  0.00  0.00    -0.126 OA
ATOM     25  O   UNL     1      -3.510   3.348  -0.521  0.00  0.00    -0.126 OA
ENDBRANCH  19  23
ENDBRANCH   1  22
TORSDOF 3
