REMARK  Name = ZINC21176212
REMARK  6 active torsions:
REMARK  status: ('A' for Active; 'I' for Inactive)
REMARK    1  A    between atoms: N_14  and  C_18
REMARK    2  A    between atoms: C_18  and  C_19
REMARK    3  A    between atoms: N_21  and  C_22
REMARK    4  A    between atoms: C_27  and  S_28
REMARK    5  A    between atoms: S_28  and  C_29
REMARK    6  A    between atoms: C_29  and  C_30
REMARK                            x       y       z     vdW  Elec       q    Type
REMARK                         _______ _______ _______ _____ _____    ______ ____
ROOT
ATOM      1  C   UNL     1       2.060   3.616  -3.825  0.00  0.00    +0.000 A 
ATOM      2  C   UNL     1       0.817   3.134  -3.462  0.00  0.00    +0.000 A 
ATOM      3  C   UNL     1       0.641   2.547  -2.226  0.00  0.00    +0.006 A 
ATOM      4  C   UNL     1       1.708   2.436  -1.339  0.00  0.00    -0.012 A 
ATOM      5  C   UNL     1       2.935   2.908  -1.702  0.00  0.00    -0.042 A 
ATOM      6  C   UNL     1       3.118   3.504  -2.946  0.00  0.00    +0.004 A 
ATOM      7  C   UNL     1       4.151   2.820  -0.804  0.00  0.00    +0.035 C 
ATOM      8  C   UNL     1       3.922   3.682   0.435  0.00  0.00    +0.005 C 
ATOM      9  C   UNL     1       3.119   2.930   1.478  0.00  0.00    +0.003 C 
ATOM     10  C   UNL     1       1.653   2.765   1.136  0.00  0.00    +0.040 C 
ATOM     11  C   UNL     1       1.427   1.783  -0.006  0.00  0.00    +0.138 C 
ATOM     12  C   UNL     1       2.190   0.501   0.168  0.00  0.00    +0.251 C 
ATOM     13  O   UNL     1       3.378   0.330   0.338  0.00  0.00    -0.272 OA
ATOM     14  N   UNL     1       1.266  -0.487   0.092  0.00  0.00    -0.215 N 
ATOM     15  C   UNL     1       0.027   0.006   0.010  0.00  0.00    +0.310 C 
ATOM     16  O   UNL     1      -0.974  -0.682  -0.048  0.00  0.00    -0.252 OA
ATOM     17  N   UNL     1       0.013   1.351   0.015  0.00  0.00    -0.281 N 
ATOM     18  H   UNL     1      -0.791   2.102   0.031  0.00  0.00    +0.152 HD
ENDROOT
BRANCH  14  19
ATOM     19  C   UNL     1       1.591  -1.915   0.102  0.00  0.00    +0.214 C 
BRANCH  19  20
ATOM     20  C   UNL     1       1.803  -2.391  -1.312  0.00  0.00    +0.235 C 
ATOM     21  O   UNL     1       1.693  -1.614  -2.237  0.00  0.00    -0.274 OA
ATOM     22  N   UNL     1       2.114  -3.681  -1.550  0.00  0.00    -0.283 N 
ATOM     23  H   UNL     1       2.286  -4.369  -0.709  0.00  0.00    +0.155 HD
BRANCH  22  24
ATOM     24  C   UNL     1       2.218  -4.146  -2.868  0.00  0.00    +0.047 A 
ATOM     25  C   UNL     1       2.712  -3.314  -3.861  0.00  0.00    +0.024 A 
ATOM     26  C   UNL     1       2.814  -3.775  -5.161  0.00  0.00    +0.002 A 
ATOM     27  C   UNL     1       2.425  -5.064  -5.475  0.00  0.00    +0.001 A 
ATOM     28  C   UNL     1       1.931  -5.900  -4.491  0.00  0.00    +0.016 A 
ATOM     29  C   UNL     1       1.831  -5.448  -3.183  0.00  0.00    +0.030 A 
BRANCH  29  30
ATOM     30  S   UNL     1       1.208  -6.514  -1.925  0.00  0.00    -0.108 S 
BRANCH  30  31
ATOM     31  C   UNL     1       0.848  -8.062  -2.800  0.00  0.00    +0.192 C 
BRANCH  31  32
ATOM     32  C   UNL     1       0.314  -9.050  -1.849  0.00  0.00    +0.074 C 
ATOM     33  N   UNL     1      -0.098  -9.813  -1.116  0.00  0.00    -0.196 NA
ENDBRANCH  31  32
ENDBRANCH  30  31
ENDBRANCH  29  30
ENDBRANCH  22  24
ENDBRANCH  19  20
ENDBRANCH  14  19
TORSDOF 6
