REMARK  Name = ZINC32673357
REMARK  11 active torsions:
REMARK  status: ('A' for Active; 'I' for Inactive)
REMARK    1  A    between atoms: C_1  and  C_2
REMARK    2  A    between atoms: C_2  and  C_3
REMARK    3  A    between atoms: C_3  and  C_4
REMARK    4  A    between atoms: C_4  and  C_5
REMARK    5  A    between atoms: C_5  and  N_6
REMARK    6  A    between atoms: C_15  and  C_17
REMARK    7  A    between atoms: N_19  and  N_20
REMARK    8  A    between atoms: C_21  and  C_23
REMARK    9  A    between atoms: C_24  and  C_35
REMARK   10  A    between atoms: C_26  and  C_28
REMARK   11  A    between atoms: C_28  and  C_29
REMARK                            x       y       z     vdW  Elec       q    Type
REMARK                         _______ _______ _______ _____ _____    ______ ____
ROOT
ATOM      1  C   UNL     1      -0.280  -1.891   4.497  0.00  0.00    +0.281 C 
ATOM      2  O   UNL     1       0.238  -2.390   5.477  0.00  0.00    -0.267 OA
ATOM      3  N   UNL     1      -1.280  -2.534   3.862  0.00  0.00    -0.229 N 
ATOM      4  H   UNL     1      -1.748  -2.082   2.975  0.00  0.00    +0.173 HD
ENDROOT
BRANCH   1  14
ATOM      5  N   UNL     1      -0.020   1.094   2.454  0.00  0.00    -0.228 N 
ATOM      6  C   UNL     1       0.965   1.859   2.966  0.00  0.00    +0.275 A 
ATOM      7  O   UNL     1       1.256   2.925   2.455  0.00  0.00    -0.266 OA
ATOM      8  C   UNL     1       1.675   1.380   4.160  0.00  0.00    +0.050 A 
ATOM      9  C   UNL     1       2.702   2.095   4.768  0.00  0.00    +0.014 A 
ATOM     10  C   UNL     1       3.322   1.573   5.882  0.00  0.00    +0.001 A 
ATOM     11  C   UNL     1       2.933   0.345   6.401  0.00  0.00    +0.001 A 
ATOM     12  C   UNL     1       1.917  -0.380   5.814  0.00  0.00    +0.011 A 
ATOM     13  C   UNL     1       1.278   0.129   4.688  0.00  0.00    +0.020 A 
ATOM     14  C   UNL     1       0.187  -0.581   4.002  0.00  0.00    +0.155 A 
ATOM     15  N   UNL     1      -0.366  -0.036   2.945  0.00  0.00    -0.163 NA
BRANCH   5  16
ATOM     16  C   UNL     1      -0.729   1.579   1.267  0.00  0.00    +0.147 C 
BRANCH  16  17
ATOM     17  C   UNL     1      -0.013   1.086   0.008  0.00  0.00    +0.023 C 
BRANCH  17  18
ATOM     18  C   UNL     1      -0.753   1.593  -1.232  0.00  0.00    +0.002 C 
BRANCH  18  20
ATOM     19  C   UNL     1      -0.777   1.606  -3.730  0.00  0.00    +0.004 C 
ATOM     20  C   UNL     1      -0.037   1.099  -2.490  0.00  0.00    -0.003 C 
ENDBRANCH  18  20
ENDBRANCH  17  18
ENDBRANCH  16  17
ENDBRANCH   5  16
ENDBRANCH   1  14
BRANCH   3  21
ATOM     21  N   UNL     1      -1.723  -3.777   4.332  0.00  0.00    -0.230 N 
ATOM     22  C   UNL     1      -2.724  -4.420   3.698  0.00  0.00    +0.269 C 
ATOM     23  O   UNL     1      -3.242  -3.920   2.716  0.00  0.00    -0.268 OA
ATOM     24  H   UNL     1      -1.255  -4.228   5.219  0.00  0.00    +0.173 HD
BRANCH  22  25
ATOM     25  C   UNL     1      -3.188  -5.721   4.190  0.00  0.00    +0.098 A 
ATOM     26  C   UNL     1      -4.180  -6.543   3.704  0.00  0.00    +0.058 A 
ATOM     27  N   UNL     1      -4.405  -7.670   4.331  0.00  0.00    -0.248 NA
ATOM     28  C   UNL     1      -3.713  -8.020   5.394  0.00  0.00    +0.084 A 
ATOM     29  S   UNL     1      -2.617  -6.686   5.582  0.00  0.00    -0.067 S 
ATOM     30  C   UNL     1      -4.983  -6.157   2.489  0.00  0.00    +0.067 C 
BRANCH  28  31
ATOM     31  C   UNL     1      -3.835  -9.267   6.232  0.00  0.00    +0.098 C 
BRANCH  31  32
ATOM     32  C   UNL     1      -2.928 -10.335   5.678  0.00  0.00    -0.041 A 
ATOM     33  C   UNL     1      -3.400 -11.216   4.723  0.00  0.00    +0.004 A 
ATOM     34  C   UNL     1      -2.566 -12.193   4.212  0.00  0.00    +0.000 A 
ATOM     35  C   UNL     1      -1.263 -12.296   4.663  0.00  0.00    +0.000 A 
ATOM     36  C   UNL     1      -0.793 -11.418   5.622  0.00  0.00    +0.000 A 
ATOM     37  C   UNL     1      -1.625 -10.438   6.130  0.00  0.00    +0.004 A 
ENDBRANCH  31  32
ENDBRANCH  28  31
ENDBRANCH  22  25
ENDBRANCH   3  21
TORSDOF 9
