REMARK  Name = ZINC05085355
REMARK  10 active torsions:
REMARK  status: ('A' for Active; 'I' for Inactive)
REMARK    1  A    between atoms: C_1  and  C_2
REMARK    2  A    between atoms: C_2  and  C_3
REMARK    3  A    between atoms: N_7  and  C_21
REMARK    4  A    between atoms: N_9  and  N_10
REMARK    5  A    between atoms: C_11  and  C_12
REMARK    6  A    between atoms: C_15  and  C_19
REMARK    7  A    between atoms: C_17  and  C_18
REMARK    8  A    between atoms: C_21  and  C_22
REMARK    9  A    between atoms: C_25  and  O_28
REMARK   10  A    between atoms: O_28  and  C_29
REMARK                            x       y       z     vdW  Elec       q    Type
REMARK                         _______ _______ _______ _____ _____    ______ ____
ROOT
ATOM      1  C   UNL     1      -2.903  -2.461  -0.607  0.00  0.00    +0.140 C 
ATOM      2  C   UNL     1      -3.270  -0.988  -0.544  0.00  0.00    +0.235 C 
ATOM      3  O   UNL     1      -4.420  -0.607  -0.602  0.00  0.00    -0.274 OA
ATOM      4  N   UNL     1      -2.257  -0.147  -0.422  0.00  0.00    -0.244 N 
ATOM      5  C   UNL     1      -0.948  -0.573  -0.356  0.00  0.00    +0.186 C 
ATOM      6  N   UNL     1       0.140   0.159  -0.235  0.00  0.00    -0.127 NA
ATOM      7  S   UNL     1      -1.074  -2.351  -0.479  0.00  0.00    -0.076 S 
ENDROOT
BRANCH   1   9
ATOM      8  C   UNL     1      -3.212  -4.725   0.404  0.00  0.00    +0.005 C 
ATOM      9  C   UNL     1      -3.500  -3.232   0.572  0.00  0.00    +0.020 C 
ENDBRANCH   1   9
BRANCH   6  10
ATOM     10  N   UNL     1       0.044   1.432  -0.048  0.00  0.00    -0.155 NA
ATOM     11  C   UNL     1       1.118   2.143   0.162  0.00  0.00    +0.143 C 
BRANCH  11  12
ATOM     12  C   UNL     1       1.001   3.573   0.491  0.00  0.00    -0.002 A 
ATOM     13  C   UNL     1      -0.259   4.147   0.691  0.00  0.00    +0.010 A 
ATOM     14  C   UNL     1      -0.360   5.487   0.999  0.00  0.00    +0.004 A 
ATOM     15  C   UNL     1       0.780   6.264   1.111  0.00  0.00    -0.050 A 
ATOM     16  C   UNL     1       2.030   5.703   0.915  0.00  0.00    +0.007 A 
ATOM     17  C   UNL     1       2.148   4.363   0.612  0.00  0.00    -0.042 A 
ATOM     18  C   UNL     1       3.511   3.752   0.406  0.00  0.00    +0.044 C 
ATOM     19  C   UNL     1       0.660   7.728   1.448  0.00  0.00    +0.044 C 
ENDBRANCH  11  12
ENDBRANCH   6  10
BRANCH   4  20
ATOM     20  C   UNL     1      -2.536   1.290  -0.355  0.00  0.00    +0.150 C 
BRANCH  20  21
ATOM     21  C   UNL     1      -2.605   1.854  -1.751  0.00  0.00    -0.029 A 
ATOM     22  C   UNL     1      -1.444   2.226  -2.403  0.00  0.00    +0.009 A 
ATOM     23  C   UNL     1      -1.503   2.738  -3.684  0.00  0.00    +0.046 A 
ATOM     24  C   UNL     1      -2.730   2.890  -4.313  0.00  0.00    +0.120 A 
ATOM     25  C   UNL     1      -3.895   2.521  -3.655  0.00  0.00    +0.046 A 
ATOM     26  C   UNL     1      -3.829   2.004  -2.375  0.00  0.00    +0.009 A 
BRANCH  24  27
ATOM     27  O   UNL     1      -2.792   3.400  -5.571  0.00  0.00    -0.495 OA
ATOM     28  C   UNL     1      -1.554   3.758  -6.188  0.00  0.00    +0.277 C 
ENDBRANCH  24  27
ENDBRANCH  20  21
ENDBRANCH   4  20
TORSDOF 6
