REMARK  Name = ZINC02305295
REMARK  4 active torsions:
REMARK  status: ('A' for Active; 'I' for Inactive)
REMARK    1  A    between atoms: C_6  and  C_7
REMARK    2  A    between atoms: C_10  and  C_29
REMARK    3  A    between atoms: C_15  and  C_17
REMARK    4  A    between atoms: N_19  and  C_20
REMARK                            x       y       z     vdW  Elec       q    Type
REMARK                         _______ _______ _______ _____ _____    ______ ____
ROOT
ATOM      1  C   UNL     1      -1.312  -0.760   0.027  0.00  0.00    +0.104 C 
ATOM      2  C   UNL     1      -1.640  -1.232  -1.394  0.00  0.00    +0.063 C 
ATOM      3  C   UNL     1      -2.989  -1.961  -1.404  0.00  0.00    +0.215 C 
ATOM      4  N   UNL     1      -2.992  -2.968  -0.339  0.00  0.00    -0.237 N 
ATOM      5  C   UNL     1      -2.135  -2.947   0.726  0.00  0.00    +0.137 A 
ATOM      6  C   UNL     1      -2.408  -4.013   1.505  0.00  0.00    +0.112 A 
ATOM      7  C   UNL     1      -3.474  -4.720   0.903  0.00  0.00    +0.167 A 
ATOM      8  N   UNL     1      -3.817  -4.083  -0.203  0.00  0.00    -0.163 NA
ATOM      9 CL   UNL     1      -1.597  -4.440   2.979  0.00  0.00    -0.078 Cl
ATOM     10  N   UNL     1      -1.175  -1.943   0.899  0.00  0.00    -0.321 N 
ATOM     11  H   UNL     1      -0.459  -2.022   1.549  0.00  0.00    +0.148 HD
ENDROOT
BRANCH   1  17
ATOM     12  C   UNL     1      -0.042   1.397   0.032  0.00  0.00    +0.007 A 
ATOM     13  C   UNL     1       1.143   2.107   0.024  0.00  0.00    +0.020 A 
ATOM     14  C   UNL     1       2.352   1.436  -0.000  0.00  0.00    +0.041 A 
ATOM     15  C   UNL     1       2.374   0.052  -0.016  0.00  0.00    +0.020 A 
ATOM     16  C   UNL     1       1.188  -0.657  -0.007  0.00  0.00    +0.007 A 
ATOM     17  C   UNL     1      -0.019   0.014   0.017  0.00  0.00    -0.027 A 
ATOM     18 CL   UNL     1       3.841   2.328  -0.012  0.00  0.00    -0.084 Cl
ENDBRANCH   1  17
BRANCH   7  19
ATOM     19  C   UNL     1      -4.096  -5.955   1.420  0.00  0.00    +0.270 C 
ATOM     20  O   UNL     1      -3.692  -6.452   2.454  0.00  0.00    -0.268 OA
ATOM     21  N   UNL     1      -5.110  -6.533   0.746  0.00  0.00    -0.280 N 
ATOM     22  H   UNL     1      -5.476  -6.101  -0.042  0.00  0.00    +0.155 HD
BRANCH  21  23
ATOM     23  C   UNL     1      -5.635  -7.754   1.183  0.00  0.00    +0.034 A 
ATOM     24  C   UNL     1      -6.077  -8.691   0.258  0.00  0.00    +0.025 A 
ATOM     25  C   UNL     1      -6.594  -9.896   0.692  0.00  0.00    +0.022 A 
ATOM     26  C   UNL     1      -6.672 -10.170   2.046  0.00  0.00    +0.041 A 
ATOM     27  C   UNL     1      -6.232  -9.237   2.970  0.00  0.00    +0.022 A 
ATOM     28  C   UNL     1      -5.709  -8.033   2.541  0.00  0.00    +0.025 A 
ATOM     29 CL   UNL     1      -7.324 -11.685   2.588  0.00  0.00    -0.084 Cl
ENDBRANCH  21  23
ENDBRANCH   7  19
BRANCH   3  30
ATOM     30  C   UNL     1      -3.192  -2.644  -2.758  0.00  0.00    +0.412 C 
ATOM     31  F   UNL     1      -2.163  -3.566  -2.974  0.00  0.00    -0.168 F 
ATOM     32  F   UNL     1      -4.423  -3.308  -2.765  0.00  0.00    -0.168 F 
ATOM     33  F   UNL     1      -3.176  -1.681  -3.773  0.00  0.00    -0.168 F 
ENDBRANCH   3  30
TORSDOF 4
