REMARK  Name = ZINC45864179
REMARK  4 active torsions:
REMARK  status: ('A' for Active; 'I' for Inactive)
REMARK    1  A    between atoms: C_1  and  C_2
REMARK    2  A    between atoms: C_12  and  C_14
REMARK    3  A    between atoms: C_17  and  N_19
REMARK    4  A    between atoms: C_20  and  C_22
REMARK                            x       y       z     vdW  Elec       q    Type
REMARK                         _______ _______ _______ _____ _____    ______ ____
ROOT
ATOM      1  C   UNL     1       1.080  -0.740   3.405  0.00  0.00    +0.076 A 
ATOM      2  C   UNL     1       0.785  -0.701   4.761  0.00  0.00    +0.022 A 
ATOM      3  C   UNL     1       1.757  -1.182   5.599  0.00  0.00    +0.032 A 
ATOM      4  C   UNL     1       2.926  -1.656   5.051  0.00  0.00    +0.073 A 
ATOM      5  S   UNL     1       2.711  -1.460   3.396  0.00  0.00    -0.069 S 
ENDROOT
BRANCH   1  16
ATOM      6  C   UNL     1       1.690  -2.812   1.199  0.00  0.00    +0.029 C 
ATOM      7  C   UNL     1       1.857  -1.381   0.685  0.00  0.00    +0.083 C 
ATOM      8  C   UNL     1       1.899  -1.368  -0.852  0.00  0.00    +0.059 C 
ATOM      9  C   UNL     1       0.711  -0.524  -1.257  0.00  0.00    -0.024 A 
ATOM     10  C   UNL     1       0.242  -0.160  -2.505  0.00  0.00    +0.005 A 
ATOM     11  C   UNL     1      -0.884   0.634  -2.619  0.00  0.00    +0.000 A 
ATOM     12  C   UNL     1      -1.541   1.063  -1.480  0.00  0.00    +0.002 A 
ATOM     13  C   UNL     1      -1.077   0.702  -0.233  0.00  0.00    +0.024 A 
ATOM     14  C   UNL     1       0.060  -0.099  -0.110  0.00  0.00    +0.040 A 
ATOM     15  N   UNL     1       0.691  -0.571   1.047  0.00  0.00    -0.264 N 
ATOM     16  C   UNL     1       0.285  -0.321   2.307  0.00  0.00    +0.258 C 
ATOM     17  O   UNL     1      -0.763   0.266   2.505  0.00  0.00    -0.269 OA
ENDBRANCH   1  16
BRANCH   4  18
ATOM     18  N   UNL     1       4.029  -2.181   5.711  0.00  0.00    -0.273 N 
ATOM     19  C   UNL     1       5.098  -2.602   5.008  0.00  0.00    +0.284 C 
ATOM     20  O   UNL     1       5.098  -2.522   3.794  0.00  0.00    -0.266 OA
ATOM     21  H   UNL     1       4.029  -2.245   6.679  0.00  0.00    +0.156 HD
BRANCH  19  22
ATOM     22  C   UNL     1       6.262  -3.156   5.706  0.00  0.00    +0.189 A 
ATOM     23  C   UNL     1       7.408  -3.612   5.119  0.00  0.00    +0.054 A 
ATOM     24  C   UNL     1       8.247  -4.048   6.157  0.00  0.00    +0.042 A 
ATOM     25  C   UNL     1       7.585  -3.842   7.316  0.00  0.00    +0.196 A 
ATOM     26  O   UNL     1       6.392  -3.300   7.041  0.00  0.00    -0.458 OA
ENDBRANCH  19  22
ENDBRANCH   4  18
TORSDOF 3
