REMARK  Name = ZINC64538815
REMARK  11 active torsions:
REMARK  status: ('A' for Active; 'I' for Inactive)
REMARK    1  A    between atoms: C_1  and  C_2
REMARK    2  A    between atoms: C_5  and  N_8
REMARK    3  A    between atoms: C_9  and  C_11
REMARK    4  A    between atoms: C_15  and  C_18
REMARK    5  A    between atoms: C_18  and  O_19
REMARK    6  A    between atoms: O_19  and  C_20
REMARK    7  A    between atoms: C_20  and  C_21
REMARK    8  A    between atoms: N_23  and  C_24
REMARK    9  A    between atoms: C_24  and  C_25
REMARK   10  A    between atoms: C_25  and  C_26
REMARK   11  A    between atoms: C_29  and  C_35
REMARK                            x       y       z     vdW  Elec       q    Type
REMARK                         _______ _______ _______ _____ _____    ______ ____
ROOT
ATOM      1  O   UNL     1       3.046  -6.808   4.009  0.00  0.00    -0.368 OA
ENDROOT
BRANCH   1   2
ATOM      2  C   UNL     1       2.679  -8.162   3.738  0.00  0.00    +0.200 C 
BRANCH   2   6
ATOM      3  C   UNL     1       0.309  -6.349   1.121  0.00  0.00    +0.272 C 
ATOM      4  N   UNL     1       1.668  -6.766   0.707  0.00  0.00    -0.167 NA
ATOM      5  N   UNL     1       2.287  -7.591   1.350  0.00  0.00    -0.174 NA
ATOM      6  C   UNL     1       1.698  -8.200   2.564  0.00  0.00    +0.213 C 
ATOM      7  S   UNL     1       0.277  -7.047   2.833  0.00  0.00    -0.093 S 
BRANCH   3   9
ATOM      8  N   UNL     1       0.059  -4.170  -0.021  0.00  0.00    -0.283 N 
ATOM      9  C   UNL     1       0.175  -4.848   1.138  0.00  0.00    +0.254 C 
ATOM     10  O   UNL     1       0.173  -4.251   2.193  0.00  0.00    -0.272 OA
ATOM     11  H   UNL     1      -0.017  -4.651  -0.860  0.00  0.00    +0.155 HD
BRANCH   8  16
ATOM     12  C   UNL     1       0.008   1.503   0.007  0.00  0.00    +0.044 C 
ATOM     13  C   UNL     1       0.022  -0.004  -0.001  0.00  0.00    -0.050 A 
ATOM     14  C   UNL     1       0.777  -0.692   0.931  0.00  0.00    +0.005 A 
ATOM     15  C   UNL     1       0.791  -2.073   0.927  0.00  0.00    +0.023 A 
ATOM     16  C   UNL     1       0.046  -2.771  -0.014  0.00  0.00    +0.033 A 
ATOM     17  C   UNL     1      -0.712  -2.077  -0.948  0.00  0.00    +0.023 A 
ATOM     18  C   UNL     1      -0.726  -0.696  -0.936  0.00  0.00    +0.005 A 
ENDBRANCH   8  16
ENDBRANCH   3   9
ENDBRANCH   2   6
ENDBRANCH   1   2
BRANCH   1  19
ATOM     19  C   UNL     1       3.963  -6.661   5.095  0.00  0.00    +0.255 C 
BRANCH  19  20
ATOM     20  C   UNL     1       4.279  -5.200   5.290  0.00  0.00    +0.239 C 
ATOM     21  O   UNL     1       3.768  -4.368   4.572  0.00  0.00    -0.273 OA
ATOM     22  N   UNL     1       5.129  -4.819   6.265  0.00  0.00    -0.313 N 
ATOM     23  H   UNL     1       5.537  -5.485   6.840  0.00  0.00    +0.149 HD
BRANCH  22  24
ATOM     24  C   UNL     1       5.436  -3.400   6.455  0.00  0.00    +0.108 C 
BRANCH  24  25
ATOM     25  C   UNL     1       6.418  -3.242   7.617  0.00  0.00    +0.052 C 
BRANCH  25  26
ATOM     26  C   UNL     1       6.734  -1.781   7.813  0.00  0.00    -0.040 C 
ATOM     27  C   UNL     1       6.140  -0.930   8.681  0.00  0.00    -0.001 A 
ATOM     28  C   UNL     1       5.063  -1.103   9.663  0.00  0.00    +0.013 A 
ATOM     29  C   UNL     1       4.674  -0.040  10.403  0.00  0.00    -0.050 A 
ATOM     30  C   UNL     1       5.272   1.219  10.257  0.00  0.00    +0.005 A 
ATOM     31  C   UNL     1       6.268   1.456   9.376  0.00  0.00    +0.026 A 
ATOM     32  C   UNL     1       6.756   0.409   8.545  0.00  0.00    +0.043 A 
ATOM     33  N   UNL     1       7.694   0.387   7.630  0.00  0.00    -0.380 N 
ATOM     34  C   UNL     1       7.784  -0.972   7.085  0.00  0.00    +0.144 C 
ATOM     35  C   UNL     1       3.568  -0.214  11.412  0.00  0.00    +0.044 C 
ATOM     36  H   UNL     1       8.240   1.142   7.361  0.00  0.00    +0.160 HD
ENDBRANCH  25  26
ENDBRANCH  24  25
ENDBRANCH  22  24
ENDBRANCH  19  20
ENDBRANCH   1  19
TORSDOF 9
