REMARK  Name = ZINC21218196
REMARK  7 active torsions:
REMARK  status: ('A' for Active; 'I' for Inactive)
REMARK    1  A    between atoms: C_1  and  C_2
REMARK    2  A    between atoms: C_2  and  C_3
REMARK    3  A    between atoms: C_2  and  C_4
REMARK    4  A    between atoms: C_2  and  C_5
REMARK    5  A    between atoms: C_8  and  C_11
REMARK    6  A    between atoms: C_16  and  C_26
REMARK    7  A    between atoms: C_29  and  O_32
REMARK                            x       y       z     vdW  Elec       q    Type
REMARK                         _______ _______ _______ _____ _____    ______ ____
ROOT
ATOM      1  C   UNL     1       8.428   0.596   0.064  0.00  0.00    +0.032 C 
ATOM      2  C   UNL     1       7.842   0.924   1.437  0.00  0.00    +0.059 C 
ATOM      3  C   UNL     1       6.867   2.085   1.319  0.00  0.00    +0.017 C 
ATOM      4  C   UNL     1       6.131   2.243   0.208  0.00  0.00    +0.036 C 
ATOM      5  C   UNL     1       5.103   3.323  -0.029  0.00  0.00    +0.136 C 
ATOM      6  N   UNL     1       5.122   4.392   0.948  0.00  0.00    -0.331 N 
ATOM      7  C   UNL     1       4.809   4.152   2.284  0.00  0.00    +0.049 A 
ATOM      8  C   UNL     1       3.689   4.713   2.878  0.00  0.00    +0.025 A 
ATOM      9  C   UNL     1       3.394   4.410   4.196  0.00  0.00    +0.002 A 
ATOM     10  C   UNL     1       4.206   3.552   4.915  0.00  0.00    +0.002 A 
ATOM     11  C   UNL     1       5.335   3.004   4.331  0.00  0.00    +0.025 A 
ATOM     12  C   UNL     1       5.643   3.323   3.020  0.00  0.00    +0.052 A 
ATOM     13  N   UNL     1       6.815   2.893   2.407  0.00  0.00    -0.316 N 
ATOM     14  C   UNL     1       6.283   1.352  -0.882  0.00  0.00    +0.163 C 
ATOM     15  O   UNL     1       5.594   1.512  -1.870  0.00  0.00    -0.292 OA
ATOM     16  C   UNL     1       7.265   0.219  -0.861  0.00  0.00    +0.088 C 
ATOM     17  H   UNL     1       5.387   5.414   0.639  0.00  0.00    +0.147 HD
ATOM     18  H   UNL     1       7.745   3.257   2.868  0.00  0.00    +0.152 HD
ENDROOT
BRANCH   1  22
ATOM     19  C   UNL     1      11.140  -2.687   0.397  0.00  0.00    -0.042 A 
ATOM     20  C   UNL     1      11.587  -1.466  -0.072  0.00  0.00    +0.004 A 
ATOM     21  C   UNL     1      10.710  -0.404  -0.179  0.00  0.00    +0.004 A 
ATOM     22  C   UNL     1       9.384  -0.563   0.181  0.00  0.00    -0.043 A 
ATOM     23  C   UNL     1       8.938  -1.782   0.654  0.00  0.00    +0.004 A 
ATOM     24  C   UNL     1       9.815  -2.846   0.757  0.00  0.00    +0.004 A 
BRANCH  19  26
ATOM     25  C   UNL     1      13.232  -3.475   1.471  0.00  0.00    +0.015 C 
ATOM     26  C   UNL     1      12.097  -3.846   0.514  0.00  0.00    -0.013 C 
ATOM     27  C   UNL     1      11.353  -5.069   1.053  0.00  0.00    +0.015 C 
ATOM     28  C   UNL     1      12.678  -4.168  -0.865  0.00  0.00    +0.015 C 
ENDBRANCH  19  26
ENDBRANCH   1  22
BRANCH   5  29
ATOM     29  C   UNL     1       3.735   2.692  -0.019  0.00  0.00    -0.023 A 
ATOM     30  C   UNL     1       2.974   2.676  -1.173  0.00  0.00    +0.009 A 
ATOM     31  C   UNL     1       1.719   2.097  -1.167  0.00  0.00    +0.046 A 
ATOM     32  C   UNL     1       1.223   1.532  -0.001  0.00  0.00    +0.117 A 
ATOM     33  C   UNL     1       1.986   1.555   1.157  0.00  0.00    +0.046 A 
ATOM     34  C   UNL     1       3.242   2.129   1.144  0.00  0.00    +0.009 A 
BRANCH  32  35
ATOM     35  O   UNL     1      -0.011   0.963   0.007  0.00  0.00    -0.507 OA
ATOM     36  H   UNL     1      -0.404   0.515   0.932  0.00  0.00    +0.292 HD
ENDBRANCH  32  35
ENDBRANCH   5  29
TORSDOF 4
