REMARK  Name = ZINC23634635
REMARK  6 active torsions:
REMARK  status: ('A' for Active; 'I' for Inactive)
REMARK    1  A    between atoms: C_1  and  C_2
REMARK    2  A    between atoms: C_8  and  N_10
REMARK    3  A    between atoms: C_14  and  C_16
REMARK    4  A    between atoms: C_16  and  S_17
REMARK    5  A    between atoms: S_17  and  C_18
REMARK    6  A    between atoms: N_23  and  C_24
REMARK                            x       y       z     vdW  Elec       q    Type
REMARK                         _______ _______ _______ _____ _____    ______ ____
ROOT
ATOM      1  N   UNL     1      -0.313  -1.250   2.828  0.00  0.00    -0.296 N 
ATOM      2  C   UNL     1       0.370  -1.105   3.980  0.00  0.00    +0.306 C 
ATOM      3  O   UNL     1       1.501  -1.540   4.075  0.00  0.00    -0.252 OA
ATOM      4  N   UNL     1      -0.200  -0.476   5.027  0.00  0.00    -0.240 N 
ATOM      5  C   UNL     1       0.483  -0.331   6.180  0.00  0.00    +0.231 C 
ATOM      6  O   UNL     1       1.611  -0.765   6.275  0.00  0.00    -0.274 OA
ATOM      7  H   UNL     1      -1.216  -0.903   2.752  0.00  0.00    +0.151 HD
ATOM      8  H   UNL     1      -1.102  -0.129   4.951  0.00  0.00    +0.159 HD
ENDROOT
BRANCH   1  15
ATOM      9  C   UNL     1      -0.139   0.060   0.251  0.00  0.00    +0.009 C 
ATOM     10  C   UNL     1      -0.341  -1.450   0.391  0.00  0.00    +0.006 C 
ATOM     11  C   UNL     1      -1.838  -1.764   0.420  0.00  0.00    +0.005 C 
ATOM     12  C   UNL     1      -2.040  -3.274   0.559  0.00  0.00    +0.000 C 
ATOM     13  C   UNL     1      -1.393  -3.757   1.859  0.00  0.00    +0.002 C 
ATOM     14  C   UNL     1       0.104  -3.444   1.830  0.00  0.00    +0.022 C 
ATOM     15  C   UNL     1       0.307  -1.934   1.690  0.00  0.00    +0.077 C 
ENDBRANCH   1  15
BRANCH   5  16
ATOM     16  C   UNL     1      -0.154   0.372   7.350  0.00  0.00    +0.172 C 
BRANCH  16  17
ATOM     17  S   UNL     1       1.009   0.407   8.742  0.00  0.00    -0.088 S 
BRANCH  17  18
ATOM     18  C   UNL     1       0.128   1.249  10.014  0.00  0.00    +0.160 A 
ATOM     19  N   UNL     1      -1.095   1.745   9.996  0.00  0.00    -0.133 NA
ATOM     20  N   UNL     1      -1.595   2.372  11.114  0.00  0.00    -0.125 NA
ATOM     21  C   UNL     1      -0.851   2.474  12.198  0.00  0.00    +0.187 A 
ATOM     22  S   UNL     1       0.647   1.653  11.674  0.00  0.00    -0.024 S 
ATOM     23  N   UNL     1      -1.153   3.059  13.422  0.00  0.00    -0.292 N 
ATOM     24  H   UNL     1      -0.468   3.136  14.105  0.00  0.00    +0.154 HD
BRANCH  23  25
ATOM     25  C   UNL     1      -2.442   3.538  13.669  0.00  0.00    +0.033 A 
ATOM     26  C   UNL     1      -2.641   4.564  14.584  0.00  0.00    +0.023 A 
ATOM     27  C   UNL     1      -3.917   5.035  14.825  0.00  0.00    +0.002 A 
ATOM     28  C   UNL     1      -4.996   4.485  14.156  0.00  0.00    +0.000 A 
ATOM     29  C   UNL     1      -4.801   3.464  13.245  0.00  0.00    +0.002 A 
ATOM     30  C   UNL     1      -3.528   2.992  12.995  0.00  0.00    +0.023 A 
ENDBRANCH  23  25
ENDBRANCH  17  18
ENDBRANCH  16  17
ENDBRANCH   5  16
TORSDOF 5
