REMARK  Name = ZINC11998031
REMARK  9 active torsions:
REMARK  status: ('A' for Active; 'I' for Inactive)
REMARK    1  A    between atoms: C_1  and  C_2
REMARK    2  A    between atoms: C_4  and  N_24
REMARK    3  A    between atoms: C_7  and  S_8
REMARK    4  A    between atoms: S_8  and  N_11
REMARK    5  A    between atoms: N_11  and  C_12
REMARK    6  A    between atoms: C_12  and  C_13
REMARK    7  A    between atoms: C_13  and  C_15
REMARK    8  A    between atoms: C_13  and  N_59
REMARK    9  A    between atoms: C_27  and  C_33
REMARK                            x       y       z     vdW  Elec       q    Type
REMARK                         _______ _______ _______ _____ _____    ______ ____
ROOT
ATOM      1  S   UNL     1      -1.849   3.949  -4.782  0.00  0.00    +0.059 S 
ATOM      2  O   UNL     1      -1.685   5.324  -4.461  0.00  0.00    -0.153 OA
ATOM      3  O   UNL     1      -1.364   3.387  -5.994  0.00  0.00    -0.153 OA
ENDROOT
BRANCH   1  10
ATOM      4  C   UNL     1      -3.659   4.737  -2.493  0.00  0.00    +0.046 C 
ATOM      5  C   UNL     1      -4.327   4.024  -3.641  0.00  0.00    -0.022 A 
ATOM      6  C   UNL     1      -5.684   3.771  -3.600  0.00  0.00    +0.030 A 
ATOM      7  C   UNL     1      -6.299   3.115  -4.658  0.00  0.00    +0.060 A 
ATOM      8  C   UNL     1      -5.546   2.714  -5.754  0.00  0.00    +0.027 A 
ATOM      9  C   UNL     1      -4.191   2.975  -5.791  0.00  0.00    +0.030 A 
ATOM     10  C   UNL     1      -3.580   3.624  -4.734  0.00  0.00    +0.108 A 
BRANCH   7  11
ATOM     11  N   UNL     1      -7.674   2.857  -4.619  0.00  0.00    -0.144 N 
ATOM     12  C   UNL     1      -8.423   2.735  -3.513  0.00  0.00    +0.243 C 
ATOM     13  O   UNL     1      -7.933   2.879  -2.413  0.00  0.00    -0.273 OA
ATOM     14  C   UNL     1      -9.881   2.423  -3.668  0.00  0.00    +0.097 C 
ATOM     15  C   UNL     1     -10.312   2.765  -5.120  0.00  0.00    +0.201 C 
ATOM     16  S   UNL     1      -8.672   2.639  -5.945  0.00  0.00    +0.053 S 
ATOM     17  O   UNL     1      -8.442   3.759  -6.788  0.00  0.00    -0.155 OA
ATOM     18  O   UNL     1      -8.431   1.312  -6.394  0.00  0.00    -0.155 OA
ATOM     19  C   UNL     1     -10.115   0.935  -3.399  0.00  0.00    +0.019 C 
ENDBRANCH   7  11
ENDBRANCH   1  10
BRANCH   1  20
ATOM     20  N   UNL     1      -1.155   3.089  -3.550  0.00  0.00    -0.191 NA
ATOM     21  H   UNL     1      -0.713   3.554  -2.822  0.00  0.00    +0.148 HD
BRANCH  20  22
ATOM     22  C   UNL     1      -1.208   1.625  -3.558  0.00  0.00    +0.098 C 
BRANCH  22  23
ATOM     23  C   UNL     1      -0.160   1.071  -2.590  0.00  0.00    +0.015 C 
BRANCH  23  28
ATOM     24  C   UNL     1       0.432   0.936  -0.232  0.00  0.00    -0.078 C 
ATOM     25  C   UNL     1      -0.261   1.271   1.106  0.00  0.00    -0.020 C 
ATOM     26  C   UNL     1      -1.714   1.635   0.722  0.00  0.00    -0.020 C 
ATOM     27  C   UNL     1      -1.771   1.490  -0.814  0.00  0.00    -0.078 C 
ATOM     28  N   UNL     1      -0.371   1.646  -1.225  0.00  0.00    +0.387 N 
ATOM     29  H   UNL     1      -0.117   2.641  -1.235  0.00  0.00    -0.081 HD
ENDBRANCH  23  28
BRANCH  23  30
ATOM     30  C   UNL     1      -0.296  -0.427  -2.506  0.00  0.00    +0.093 A 
ATOM     31  C   UNL     1       0.548  -1.326  -3.044  0.00  0.00    +0.043 A 
ATOM     32  C   UNL     1       0.044  -2.607  -2.722  0.00  0.00    +0.041 A 
ATOM     33  C   UNL     1      -1.083  -2.414  -2.013  0.00  0.00    +0.195 A 
ATOM     34  O   UNL     1      -1.284  -1.093  -1.885  0.00  0.00    -0.469 OA
ENDBRANCH  23  30
ENDBRANCH  22  23
ENDBRANCH  20  22
ENDBRANCH   1  20
TORSDOF 7
