REMARK  Name = ZINC16891106
REMARK  11 active torsions:
REMARK  status: ('A' for Active; 'I' for Inactive)
REMARK    1  A    between atoms: C_4  and  N_7
REMARK    2  A    between atoms: C_8  and  O_10
REMARK    3  A    between atoms: O_10  and  C_11
REMARK    4  A    between atoms: C_11  and  C_12
REMARK    5  A    between atoms: C_14  and  O_31
REMARK    6  A    between atoms: C_15  and  C_20
REMARK    7  A    between atoms: C_20  and  O_21
REMARK    8  A    between atoms: O_21  and  C_22
REMARK    9  A    between atoms: N_24  and  C_25
REMARK   10  A    between atoms: O_31  and  C_32
REMARK   11  A    between atoms: N_34  and  C_35
REMARK                            x       y       z     vdW  Elec       q    Type
REMARK                         _______ _______ _______ _____ _____    ______ ____
ROOT
ATOM      1  C   UNL     1      -2.186  -2.824   1.899  0.00  0.00    +0.202 C 
ATOM      2  C   UNL     1      -1.782  -2.667   0.429  0.00  0.00    +0.242 C 
ATOM      3  C   UNL     1      -1.919  -4.024  -0.270  0.00  0.00    +0.202 C 
ATOM      4  O   UNL     1      -3.247  -4.518  -0.069  0.00  0.00    -0.344 OA
ATOM      5  C   UNL     1      -3.606  -4.660   1.307  0.00  0.00    +0.324 C 
ATOM      6  O   UNL     1      -3.497  -3.394   1.962  0.00  0.00    -0.344 OA
ENDROOT
BRANCH   1   7
ATOM      7  C   UNL     1      -2.191  -1.452   2.578  0.00  0.00    +0.269 C 
BRANCH   7   8
ATOM      8  O   UNL     1      -2.458  -1.615   3.996  0.00  0.00    -0.447 OA
BRANCH   8  10
ATOM      9  N   UNL     1      -2.739  -0.578   6.066  0.00  0.00    -0.251 N 
ATOM     10  C   UNL     1      -2.496  -0.496   4.743  0.00  0.00    +0.405 C 
ATOM     11  O   UNL     1      -2.312   0.587   4.225  0.00  0.00    -0.226 OA
ATOM     12  H   UNL     1      -2.831  -1.562   6.549  0.00  0.00    +0.158 HD
BRANCH   9  16
ATOM     13  C   UNL     1      -3.143   2.898   8.328  0.00  0.00    +0.000 A 
ATOM     14  C   UNL     1      -3.907   1.786   8.630  0.00  0.00    +0.002 A 
ATOM     15  C   UNL     1      -3.775   0.632   7.882  0.00  0.00    +0.023 A 
ATOM     16  C   UNL     1      -2.875   0.590   6.826  0.00  0.00    +0.036 A 
ATOM     17  C   UNL     1      -2.105   1.707   6.528  0.00  0.00    +0.023 A 
ATOM     18  C   UNL     1      -2.245   2.860   7.276  0.00  0.00    +0.002 A 
ENDBRANCH   9  16
ENDBRANCH   8  10
ENDBRANCH   7   8
ENDBRANCH   1   7
BRANCH   3  19
ATOM     19  C   UNL     1      -1.652  -3.858  -1.767  0.00  0.00    +0.269 C 
BRANCH  19  20
ATOM     20  O   UNL     1      -1.666  -5.161  -2.408  0.00  0.00    -0.447 OA
BRANCH  20  21
ATOM     21  C   UNL     1      -1.446  -5.192  -3.736  0.00  0.00    +0.405 C 
ATOM     22  O   UNL     1      -1.248  -4.157  -4.343  0.00  0.00    -0.226 OA
ATOM     23  N   UNL     1      -1.445  -6.369  -4.393  0.00  0.00    -0.251 N 
ATOM     24  H   UNL     1      -1.697  -7.297  -3.858  0.00  0.00    +0.158 HD
BRANCH  23  25
ATOM     25  C   UNL     1      -1.123  -6.411  -5.754  0.00  0.00    +0.036 A 
ATOM     26  C   UNL     1      -1.513  -5.376  -6.593  0.00  0.00    +0.023 A 
ATOM     27  C   UNL     1      -1.189  -5.418  -7.935  0.00  0.00    +0.002 A 
ATOM     28  C   UNL     1      -0.486  -6.494  -8.445  0.00  0.00    +0.000 A 
ATOM     29  C   UNL     1      -0.101  -7.529  -7.613  0.00  0.00    +0.002 A 
ATOM     30  C   UNL     1      -0.417  -7.490  -6.269  0.00  0.00    +0.023 A 
ENDBRANCH  23  25
ENDBRANCH  20  21
ENDBRANCH  19  20
ENDBRANCH   3  19
BRANCH   2  31
ATOM     31  O   UNL     1      -0.404  -2.215   0.348  0.00  0.00    -0.441 OA
BRANCH  31  32
ATOM     32  C   UNL     1      -0.198  -0.885   0.321  0.00  0.00    +0.405 C 
ATOM     33  O   UNL     1      -1.143  -0.122   0.362  0.00  0.00    -0.226 OA
ATOM     34  N   UNL     1       1.057  -0.399   0.246  0.00  0.00    -0.251 N 
ATOM     35  H   UNL     1       1.907  -1.087   0.132  0.00  0.00    +0.158 HD
BRANCH  34  36
ATOM     36  C   UNL     1       1.278   0.981   0.315  0.00  0.00    +0.036 A 
ATOM     37  C   UNL     1       0.369   1.861  -0.258  0.00  0.00    +0.023 A 
ATOM     38  C   UNL     1       0.587   3.223  -0.183  0.00  0.00    +0.002 A 
ATOM     39  C   UNL     1       1.715   3.710   0.450  0.00  0.00    +0.000 A 
ATOM     40  C   UNL     1       2.626   2.837   1.015  0.00  0.00    +0.002 A 
ATOM     41  C   UNL     1       2.410   1.474   0.950  0.00  0.00    +0.023 A 
ENDBRANCH  34  36
ENDBRANCH  31  32
ENDBRANCH   2  31
TORSDOF 11
