REMARK  Name = ZINC01812218
REMARK  9 active torsions:
REMARK  status: ('A' for Active; 'I' for Inactive)
REMARK    1  A    between atoms: C_1  and  C_2
REMARK    2  A    between atoms: C_5  and  N_8
REMARK    3  A    between atoms: C_9  and  C_29
REMARK    4  A    between atoms: C_12  and  S_13
REMARK    5  A    between atoms: S_13  and  C_14
REMARK    6  A    between atoms: C_14  and  C_15
REMARK    7  A    between atoms: N_17  and  N_18
REMARK    8  A    between atoms: N_18  and  C_19
REMARK    9  A    between atoms: C_19  and  C_21
REMARK                            x       y       z     vdW  Elec       q    Type
REMARK                         _______ _______ _______ _____ _____    ______ ____
ROOT
ATOM      1  N   UNL     1      -0.278  -4.452  -0.415  0.00  0.00    -0.270 N 
ATOM      2  C   UNL     1      -1.128  -5.322   0.232  0.00  0.00    +0.169 A 
ATOM      3  N   UNL     1      -0.593  -6.518   0.145  0.00  0.00    -0.128 NA
ATOM      4  N   UNL     1       0.516  -6.458  -0.501  0.00  0.00    -0.122 NA
ATOM      5  C   UNL     1       0.757  -5.221  -0.874  0.00  0.00    +0.197 A 
ENDROOT
BRANCH   1  10
ATOM      6  C   UNL     1      -0.940   1.148  -1.063  0.00  0.00    +0.044 C 
ATOM      7  C   UNL     1      -0.764  -0.339  -0.891  0.00  0.00    -0.050 A 
ATOM      8  C   UNL     1      -0.848  -1.175  -1.989  0.00  0.00    +0.005 A 
ATOM      9  C   UNL     1      -0.687  -2.538  -1.834  0.00  0.00    +0.026 A 
ATOM     10  C   UNL     1      -0.441  -3.068  -0.575  0.00  0.00    +0.051 A 
ATOM     11  C   UNL     1      -0.357  -2.226   0.526  0.00  0.00    +0.026 A 
ATOM     12  C   UNL     1      -0.514  -0.864   0.364  0.00  0.00    +0.005 A 
ENDBRANCH   1  10
BRANCH   2  13
ATOM     13  C   UNL     1      -2.401  -4.974   0.898  0.00  0.00    +0.020 A 
ATOM     14  C   UNL     1      -3.031  -3.761   0.616  0.00  0.00    +0.013 A 
ATOM     15  C   UNL     1      -4.218  -3.442   1.241  0.00  0.00    +0.021 A 
ATOM     16  C   UNL     1      -4.785  -4.323   2.147  0.00  0.00    +0.041 A 
ATOM     17  C   UNL     1      -4.165  -5.528   2.431  0.00  0.00    +0.021 A 
ATOM     18  C   UNL     1      -2.980  -5.860   1.808  0.00  0.00    +0.013 A 
ATOM     19 CL   UNL     1      -6.280  -3.914   2.930  0.00  0.00    -0.084 Cl
ENDBRANCH   2  13
BRANCH   5  20
ATOM     20  S   UNL     1       2.153  -4.658  -1.789  0.00  0.00    -0.076 S 
BRANCH  20  21
ATOM     21  C   UNL     1       3.126  -6.162  -2.076  0.00  0.00    +0.174 C 
BRANCH  21  22
ATOM     22  C   UNL     1       4.365  -5.817  -2.860  0.00  0.00    +0.239 C 
ATOM     23  O   UNL     1       4.573  -4.669  -3.192  0.00  0.00    -0.273 OA
ATOM     24  N   UNL     1       5.244  -6.783  -3.191  0.00  0.00    -0.236 N 
ATOM     25  H   UNL     1       5.078  -7.701  -2.925  0.00  0.00    +0.173 HD
BRANCH  24  26
ATOM     26  N   UNL     1       6.397  -6.462  -3.920  0.00  0.00    -0.264 N 
ATOM     27  H   UNL     1       6.562  -5.544  -4.186  0.00  0.00    +0.170 HD
BRANCH  26  28
ATOM     28  C   UNL     1       7.306  -7.463  -4.263  0.00  0.00    +0.046 C 
ATOM     29  C   UNL     1       7.078  -8.725  -3.898  0.00  0.00    +0.035 C 
BRANCH  28  30
ATOM     30  C   UNL     1       8.525  -7.124  -5.034  0.00  0.00    +0.015 A 
ATOM     31  C   UNL     1       8.787  -7.762  -6.246  0.00  0.00    +0.012 A 
ATOM     32  C   UNL     1       9.923  -7.442  -6.960  0.00  0.00    +0.021 A 
ATOM     33  C   UNL     1      10.803  -6.489  -6.475  0.00  0.00    +0.042 A 
ATOM     34  C   UNL     1      10.549  -5.852  -5.273  0.00  0.00    +0.040 A 
ATOM     35  C   UNL     1       9.412  -6.160  -4.552  0.00  0.00    +0.051 A 
ATOM     36 CL   UNL     1       9.091  -5.356  -3.048  0.00  0.00    -0.083 Cl
ATOM     37 CL   UNL     1      12.231  -6.092  -7.379  0.00  0.00    -0.083 Cl
ENDBRANCH  28  30
ENDBRANCH  26  28
ENDBRANCH  24  26
ENDBRANCH  21  22
ENDBRANCH  20  21
ENDBRANCH   5  20
TORSDOF 8
