REMARK  Name = ZINC27382889
REMARK  14 active torsions:
REMARK  status: ('A' for Active; 'I' for Inactive)
REMARK    1  A    between atoms: C_1  and  C_2
REMARK    2  A    between atoms: C_2  and  C_3
REMARK    3  A    between atoms: C_3  and  C_4
REMARK    4  A    between atoms: C_4  and  N_5
REMARK    5  A    between atoms: N_5  and  C_6
REMARK    6  A    between atoms: C_7  and  N_19
REMARK    7  A    between atoms: N_8  and  C_15
REMARK    8  A    between atoms: C_15  and  C_16
REMARK    9  A    between atoms: C_16  and  C_17
REMARK   10  A    between atoms: C_16  and  C_18
REMARK   11  A    between atoms: C_20  and  C_22
REMARK   12  A    between atoms: C_22  and  N_23
REMARK   13  A    between atoms: N_26  and  C_29
REMARK   14  A    between atoms: C_33  and  C_35
REMARK                            x       y       z     vdW  Elec       q    Type
REMARK                         _______ _______ _______ _____ _____    ______ ____
ROOT
ATOM      1  N   UNL     1       1.712  -2.135  -2.396  0.00  0.00    -0.263 N 
ATOM      2  C   UNL     1       0.907  -2.443  -3.434  0.00  0.00    +0.234 C 
ATOM      3  O   UNL     1       1.378  -2.914  -4.448  0.00  0.00    -0.274 OA
ENDROOT
BRANCH   1   4
ATOM      4  C   UNL     1       3.112  -2.257  -2.529  0.00  0.00    +0.140 A 
ATOM      5  C   UNL     1       3.809  -3.188  -1.787  0.00  0.00    +0.127 A 
ATOM      6  N   UNL     1       5.173  -3.283  -1.938  0.00  0.00    -0.280 N 
ATOM      7  C   UNL     1       5.820  -2.477  -2.800  0.00  0.00    +0.331 A 
ATOM      8  O   UNL     1       7.026  -2.576  -2.919  0.00  0.00    -0.246 OA
ATOM      9  N   UNL     1       5.157  -1.564  -3.531  0.00  0.00    -0.273 N 
ATOM     10  H   UNL     1       5.646  -0.995  -4.146  0.00  0.00    +0.173 HD
ATOM     11  C   UNL     1       3.820  -1.434  -3.425  0.00  0.00    +0.277 A 
ATOM     12  O   UNL     1       3.228  -0.606  -4.097  0.00  0.00    -0.266 OA
BRANCH   5  13
ATOM     13  N   UNL     1       3.149  -4.011  -0.906  0.00  0.00    -0.343 N 
ATOM     14  H   UNL     1       2.197  -3.896  -0.755  0.00  0.00    +0.144 HD
ATOM     15  H   UNL     1       3.634  -4.707  -0.436  0.00  0.00    +0.144 HD
ENDBRANCH   5  13
BRANCH   6  16
ATOM     16  C   UNL     1       5.926  -4.267  -1.157  0.00  0.00    +0.131 C 
BRANCH  16  17
ATOM     17  C   UNL     1       6.004  -5.583  -1.933  0.00  0.00    +0.003 C 
ATOM     18  C   UNL     1       6.894  -6.570  -1.176  0.00  0.00    +0.009 C 
ATOM     19  C   UNL     1       4.600  -6.172  -2.081  0.00  0.00    +0.009 C 
ENDBRANCH  16  17
ENDBRANCH   6  16
ENDBRANCH   1   4
BRANCH   1  20
ATOM     20  C   UNL     1       1.134  -1.676  -1.131  0.00  0.00    +0.114 C 
BRANCH  20  21
ATOM     21  C   UNL     1       1.117  -0.146  -1.105  0.00  0.00    +0.019 C 
BRANCH  21  23
ATOM     22  C   UNL     1       0.495   1.864   0.243  0.00  0.00    +0.004 C 
ATOM     23  C   UNL     1       0.512   0.334   0.216  0.00  0.00    -0.002 C 
ENDBRANCH  21  23
ENDBRANCH  20  21
ENDBRANCH   1  20
BRANCH   2  24
ATOM     24  C   UNL     1      -0.577  -2.201  -3.334  0.00  0.00    +0.181 C 
BRANCH  24  25
ATOM     25  N   UNL     1      -1.226  -2.615  -4.585  0.00  0.00    -0.291 NA
ATOM     26  C   UNL     1      -0.801  -1.765  -5.705  0.00  0.00    +0.104 C 
ATOM     27  C   UNL     1      -1.355  -2.337  -7.014  0.00  0.00    +0.120 C 
ATOM     28  N   UNL     1      -2.810  -2.501  -6.875  0.00  0.00    -0.327 N 
ATOM     29  C   UNL     1      -3.319  -3.225  -5.701  0.00  0.00    +0.120 C 
ATOM     30  C   UNL     1      -2.688  -2.618  -4.443  0.00  0.00    +0.104 C 
BRANCH  28  31
ATOM     31  C   UNL     1      -3.684  -1.981  -7.832  0.00  0.00    +0.030 A 
ATOM     32  C   UNL     1      -3.184  -1.412  -8.997  0.00  0.00    +0.023 A 
ATOM     33  C   UNL     1      -4.052  -0.900  -9.941  0.00  0.00    +0.002 A 
ATOM     34  C   UNL     1      -5.417  -0.953  -9.728  0.00  0.00    +0.003 A 
ATOM     35  C   UNL     1      -5.919  -1.518  -8.570  0.00  0.00    -0.049 A 
ATOM     36  C   UNL     1      -5.057  -2.038  -7.624  0.00  0.00    +0.026 A 
ATOM     37  C   UNL     1      -7.407  -1.573  -8.342  0.00  0.00    +0.044 C 
ENDBRANCH  28  31
ENDBRANCH  24  25
ENDBRANCH   2  24
TORSDOF 10
