REMARK  Name = ZINC08606615
REMARK  12 active torsions:
REMARK  status: ('A' for Active; 'I' for Inactive)
REMARK    1  A    between atoms: C_1  and  C_2
REMARK    2  A    between atoms: C_5  and  O_37
REMARK    3  A    between atoms: C_6  and  C_8
REMARK    4  A    between atoms: N_16  and  C_31
REMARK    5  A    between atoms: C_17  and  C_19
REMARK    6  A    between atoms: C_21  and  O_29
REMARK    7  A    between atoms: C_22  and  O_27
REMARK    8  A    between atoms: C_23  and  O_25
REMARK    9  A    between atoms: O_25  and  C_26
REMARK   10  A    between atoms: O_27  and  C_28
REMARK   11  A    between atoms: O_29  and  C_30
REMARK   12  A    between atoms: C_31  and  C_32
REMARK                            x       y       z     vdW  Elec       q    Type
REMARK                         _______ _______ _______ _____ _____    ______ ____
ROOT
ATOM      1  C   UNL     1       1.516  -2.898   0.982  0.00  0.00    +0.102 A 
ATOM      2  C   UNL     1       1.028  -3.826   1.908  0.00  0.00    +0.035 A 
ATOM      3  C   UNL     1       0.897  -3.137   3.099  0.00  0.00    +0.126 A 
ATOM      4  N   UNL     1       1.302  -1.858   2.843  0.00  0.00    -0.272 N 
ATOM      5  H   UNL     1       1.322  -1.139   3.494  0.00  0.00    +0.189 HD
ATOM      6  N   UNL     1       1.659  -1.749   1.613  0.00  0.00    -0.173 NA
ATOM      7  C   UNL     1       0.387  -4.060   4.119  0.00  0.00    +0.266 C 
ATOM      8  O   UNL     1       0.162  -3.760   5.276  0.00  0.00    -0.268 OA
ATOM      9  N   UNL     1       0.201  -5.284   3.592  0.00  0.00    -0.278 N 
ATOM     10  C   UNL     1       0.585  -5.239   2.175  0.00  0.00    +0.142 C 
ENDROOT
BRANCH   1  16
ATOM     11  C   UNL     1       0.822  -1.844  -3.848  0.00  0.00    +0.044 C 
ATOM     12  C   UNL     1       1.491  -2.657  -2.770  0.00  0.00    -0.050 A 
ATOM     13  C   UNL     1       2.391  -3.650  -3.115  0.00  0.00    +0.007 A 
ATOM     14  C   UNL     1       3.010  -4.402  -2.133  0.00  0.00    +0.046 A 
ATOM     15  C   UNL     1       2.730  -4.163  -0.797  0.00  0.00    +0.126 A 
ATOM     16  C   UNL     1       1.821  -3.160  -0.447  0.00  0.00    +0.044 A 
ATOM     17  C   UNL     1       1.208  -2.405  -1.443  0.00  0.00    +0.017 A 
BRANCH  15  18
ATOM     18  O   UNL     1       3.337  -4.901   0.169  0.00  0.00    -0.506 OA
ATOM     19  H   UNL     1       4.122  -4.484   0.548  0.00  0.00    +0.292 HD
ENDBRANCH  15  18
ENDBRANCH   1  16
BRANCH  10  20
ATOM     20  C   UNL     1      -0.597  -5.585   1.307  0.00  0.00    -0.015 A 
ATOM     21  C   UNL     1      -1.825  -4.997   1.548  0.00  0.00    +0.055 A 
ATOM     22  C   UNL     1      -2.915  -5.313   0.751  0.00  0.00    +0.165 A 
ATOM     23  C   UNL     1      -2.772  -6.221  -0.290  0.00  0.00    +0.204 A 
ATOM     24  C   UNL     1      -1.536  -6.810  -0.529  0.00  0.00    +0.165 A 
ATOM     25  C   UNL     1      -0.450  -6.485   0.268  0.00  0.00    +0.055 A 
BRANCH  24  26
ATOM     26  O   UNL     1      -1.392  -7.700  -1.548  0.00  0.00    -0.491 OA
ATOM     27  C   UNL     1      -0.093  -8.266  -1.735  0.00  0.00    +0.277 C 
ENDBRANCH  24  26
BRANCH  23  28
ATOM     28  O   UNL     1      -3.840  -6.535  -1.074  0.00  0.00    -0.488 OA
ATOM     29  C   UNL     1      -4.049  -5.731  -2.237  0.00  0.00    +0.277 C 
ENDBRANCH  23  28
BRANCH  22  30
ATOM     30  O   UNL     1      -4.123  -4.734   0.990  0.00  0.00    -0.491 OA
ATOM     31  C   UNL     1      -4.170  -3.722   1.997  0.00  0.00    +0.277 C 
ENDBRANCH  22  30
ENDBRANCH  10  20
BRANCH   9  32
ATOM     32  C   UNL     1      -0.298  -6.460   4.309  0.00  0.00    +0.183 C 
BRANCH  32  33
ATOM     33  C   UNL     1      -1.804  -6.435   4.329  0.00  0.00    +0.122 A 
ATOM     34  C   UNL     1      -2.613  -7.041   3.441  0.00  0.00    +0.046 A 
ATOM     35  C   UNL     1      -3.941  -6.758   3.836  0.00  0.00    +0.041 A 
ATOM     36  C   UNL     1      -3.864  -5.995   4.941  0.00  0.00    +0.195 A 
ATOM     37  O   UNL     1      -2.568  -5.808   5.239  0.00  0.00    -0.466 OA
ENDBRANCH  32  33
ENDBRANCH   9  32
TORSDOF 8
