REMARK  Name = ZINC52095014
REMARK  5 active torsions:
REMARK  status: ('A' for Active; 'I' for Inactive)
REMARK    1  A    between atoms: C_1  and  C_2
REMARK    2  A    between atoms: C_2  and  C_3
REMARK    3  A    between atoms: C_3  and  C_5
REMARK    4  A    between atoms: C_3  and  C_6
REMARK    5  A    between atoms: C_6  and  C_8
REMARK                            x       y       z     vdW  Elec       q    Type
REMARK                         _______ _______ _______ _____ _____    ______ ____
ROOT
ATOM      1  C   UNL     1       1.661  -2.496  -2.382  0.00  0.00    -0.013 A 
ATOM      2  C   UNL     1       1.024  -3.015  -3.493  0.00  0.00    +0.034 A 
ATOM      3  C   UNL     1       1.771  -3.452  -4.576  0.00  0.00    +0.067 A 
ATOM      4  C   UNL     1       3.164  -3.365  -4.540  0.00  0.00    +0.068 A 
ATOM      5  C   UNL     1       3.796  -2.842  -3.423  0.00  0.00    +0.043 A 
ATOM      6  C   UNL     1       3.042  -2.404  -2.349  0.00  0.00    +0.025 A 
ATOM      7 BR   UNL     1       3.902  -1.683  -0.828  0.00  0.00    -0.050 Br
ATOM      8  N   UNL     1       3.630  -3.872  -5.751  0.00  0.00    -0.306 N 
ATOM      9  H   UNL     1       4.560  -3.941  -6.018  0.00  0.00    +0.170 HD
ATOM     10  C   UNL     1       2.569  -4.250  -6.489  0.00  0.00    +0.325 A 
ATOM     11  O   UNL     1       2.628  -4.737  -7.603  0.00  0.00    -0.247 OA
ATOM     12  N   UNL     1       1.433  -4.010  -5.807  0.00  0.00    -0.306 N 
ATOM     13  H   UNL     1       0.534  -4.194  -6.120  0.00  0.00    +0.170 HD
ENDROOT
BRANCH   1  14
ATOM     14  C   UNL     1       0.849  -2.021  -1.205  0.00  0.00    +0.114 C 
ATOM     15 CL   UNL     1      -0.728  -2.893  -1.172  0.00  0.00    -0.116 Cl
BRANCH  14  16
ATOM     16  C   UNL     1       0.598  -0.517  -1.332  0.00  0.00    +0.008 C 
ATOM     17  C   UNL     1      -0.274  -0.247  -2.560  0.00  0.00    +0.009 C 
BRANCH  16  19
ATOM     18  C   UNL     1      -0.257   1.510  -0.148  0.00  0.00    +0.004 C 
ATOM     19  C   UNL     1      -0.117  -0.012  -0.077  0.00  0.00    +0.001 C 
ENDBRANCH  16  19
ENDBRANCH  14  16
ENDBRANCH   1  14
TORSDOF 3
