REMARK  Name = ZINC04311288
REMARK  6 active torsions:
REMARK  status: ('A' for Active; 'I' for Inactive)
REMARK    1  A    between atoms: C_1  and  C_2
REMARK    2  A    between atoms: C_2  and  C_19
REMARK    3  A    between atoms: N_3  and  N_4
REMARK    4  A    between atoms: C_7  and  C_13
REMARK    5  A    between atoms: C_8  and  C_10
REMARK    6  A    between atoms: C_10  and  C_11
REMARK                            x       y       z     vdW  Elec       q    Type
REMARK                         _______ _______ _______ _____ _____    ______ ____
ROOT
ATOM      1  N   UNL     1       1.304  -0.943   0.085  0.00  0.00    -0.215 N 
ATOM      2  C   UNL     1       1.326  -2.312   0.286  0.00  0.00    +0.179 A 
ATOM      3  N   UNL     1       2.358  -3.112   0.488  0.00  0.00    -0.223 NA
ATOM      4  C   UNL     1       2.195  -4.414   0.664  0.00  0.00    +0.084 A 
ATOM      5  C   UNL     1       0.934  -4.942   0.638  0.00  0.00    +0.030 A 
ATOM      6  S   UNL     1      -0.036  -3.468   0.351  0.00  0.00    -0.055 S 
ATOM      7  H   UNL     1       0.459  -0.486  -0.051  0.00  0.00    +0.176 HD
ENDROOT
BRANCH   4   8
ATOM      8  C   UNL     1       3.369  -5.292   0.890  0.00  0.00    +0.001 A 
ATOM      9  C   UNL     1       3.270  -6.386   1.748  0.00  0.00    +0.010 A 
ATOM     10  C   UNL     1       4.364  -7.203   1.949  0.00  0.00    +0.001 A 
ATOM     11  C   UNL     1       5.561  -6.931   1.310  0.00  0.00    +0.000 A 
ATOM     12  C   UNL     1       5.666  -5.843   0.462  0.00  0.00    +0.001 A 
ATOM     13  C   UNL     1       4.577  -5.023   0.249  0.00  0.00    +0.010 A 
ENDBRANCH   4   8
BRANCH   1  16
ATOM     14  C   UNL     1       3.749   1.866  -0.070  0.00  0.00    +0.068 C 
ATOM     15  C   UNL     1       2.495   1.046  -0.226  0.00  0.00    +0.063 C 
ATOM     16  N   UNL     1       2.502  -0.217   0.077  0.00  0.00    -0.185 NA
BRANCH  15  17
ATOM     17  C   UNL     1       1.258   1.677  -0.723  0.00  0.00    -0.003 A 
ATOM     18  C   UNL     1       0.956   2.996  -0.377  0.00  0.00    +0.010 A 
ATOM     19  C   UNL     1      -0.205   3.579  -0.842  0.00  0.00    +0.001 A 
ATOM     20  C   UNL     1      -1.063   2.863  -1.658  0.00  0.00    +0.000 A 
ATOM     21  C   UNL     1      -0.770   1.556  -2.005  0.00  0.00    +0.001 A 
ATOM     22  C   UNL     1       0.384   0.959  -1.543  0.00  0.00    +0.010 A 
ENDBRANCH  15  17
ENDBRANCH   1  16
BRANCH   5  23
ATOM     23  C   UNL     1       0.486  -6.370   0.809  0.00  0.00    +0.169 C 
BRANCH  23  24
ATOM     24  C   UNL     1       0.221  -6.643   2.267  0.00  0.00    +0.361 C 
ATOM     25  O   UNL     1       0.380  -5.766   3.084  0.00  0.00    -0.246 OA
ATOM     26  O   UNL     1      -0.192  -7.858   2.659  0.00  0.00    -0.246 OA
ENDBRANCH  23  24
ENDBRANCH   5  23
TORSDOF 5
