REMARK  Name = ZINC01382537
REMARK  9 active torsions:
REMARK  status: ('A' for Active; 'I' for Inactive)
REMARK    1  A    between atoms: C_1  and  C_2
REMARK    2  A    between atoms: C_7  and  N_8
REMARK    3  A    between atoms: N_11  and  C_14
REMARK    4  A    between atoms: C_14  and  C_16
REMARK    5  A    between atoms: C_14  and  C_30
REMARK    6  A    between atoms: C_19  and  C_29
REMARK    7  A    between atoms: C_21  and  C_28
REMARK    8  A    between atoms: N_34  and  C_35
REMARK    9  A    between atoms: C_35  and  C_36
REMARK                            x       y       z     vdW  Elec       q    Type
REMARK                         _______ _______ _______ _____ _____    ______ ____
ROOT
ATOM      1  C   UNL     1      -0.009   3.518   4.679  0.00  0.00    +0.162 C 
ENDROOT
BRANCH   1   2
ATOM      2  C   UNL     1       1.122   3.720   5.655  0.00  0.00    +0.042 A 
ATOM      3  C   UNL     1       0.854   4.092   6.932  0.00  0.00    +0.021 A 
ATOM      4  C   UNL     1       1.974   4.279   7.855  0.00  0.00    +0.002 A 
ATOM      5  C   UNL     1       1.761   4.662   9.184  0.00  0.00    -0.041 A 
ATOM      6  C   UNL     1       2.828   4.828  10.020  0.00  0.00    +0.007 A 
ATOM      7  C   UNL     1       4.123   4.622   9.563  0.00  0.00    -0.048 A 
ATOM      8  C   UNL     1       4.357   4.246   8.258  0.00  0.00    +0.029 A 
ATOM      9  C   UNL     1       3.286   4.069   7.388  0.00  0.00    +0.050 A 
ATOM     10  N   UNL     1       3.490   3.692   6.078  0.00  0.00    -0.322 N 
ATOM     11  H   UNL     1       4.395   3.548   5.758  0.00  0.00    +0.169 HD
ATOM     12  C   UNL     1       2.455   3.517   5.239  0.00  0.00    +0.254 A 
ATOM     13  O   UNL     1       2.673   3.178   4.088  0.00  0.00    -0.268 OA
ATOM     14  C   UNL     1       5.285   4.812  10.504  0.00  0.00    +0.044 C 
ATOM     15  C   UNL     1       0.360   4.889   9.690  0.00  0.00    +0.044 C 
ENDBRANCH   1   2
BRANCH   1  19
ATOM     16  N   UNL     1      -0.660  -0.440   3.444  0.00  0.00    -0.327 N 
ATOM     17  C   UNL     1       0.274  -0.234   4.561  0.00  0.00    +0.120 C 
ATOM     18  C   UNL     1       0.008   1.147   5.170  0.00  0.00    +0.104 C 
ATOM     19  N   UNL     1       0.070   2.165   4.113  0.00  0.00    -0.286 NA
ATOM     20  C   UNL     1      -0.980   1.954   3.107  0.00  0.00    +0.104 C 
ATOM     21  C   UNL     1      -0.750   0.603   2.411  0.00  0.00    +0.120 C 
BRANCH  16  28
ATOM     22  C   UNL     1      -3.228  -0.419   4.669  0.00  0.00    +0.045 C 
ATOM     23  C   UNL     1      -2.698  -1.631   3.948  0.00  0.00    -0.029 A 
ATOM     24  C   UNL     1      -3.467  -2.776   3.862  0.00  0.00    +0.006 A 
ATOM     25  C   UNL     1      -2.982  -3.889   3.200  0.00  0.00    +0.020 A 
ATOM     26  C   UNL     1      -1.724  -3.861   2.622  0.00  0.00    +0.043 A 
ATOM     27  C   UNL     1      -0.950  -2.719   2.705  0.00  0.00    +0.043 A 
ATOM     28  C   UNL     1      -1.438  -1.597   3.364  0.00  0.00    +0.034 A 
ATOM     29 CL   UNL     1      -1.120  -5.261   1.793  0.00  0.00    -0.083 Cl
ENDBRANCH  16  28
ENDBRANCH   1  19
BRANCH   1  30
ATOM     30  C   UNL     1       0.096   4.534   3.571  0.00  0.00    +0.173 A 
ATOM     31  N   UNL     1       0.947   4.519   2.574  0.00  0.00    -0.111 NA
ATOM     32  N   UNL     1       0.720   5.554   1.842  0.00  0.00    -0.023 NA
ATOM     33  N   UNL     1      -0.254   6.229   2.345  0.00  0.00    -0.043 NA
ATOM     34  N   UNL     1      -0.669   5.629   3.410  0.00  0.00    -0.220 N 
BRANCH  34  35
ATOM     35  C   UNL     1      -1.764   6.061   4.281  0.00  0.00    +0.221 C 
BRANCH  35  36
ATOM     36  C   UNL     1      -1.223   6.965   5.359  0.00  0.00    +0.126 A 
ATOM     37  C   UNL     1      -1.113   8.303   5.282  0.00  0.00    +0.046 A 
ATOM     38  C   UNL     1      -0.560   8.741   6.507  0.00  0.00    +0.041 A 
ATOM     39  C   UNL     1      -0.364   7.643   7.260  0.00  0.00    +0.195 A 
ATOM     40  O   UNL     1      -0.773   6.571   6.561  0.00  0.00    -0.466 OA
ENDBRANCH  35  36
ENDBRANCH  34  35
ENDBRANCH   1  30
TORSDOF 6
