REMARK  Name = ZINC16137595
REMARK  1 active torsions:
REMARK  status: ('A' for Active; 'I' for Inactive)
REMARK    1  A    between atoms: N_11  and  N_14
REMARK                            x       y       z     vdW  Elec       q    Type
REMARK                         _______ _______ _______ _____ _____    ______ ____
ROOT
ATOM      1  C   UNL     1      -0.018   1.510   0.010  0.00  0.00    +0.040 C 
ATOM      2  C   UNL     1       1.424   1.970  -0.001  0.00  0.00    -0.030 C 
ATOM      3  C   UNL     1       2.429   1.224  -0.349  0.00  0.00    -0.030 C 
ATOM      4  C   UNL     1       2.306  -0.209  -0.822  0.00  0.00    +0.040 C 
ATOM      5  C   UNL     1       0.863  -0.415  -1.232  0.00  0.00    +0.093 C 
ATOM      6  C   UNL     1       0.002  -0.004   0.002  0.00  0.00    +0.093 C 
ATOM      7  C   UNL     1      -1.271  -0.729  -0.313  0.00  0.00    +0.240 C 
ATOM      8  O   UNL     1      -2.395  -0.394  -0.005  0.00  0.00    -0.274 OA
ATOM      9  N   UNL     1      -0.914  -1.837  -1.013  0.00  0.00    -0.175 N 
ATOM     10  C   UNL     1       0.381  -1.816  -1.457  0.00  0.00    +0.240 C 
ATOM     11  O   UNL     1       1.015  -2.737  -1.925  0.00  0.00    -0.274 OA
ENDROOT
BRANCH   9  12
ATOM     12  N   UNL     1      -1.770  -2.872  -1.265  0.00  0.00    -0.245 NA
ATOM     13  H   UNL     1      -1.313  -3.596  -1.798  0.00  0.00    +0.141 HD
ATOM     14  H   UNL     1      -2.154  -3.241  -0.408  0.00  0.00    +0.141 HD
ENDBRANCH   9  12
TORSDOF 1
