REMARK  Name = ZINC00661977
REMARK  5 active torsions:
REMARK  status: ('A' for Active; 'I' for Inactive)
REMARK    1  A    between atoms: C_1  and  C_2
REMARK    2  A    between atoms: C_2  and  C_3
REMARK    3  A    between atoms: C_11  and  N_25
REMARK    4  A    between atoms: C_12  and  C_16
REMARK    5  A    between atoms: C_16  and  C_18
REMARK                            x       y       z     vdW  Elec       q    Type
REMARK                         _______ _______ _______ _____ _____    ______ ____
ROOT
ATOM      1  C   UNL     1      -0.008   1.262   2.539  0.00  0.00    -0.007 C 
ATOM      2  C   UNL     1      -0.766   1.649   3.814  0.00  0.00    +0.010 C 
ATOM      3  C   UNL     1      -0.149   0.895   4.990  0.00  0.00    +0.056 C 
ATOM      4  C   UNL     1       1.346   1.083   5.014  0.00  0.00    +0.046 A 
ATOM      5  C   UNL     1       2.057   1.525   3.914  0.00  0.00    -0.025 A 
ATOM      6  C   UNL     1       3.430   1.666   3.990  0.00  0.00    +0.017 A 
ATOM      7  C   UNL     1       4.099   1.359   5.198  0.00  0.00    +0.029 A 
ATOM      8  C   UNL     1       5.520   1.434   5.498  0.00  0.00    +0.052 A 
ATOM      9  C   UNL     1       5.940   1.079   6.765  0.00  0.00    +0.083 A 
ATOM     10  S   UNL     1       4.425   0.633   7.591  0.00  0.00    -0.064 S 
ATOM     11  C   UNL     1       3.281   0.919   6.264  0.00  0.00    +0.111 A 
ATOM     12  N   UNL     1       1.980   0.800   6.144  0.00  0.00    -0.244 NA
ATOM     13  C   UNL     1       1.391   1.870   2.607  0.00  0.00    +0.040 C 
ENDROOT
BRANCH   8  14
ATOM     14  N   UNL     1       6.428   1.850   4.538  0.00  0.00    -0.356 N 
ATOM     15  H   UNL     1       6.119   2.096   3.652  0.00  0.00    +0.142 HD
ATOM     16  H   UNL     1       7.373   1.895   4.752  0.00  0.00    +0.142 HD
ENDBRANCH   8  14
BRANCH   1  18
ATOM     17  C   UNL     1      -0.042   1.333   0.042  0.00  0.00    +0.004 C 
ATOM     18  C   UNL     1      -0.747   1.805   1.315  0.00  0.00    +0.000 C 
ENDBRANCH   1  18
BRANCH   9  19
ATOM     19  C   UNL     1       7.256   1.072   7.283  0.00  0.00    +0.202 C 
ATOM     20  O   UNL     1       8.201   1.292   6.547  0.00  0.00    -0.286 OA
BRANCH  19  21
ATOM     21  C   UNL     1       7.485   0.797   8.718  0.00  0.00    +0.023 A 
ATOM     22  C   UNL     1       6.471   1.035   9.648  0.00  0.00    +0.013 A 
ATOM     23  C   UNL     1       6.688   0.771  10.984  0.00  0.00    +0.016 A 
ATOM     24  C   UNL     1       7.913   0.282  11.405  0.00  0.00    +0.018 A 
ATOM     25  C   UNL     1       8.925   0.049  10.489  0.00  0.00    +0.016 A 
ATOM     26  C   UNL     1       8.717   0.304   9.149  0.00  0.00    +0.013 A 
ATOM     27 BR   UNL     1       8.206  -0.069  13.240  0.00  0.00    -0.050 Br
ENDBRANCH  19  21
ENDBRANCH   9  19
TORSDOF 4
