REMARK  Name = ZINC09483173
REMARK  6 active torsions:
REMARK  status: ('A' for Active; 'I' for Inactive)
REMARK    1  A    between atoms: C_1  and  C_2
REMARK    2  A    between atoms: C_2  and  C_37
REMARK    3  A    between atoms: C_6  and  C_27
REMARK    4  A    between atoms: N_8  and  C_16
REMARK    5  A    between atoms: C_16  and  C_17
REMARK    6  A    between atoms: N_19  and  C_20
REMARK                            x       y       z     vdW  Elec       q    Type
REMARK                         _______ _______ _______ _____ _____    ______ ____
ROOT
ATOM      1  C   UNL     1       7.800   1.454  -1.150  0.00  0.00    +0.011 C 
ATOM      2  C   UNL     1       7.909   0.970   0.297  0.00  0.00    -0.023 C 
ATOM      3  C   UNL     1       6.946  -0.195   0.527  0.00  0.00    +0.058 C 
ATOM      4  C   UNL     1       5.523   0.255   0.254  0.00  0.00    +0.017 C 
ATOM      5  C   UNL     1       5.133   1.513   0.531  0.00  0.00    +0.032 C 
ATOM      6  C   UNL     1       3.738   2.070   0.380  0.00  0.00    +0.113 C 
ATOM      7  N   UNL     1       2.704   1.086   0.154  0.00  0.00    -0.312 N 
ATOM      8  C   UNL     1       2.784   0.446  -1.077  0.00  0.00    +0.052 A 
ATOM      9  C   UNL     1       1.840   0.691  -2.067  0.00  0.00    +0.025 A 
ATOM     10  C   UNL     1       1.956   0.054  -3.290  0.00  0.00    +0.002 A 
ATOM     11  C   UNL     1       3.002  -0.818  -3.530  0.00  0.00    +0.002 A 
ATOM     12  C   UNL     1       3.940  -1.069  -2.543  0.00  0.00    +0.025 A 
ATOM     13  C   UNL     1       3.816  -0.438  -1.316  0.00  0.00    +0.052 A 
ATOM     14  N   UNL     1       4.700  -0.689  -0.270  0.00  0.00    -0.316 N 
ATOM     15  C   UNL     1       6.073   2.448   1.026  0.00  0.00    +0.163 C 
ATOM     16  O   UNL     1       5.698   3.576   1.277  0.00  0.00    -0.292 OA
ATOM     17  C   UNL     1       7.513   2.100   1.254  0.00  0.00    +0.086 C 
ATOM     18  C   UNL     1       9.343   0.523   0.588  0.00  0.00    +0.011 C 
ATOM     19  H   UNL     1       4.729  -1.583   0.104  0.00  0.00    +0.152 HD
ENDROOT
BRANCH   6  20
ATOM     20  C   UNL     1       3.391   2.850   1.649  0.00  0.00    +0.018 C 
ATOM     21  C   UNL     1       4.557   3.775   2.021  0.00  0.00    +0.010 C 
ATOM     22  C   UNL     1       4.115   4.668   3.182  0.00  0.00    +0.027 C 
ATOM     23  C   UNL     1       3.501   3.835   4.269  0.00  0.00    -0.031 C 
ATOM     24  C   UNL     1       3.082   2.622   4.104  0.00  0.00    -0.031 C 
ATOM     25  C   UNL     1       3.160   1.874   2.805  0.00  0.00    +0.032 C 
ENDBRANCH   6  20
BRANCH   7  26
ATOM     26  C   UNL     1       1.371   1.668   0.359  0.00  0.00    +0.201 C 
BRANCH  26  27
ATOM     27  C   UNL     1       0.364   0.562   0.543  0.00  0.00    +0.235 C 
ATOM     28  O   UNL     1       0.721  -0.596   0.507  0.00  0.00    -0.274 OA
ATOM     29  N   UNL     1      -0.935   0.860   0.743  0.00  0.00    -0.283 N 
ATOM     30  H   UNL     1      -1.214   1.786   0.821  0.00  0.00    +0.155 HD
BRANCH  29  31
ATOM     31  C   UNL     1      -1.883  -0.166   0.837  0.00  0.00    +0.052 A 
ATOM     32  C   UNL     1      -1.498  -1.432   1.258  0.00  0.00    +0.025 A 
ATOM     33  C   UNL     1      -2.434  -2.442   1.350  0.00  0.00    +0.002 A 
ATOM     34  C   UNL     1      -3.755  -2.195   1.024  0.00  0.00    +0.002 A 
ATOM     35  C   UNL     1      -4.143  -0.936   0.604  0.00  0.00    +0.022 A 
ATOM     36  C   UNL     1      -3.212   0.081   0.515  0.00  0.00    +0.062 A 
ATOM     37 CL   UNL     1      -3.700   1.664  -0.005  0.00  0.00    -0.082 Cl
ENDBRANCH  29  31
ENDBRANCH  26  27
ENDBRANCH   7  26
TORSDOF 4
