REMARK  Name = ZINC36637831
REMARK  9 active torsions:
REMARK  status: ('A' for Active; 'I' for Inactive)
REMARK    1  A    between atoms: C_1  and  C_2
REMARK    2  A    between atoms: C_2  and  N_3
REMARK    3  A    between atoms: N_3  and  C_4
REMARK    4  A    between atoms: N_3  and  C_6
REMARK    5  A    between atoms: C_4  and  C_5
REMARK    6  A    between atoms: C_6  and  C_7
REMARK    7  A    between atoms: C_7  and  N_8
REMARK    8  A    between atoms: C_19  and  C_21
REMARK    9  A    between atoms: C_23  and  C_31
REMARK                            x       y       z     vdW  Elec       q    Type
REMARK                         _______ _______ _______ _____ _____    ______ ____
ROOT
ATOM      1  N   UNL     1      -2.682  -4.026   0.330  0.00  0.00    -0.248 N 
ATOM      2  C   UNL     1      -2.757  -4.627   1.574  0.00  0.00    +0.168 A 
ATOM      3  N   UNL     1      -2.788  -4.064   2.760  0.00  0.00    -0.224 NA
ATOM      4  C   UNL     1      -2.864  -4.781   3.902  0.00  0.00    +0.080 A 
ATOM      5  C   UNL     1      -2.904  -4.303   5.232  0.00  0.00    +0.030 A 
ATOM      6  C   UNL     1      -2.980  -5.173   6.288  0.00  0.00    +0.022 A 
ATOM      7  C   UNL     1      -3.020  -6.547   6.093  0.00  0.00    +0.042 A 
ATOM      8  C   UNL     1      -2.983  -7.050   4.805  0.00  0.00    +0.037 A 
ATOM      9  C   UNL     1      -2.907  -6.185   3.742  0.00  0.00    +0.042 A 
ATOM     10  S   UNL     1      -2.844  -6.366   1.976  0.00  0.00    -0.052 S 
ATOM     11 CL   UNL     1      -3.116  -7.623   7.453  0.00  0.00    -0.084 Cl
ATOM     12  C   UNL     1      -2.667  -4.784  -0.785  0.00  0.00    +0.253 C 
ATOM     13  O   UNL     1      -2.809  -5.988  -0.703  0.00  0.00    -0.270 OA
ENDROOT
BRANCH  12  14
ATOM     14  C   UNL     1      -2.479  -4.150  -2.107  0.00  0.00    +0.048 A 
ATOM     15  C   UNL     1      -3.333  -3.154  -2.557  0.00  0.00    +0.042 A 
ATOM     16  C   UNL     1      -3.116  -2.579  -3.822  0.00  0.00    +0.079 A 
ATOM     17  N   UNL     1      -2.122  -2.954  -4.604  0.00  0.00    -0.246 NA
ATOM     18  C   UNL     1      -1.255  -3.904  -4.249  0.00  0.00    +0.072 A 
ATOM     19  C   UNL     1      -1.381  -4.545  -2.991  0.00  0.00    +0.013 A 
ATOM     20  C   UNL     1      -0.466  -5.536  -2.620  0.00  0.00    +0.011 A 
ATOM     21  C   UNL     1       0.543  -5.874  -3.473  0.00  0.00    +0.001 A 
ATOM     22  C   UNL     1       0.675  -5.244  -4.708  0.00  0.00    +0.002 A 
ATOM     23  C   UNL     1      -0.205  -4.284  -5.105  0.00  0.00    +0.028 A 
BRANCH  16  24
ATOM     24  C   UNL     1      -4.031  -1.520  -4.290  0.00  0.00    +0.038 A 
ATOM     25  C   UNL     1      -4.075  -0.894  -5.508  0.00  0.00    +0.017 A 
ATOM     26  C   UNL     1      -5.029   0.076  -5.719  0.00  0.00    +0.008 A 
ATOM     27  C   UNL     1      -5.894   0.382  -4.717  0.00  0.00    +0.046 A 
ATOM     28  S   UNL     1      -5.373  -0.728  -3.419  0.00  0.00    -0.095 S 
ENDBRANCH  16  24
ENDBRANCH  12  14
BRANCH   1  29
ATOM     29  C   UNL     1      -2.619  -2.566   0.224  0.00  0.00    +0.097 C 
BRANCH  29  30
ATOM     30  C   UNL     1      -1.158  -2.126   0.104  0.00  0.00    -0.059 C 
BRANCH  30  31
ATOM     31  N   UNL     1      -1.101  -0.677  -0.129  0.00  0.00    +0.380 N 
ATOM     32  H   UNL     1      -1.649  -0.445  -0.943  0.00  0.00    -0.082 HD
BRANCH  31  34
ATOM     33  C   UNL     1      -1.695   1.530   0.751  0.00  0.00    -0.017 C 
ATOM     34  C   UNL     1      -1.639   0.029   1.042  0.00  0.00    -0.082 C 
ENDBRANCH  31  34
BRANCH  31  35
ATOM     35  C   UNL     1       0.294  -0.271  -0.346  0.00  0.00    -0.082 C 
ATOM     36  C   UNL     1       0.816  -0.908  -1.636  0.00  0.00    -0.017 C 
ENDBRANCH  31  35
ENDBRANCH  30  31
ENDBRANCH  29  30
ENDBRANCH   1  29
TORSDOF 7
