REMARK  Name = ZINC03245890
REMARK  8 active torsions:
REMARK  status: ('A' for Active; 'I' for Inactive)
REMARK    1  A    between atoms: C_1  and  C_2
REMARK    2  A    between atoms: C_6  and  C_36
REMARK    3  A    between atoms: C_7  and  N_8
REMARK    4  A    between atoms: C_9  and  C_11
REMARK    5  A    between atoms: C_11  and  C_12
REMARK    6  A    between atoms: N_16  and  C_26
REMARK    7  A    between atoms: N_18  and  C_19
REMARK    8  A    between atoms: C_26  and  C_27
REMARK                            x       y       z     vdW  Elec       q    Type
REMARK                         _______ _______ _______ _____ _____    ______ ____
ROOT
ATOM      1  C   UNL     1       1.182   6.037   2.921  0.00  0.00    +0.149 C 
ATOM      2  C   UNL     1       1.090   5.553   1.482  0.00  0.00    +0.235 C 
ATOM      3  O   UNL     1       0.310   4.689   1.142  0.00  0.00    -0.274 OA
ATOM      4  N   UNL     1       1.917   6.129   0.627  0.00  0.00    -0.245 N 
ATOM      5  C   UNL     1       2.801   7.116   1.007  0.00  0.00    +0.164 C 
ATOM      6  N   UNL     1       3.662   7.765   0.258  0.00  0.00    -0.226 NA
ATOM      7  S   UNL     1       2.501   7.304   2.758  0.00  0.00    -0.077 S 
ENDROOT
BRANCH   6   8
ATOM      8  C   UNL     1       4.468   8.722   0.814  0.00  0.00    +0.067 A 
ATOM      9  C   UNL     1       3.933   9.667   1.692  0.00  0.00    +0.028 A 
ATOM     10  C   UNL     1       4.751  10.625   2.253  0.00  0.00    +0.002 A 
ATOM     11  C   UNL     1       6.098  10.659   1.938  0.00  0.00    +0.000 A 
ATOM     12  C   UNL     1       6.635   9.729   1.065  0.00  0.00    +0.002 A 
ATOM     13  C   UNL     1       5.829   8.762   0.501  0.00  0.00    +0.028 A 
ENDBRANCH   6   8
BRANCH   1  14
ATOM     14  C   UNL     1      -0.137   6.664   3.376  0.00  0.00    +0.120 C 
BRANCH  14  16
ATOM     15  N   UNL     1      -1.026   7.788   5.392  0.00  0.00    -0.285 N 
ATOM     16  C   UNL     1       0.015   7.190   4.780  0.00  0.00    +0.219 C 
ATOM     17  O   UNL     1       1.074   7.073   5.360  0.00  0.00    -0.275 OA
ATOM     18  H   UNL     1      -1.856   7.929   4.910  0.00  0.00    +0.155 HD
BRANCH  15  25
ATOM     19  C   UNL     1      -0.131   5.900   7.323  0.00  0.00    +0.045 C 
ATOM     20  C   UNL     1      -0.476   7.319   7.696  0.00  0.00    -0.029 A 
ATOM     21  C   UNL     1      -0.356   7.737   9.007  0.00  0.00    +0.005 A 
ATOM     22  C   UNL     1      -0.678   9.037   9.351  0.00  0.00    +0.001 A 
ATOM     23  C   UNL     1      -1.115   9.924   8.384  0.00  0.00    +0.005 A 
ATOM     24  C   UNL     1      -1.231   9.513   7.070  0.00  0.00    -0.029 A 
ATOM     25  C   UNL     1      -0.909   8.208   6.721  0.00  0.00    +0.039 A 
ATOM     26  C   UNL     1      -1.707  10.480   6.017  0.00  0.00    +0.045 C 
ENDBRANCH  15  25
ENDBRANCH  14  16
ENDBRANCH   1  14
BRANCH   4  27
ATOM     27  C   UNL     1       1.887   5.709  -0.776  0.00  0.00    +0.150 C 
BRANCH  27  28
ATOM     28  C   UNL     1       2.860   4.577  -0.982  0.00  0.00    -0.026 A 
ATOM     29  C   UNL     1       4.170   4.848  -1.331  0.00  0.00    +0.009 A 
ATOM     30  C   UNL     1       5.066   3.813  -1.521  0.00  0.00    +0.050 A 
ATOM     31  C   UNL     1       4.653   2.500  -1.362  0.00  0.00    +0.166 A 
ATOM     32  C   UNL     1       3.333   2.227  -1.011  0.00  0.00    +0.167 A 
ATOM     33  C   UNL     1       2.440   3.269  -0.822  0.00  0.00    +0.054 A 
ATOM     34  O   UNL     1       3.177   0.874  -0.917  0.00  0.00    -0.453 OA
ATOM     35  C   UNL     1       4.511   0.340  -0.815  0.00  0.00    +0.466 C 
ATOM     36  O   UNL     1       5.324   1.318  -1.489  0.00  0.00    -0.453 OA
ENDBRANCH  27  28
ENDBRANCH   4  27
TORSDOF 6
