REMARK  Name = ZINC35164554
REMARK  16 active torsions:
REMARK  status: ('A' for Active; 'I' for Inactive)
REMARK    1  A    between atoms: C_1  and  C_2
REMARK    2  A    between atoms: C_2  and  C_3
REMARK    3  A    between atoms: C_3  and  C_4
REMARK    4  A    between atoms: C_4  and  N_5
REMARK    5  A    between atoms: N_5  and  C_6
REMARK    6  A    between atoms: N_5  and  C_10
REMARK    7  A    between atoms: C_6  and  C_7
REMARK    8  A    between atoms: C_7  and  C_8
REMARK    9  A    between atoms: C_8  and  C_9
REMARK   10  A    between atoms: C_10  and  C_11
REMARK   11  A    between atoms: C_11  and  C_12
REMARK   12  A    between atoms: C_12  and  N_13
REMARK   13  A    between atoms: C_14  and  C_30
REMARK   14  A    between atoms: C_16  and  C_21
REMARK   15  A    between atoms: C_21  and  C_23
REMARK   16  A    between atoms: C_35  and  N_36
REMARK                            x       y       z     vdW  Elec       q    Type
REMARK                         _______ _______ _______ _____ _____    ______ ____
ROOT
ATOM      1  N   UNL     1      -2.177  -5.465  -2.895  0.00  0.00    -0.284 N 
ATOM      2  C   UNL     1      -3.202  -5.648  -1.860  0.00  0.00    +0.147 C 
ATOM      3  C   UNL     1      -4.501  -5.893  -2.593  0.00  0.00    +0.076 C 
ATOM      4  C   UNL     1      -4.218  -5.849  -3.916  0.00  0.00    +0.249 C 
ATOM      5  C   UNL     1      -2.776  -5.577  -4.095  0.00  0.00    +0.288 C 
ATOM      6  O   UNL     1      -2.213  -5.474  -5.167  0.00  0.00    -0.266 OA
ATOM      7  O   UNL     1      -5.113  -6.022  -4.915  0.00  0.00    -0.282 OA
ENDROOT
BRANCH   2   8
ATOM      8  C   UNL     1      -3.310  -4.407  -1.012  0.00  0.00    +0.008 A 
ATOM      9  C   UNL     1      -3.036  -3.168  -1.562  0.00  0.00    +0.008 A 
ATOM     10  C   UNL     1      -3.135  -2.030  -0.784  0.00  0.00    +0.000 A 
ATOM     11  C   UNL     1      -3.509  -2.130   0.543  0.00  0.00    +0.002 A 
ATOM     12  C   UNL     1      -3.784  -3.368   1.092  0.00  0.00    +0.033 A 
ATOM     13  C   UNL     1      -3.689  -4.506   0.313  0.00  0.00    +0.131 A 
BRANCH  13  14
ATOM     14  N   UNL     1      -3.989  -5.832   0.899  0.00  0.00    +0.057 N 
ATOM     15  O   UNL     1      -4.388  -5.913   2.038  0.00  0.00    -0.126 OA
ATOM     16  O   UNL     1      -3.835  -6.833   0.240  0.00  0.00    -0.126 OA
ENDBRANCH  13  14
ENDBRANCH   2   8
BRANCH   3  17
ATOM     17  C   UNL     1      -5.814  -6.133  -1.987  0.00  0.00    +0.195 C 
ATOM     18  O   UNL     1      -6.467  -5.199  -1.560  0.00  0.00    -0.287 OA
BRANCH  17  19
ATOM     19  C   UNL     1      -6.345  -7.509  -1.895  0.00  0.00    +0.022 A 
ATOM     20  C   UNL     1      -5.553  -8.594  -2.280  0.00  0.00    +0.013 A 
ATOM     21  C   UNL     1      -6.054  -9.875  -2.191  0.00  0.00    +0.021 A 
ATOM     22  C   UNL     1      -7.340 -10.089  -1.722  0.00  0.00    +0.041 A 
ATOM     23  C   UNL     1      -8.130  -9.017  -1.338  0.00  0.00    +0.021 A 
ATOM     24  C   UNL     1      -7.638  -7.731  -1.417  0.00  0.00    +0.013 A 
ATOM     25 CL   UNL     1      -7.963 -11.705  -1.614  0.00  0.00    -0.084 Cl
ENDBRANCH  17  19
ENDBRANCH   3  17
BRANCH   1  26
ATOM     26  C   UNL     1      -0.755  -5.199  -2.662  0.00  0.00    +0.107 C 
BRANCH  26  27
ATOM     27  C   UNL     1      -0.537  -3.693  -2.501  0.00  0.00    +0.000 C 
BRANCH  27  28
ATOM     28  C   UNL     1       0.962  -3.403  -2.401  0.00  0.00    -0.077 C 
BRANCH  28  29
ATOM     29  N   UNL     1       1.171  -1.957  -2.246  0.00  0.00    +0.380 N 
ATOM     30  H   UNL     1       0.716  -1.468  -3.002  0.00  0.00    -0.082 HD
BRANCH  29  31
ATOM     31  C   UNL     1       0.604  -1.515  -0.965  0.00  0.00    -0.079 C 
BRANCH  31  32
ATOM     32  C   UNL     1       0.698   0.009  -0.865  0.00  0.00    -0.019 C 
BRANCH  32  34
ATOM     33  C   UNL     1       0.088   2.005   0.509  0.00  0.00    +0.004 C 
ATOM     34  C   UNL     1      -0.007   0.481   0.408  0.00  0.00    -0.005 C 
ENDBRANCH  32  34
ENDBRANCH  31  32
ENDBRANCH  29  31
BRANCH  29  35
ATOM     35  C   UNL     1       2.610  -1.665  -2.271  0.00  0.00    -0.079 C 
BRANCH  35  36
ATOM     36  C   UNL     1       3.175  -1.998  -3.654  0.00  0.00    -0.019 C 
BRANCH  36  37
ATOM     37  C   UNL     1       4.643  -1.574  -3.721  0.00  0.00    -0.005 C 
ATOM     38  C   UNL     1       5.207  -1.906  -5.104  0.00  0.00    +0.004 C 
ENDBRANCH  36  37
ENDBRANCH  35  36
ENDBRANCH  29  35
ENDBRANCH  28  29
ENDBRANCH  27  28
ENDBRANCH  26  27
ENDBRANCH   1  26
TORSDOF 14
