REMARK  Name = ZINC15673928
REMARK  8 active torsions:
REMARK  status: ('A' for Active; 'I' for Inactive)
REMARK    1  A    between atoms: C_1  and  C_2
REMARK    2  A    between atoms: C_5  and  N_9
REMARK    3  A    between atoms: C_10  and  C_33
REMARK    4  A    between atoms: C_11  and  C_15
REMARK    5  A    between atoms: C_12  and  C_14
REMARK    6  A    between atoms: C_18  and  N_57
REMARK    7  A    between atoms: C_22  and  C_23
REMARK    8  A    between atoms: C_22  and  N_57
REMARK                            x       y       z     vdW  Elec       q    Type
REMARK                         _______ _______ _______ _____ _____    ______ ____
ROOT
ATOM      1  C   UNL     1       6.022   0.532  -0.483  0.00  0.00    +0.044 C 
ATOM      2  C   UNL     1       6.805   0.505   0.850  0.00  0.00    +0.000 C 
ATOM      3  C   UNL     1       7.044  -1.012   1.034  0.00  0.00    -0.047 C 
ATOM      4  C   UNL     1       6.982  -1.582  -0.364  0.00  0.00    -0.046 C 
ATOM      5  C   UNL     1       6.425  -0.739  -1.194  0.00  0.00    -0.025 C 
ENDROOT
BRANCH   1   8
ATOM      6  N   UNL     1       2.452   1.175  -0.089  0.00  0.00    -0.236 N 
ATOM      7  C   UNL     1       3.692   1.568  -0.459  0.00  0.00    +0.046 A 
ATOM      8  C   UNL     1       4.538   0.539  -0.220  0.00  0.00    +0.003 A 
ATOM      9  C   UNL     1       3.792  -0.517   0.314  0.00  0.00    +0.064 A 
ATOM     10  N   UNL     1       2.543  -0.135   0.398  0.00  0.00    -0.171 NA
ATOM     11  C   UNL     1       4.334  -1.861   0.727  0.00  0.00    +0.068 C 
ATOM     12  C   UNL     1       4.065   2.910  -1.035  0.00  0.00    +0.066 C 
BRANCH   6  17
ATOM     13  C   UNL     1      -2.278   4.296  -0.430  0.00  0.00    +0.045 C 
ATOM     14  C   UNL     1      -1.022   3.467  -0.339  0.00  0.00    -0.032 A 
ATOM     15  C   UNL     1       0.184   4.073  -0.039  0.00  0.00    +0.007 A 
ATOM     16  C   UNL     1       1.337   3.316   0.045  0.00  0.00    +0.028 A 
ATOM     17  C   UNL     1       1.284   1.945  -0.173  0.00  0.00    +0.067 A 
ATOM     18  C   UNL     1       0.072   1.339  -0.474  0.00  0.00    +0.048 A 
ATOM     19  C   UNL     1      -1.078   2.103  -0.562  0.00  0.00    +0.046 A 
ATOM     20 CL   UNL     1      -2.593   1.347  -0.946  0.00  0.00    -0.083 Cl
ENDBRANCH   6  17
ENDBRANCH   1   8
BRANCH   3  21
ATOM     21  N   UNL     1       8.374  -1.248   1.626  0.00  0.00    +0.386 N 
ATOM     22  H   UNL     1       8.589  -0.491   2.287  0.00  0.00    -0.085 HD
ATOM     23  H   UNL     1       9.079  -1.261   0.881  0.00  0.00    -0.085 HD
BRANCH  21  24
ATOM     24  C   UNL     1       8.395  -2.538   2.340  0.00  0.00    -0.044 C 
BRANCH  24  25
ATOM     25  C   UNL     1       9.763  -2.751   2.934  0.00  0.00    -0.039 A 
ATOM     26  C   UNL     1      10.743  -3.516   2.428  0.00  0.00    +0.085 A 
ATOM     27  N   UNL     1      11.842  -3.466   3.242  0.00  0.00    -0.360 N 
ATOM     28  H   UNL     1      12.675  -3.937   3.083  0.00  0.00    +0.165 HD
ATOM     29  C   UNL     1      11.590  -2.646   4.319  0.00  0.00    +0.047 A 
ATOM     30  C   UNL     1      10.279  -2.158   4.171  0.00  0.00    +0.001 A 
ATOM     31  C   UNL     1       9.743  -1.298   5.131  0.00  0.00    +0.010 A 
ATOM     32  C   UNL     1      10.501  -0.924   6.205  0.00  0.00    +0.001 A 
ATOM     33  C   UNL     1      11.796  -1.399   6.353  0.00  0.00    +0.002 A 
ATOM     34  C   UNL     1      12.343  -2.253   5.420  0.00  0.00    +0.026 A 
ENDBRANCH  24  25
ENDBRANCH  21  24
ENDBRANCH   3  21
TORSDOF 5
