REMARK  Name = ZINC24214746
REMARK  9 active torsions:
REMARK  status: ('A' for Active; 'I' for Inactive)
REMARK    1  A    between atoms: C_1  and  C_2
REMARK    2  A    between atoms: C_5  and  N_33
REMARK    3  A    between atoms: C_7  and  N_8
REMARK    4  A    between atoms: C_9  and  C_11
REMARK    5  A    between atoms: C_11  and  N_12
REMARK    6  A    between atoms: C_18  and  C_20
REMARK    7  A    between atoms: C_21  and  C_32
REMARK    8  A    between atoms: N_23  and  C_26
REMARK    9  A    between atoms: C_24  and  C_25
REMARK                            x       y       z     vdW  Elec       q    Type
REMARK                         _______ _______ _______ _____ _____    ______ ____
ROOT
ATOM      1  N   UNL     1       1.124   3.200   0.411  0.00  0.00    +0.397 N 
ATOM      2  C   UNL     1       0.150   4.179  -0.099  0.00  0.00    -0.058 C 
ATOM      3  C   UNL     1      -1.229   3.844   0.472  0.00  0.00    +0.085 C 
ATOM      4  N   UNL     1      -1.529   2.431   0.256  0.00  0.00    -0.318 N 
ATOM      5  C   UNL     1      -0.587   1.522  -0.016  0.00  0.00    +0.204 C 
ATOM      6  O   UNL     1      -0.918   0.362  -0.147  0.00  0.00    -0.277 OA
ATOM      7  C   UNL     1       0.865   1.877  -0.173  0.00  0.00    +0.054 C 
ATOM      8  H   UNL     1      -2.568   2.074   0.313  0.00  0.00    +0.149 HD
ATOM      9  H   UNL     1       1.009   3.127   1.502  0.00  0.00    -0.079 HD
ENDROOT
BRANCH   7  10
ATOM     10  C   UNL     1       1.711   0.846   0.529  0.00  0.00    -0.009 A 
ATOM     11  C   UNL     1       1.885   0.728   1.913  0.00  0.00    +0.063 A 
ATOM     12  N   UNL     1       2.686  -0.282   2.140  0.00  0.00    -0.171 NA
ATOM     13  N   UNL     1       3.047  -0.841   0.907  0.00  0.00    -0.237 N 
ATOM     14  C   UNL     1       2.431  -0.133  -0.066  0.00  0.00    +0.044 A 
ATOM     15  C   UNL     1       2.531  -0.386  -1.548  0.00  0.00    +0.066 C 
ATOM     16  C   UNL     1       1.259   1.612   2.960  0.00  0.00    +0.068 C 
BRANCH  13  17
ATOM     17  C   UNL     1       3.893  -1.942   0.717  0.00  0.00    +0.066 A 
ATOM     18  C   UNL     1       3.845  -3.016   1.596  0.00  0.00    +0.028 A 
ATOM     19  C   UNL     1       4.677  -4.102   1.403  0.00  0.00    +0.002 A 
ATOM     20  C   UNL     1       5.564  -4.115   0.342  0.00  0.00    +0.000 A 
ATOM     21  C   UNL     1       5.617  -3.045  -0.532  0.00  0.00    +0.002 A 
ATOM     22  C   UNL     1       4.784  -1.959  -0.347  0.00  0.00    +0.028 A 
ENDBRANCH  13  17
ENDBRANCH   7  10
BRANCH   1  23
ATOM     23  C   UNL     1       2.500   3.635   0.139  0.00  0.00    +0.020 C 
BRANCH  23  25
ATOM     24  N   UNL     1       3.835   4.341  -1.820  0.00  0.00    -0.287 N 
ATOM     25  C   UNL     1       2.678   3.841  -1.343  0.00  0.00    +0.201 C 
ATOM     26  O   UNL     1       1.780   3.557  -2.107  0.00  0.00    -0.278 OA
ATOM     27  H   UNL     1       4.672   4.539  -1.135  0.00  0.00    +0.155 HD
BRANCH  24  34
ATOM     28  C   UNL     1       5.669   6.365  -2.618  0.00  0.00    +0.045 C 
ATOM     29  C   UNL     1       4.855   5.587  -3.620  0.00  0.00    -0.029 A 
ATOM     30  C   UNL     1       4.988   5.848  -4.970  0.00  0.00    +0.007 A 
ATOM     31  C   UNL     1       4.242   5.134  -5.890  0.00  0.00    +0.033 A 
ATOM     32  C   UNL     1       3.361   4.157  -5.462  0.00  0.00    +0.128 A 
ATOM     33  C   UNL     1       3.228   3.888  -4.114  0.00  0.00    +0.056 A 
ATOM     34  C   UNL     1       3.972   4.607  -3.187  0.00  0.00    +0.038 A 
BRANCH  32  35
ATOM     35  N   UNL     1       2.564   3.396  -6.450  0.00  0.00    +0.056 N 
ATOM     36  O   UNL     1       2.685   3.629  -7.639  0.00  0.00    -0.126 OA
ATOM     37  O   UNL     1       1.789   2.535  -6.074  0.00  0.00    -0.126 OA
ENDBRANCH  32  35
ENDBRANCH  24  34
ENDBRANCH  23  25
ENDBRANCH   1  23
TORSDOF 6
