REMARK  Name = ZINC12279617
REMARK  10 active torsions:
REMARK  status: ('A' for Active; 'I' for Inactive)
REMARK    1  A    between atoms: C_1  and  C_2
REMARK    2  A    between atoms: C_6  and  C_7
REMARK    3  A    between atoms: N_9  and  C_10
REMARK    4  A    between atoms: C_10  and  C_11
REMARK    5  A    between atoms: C_13  and  C_31
REMARK    6  A    between atoms: C_15  and  N_17
REMARK    7  A    between atoms: N_17  and  S_18
REMARK    8  A    between atoms: S_18  and  C_21
REMARK    9  A    between atoms: C_31  and  O_33
REMARK   10  A    between atoms: O_33  and  C_34
REMARK                            x       y       z     vdW  Elec       q    Type
REMARK                         _______ _______ _______ _____ _____    ______ ____
ROOT
ATOM      1  C   UNL     1      -3.327   1.725   0.026  0.00  0.00    -0.028 A 
ATOM      2  C   UNL     1      -2.066   1.173   0.121  0.00  0.00    +0.020 A 
ATOM      3  C   UNL     1      -0.940   1.999   0.115  0.00  0.00    +0.061 A 
ATOM      4  C   UNL     1      -1.097   3.383   0.018  0.00  0.00    +0.039 A 
ATOM      5  C   UNL     1      -2.368   3.926  -0.082  0.00  0.00    +0.049 A 
ATOM      6  C   UNL     1      -3.482   3.095  -0.075  0.00  0.00    +0.029 A 
ENDROOT
BRANCH   5   7
ATOM      7  N   UNL     1      -2.530   5.310  -0.184  0.00  0.00    -0.216 N 
ATOM      8  H   UNL     1      -3.136   5.680  -0.846  0.00  0.00    +0.174 HD
BRANCH   7   9
ATOM      9  S   UNL     1      -1.689   6.319   0.824  0.00  0.00    +0.074 S 
ATOM     10  O   UNL     1      -0.320   5.952   0.716  0.00  0.00    -0.150 OA
ATOM     11  O   UNL     1      -2.148   7.637   0.555  0.00  0.00    -0.150 OA
BRANCH   9  12
ATOM     12  C   UNL     1      -2.184   5.940   2.472  0.00  0.00    +0.134 A 
ATOM     13  C   UNL     1      -1.282   5.434   3.357  0.00  0.00    +0.031 A 
ATOM     14  C   UNL     1      -1.651   5.127   4.665  0.00  0.00    +0.003 A 
ATOM     15  C   UNL     1      -2.928   5.325   5.094  0.00  0.00    +0.010 A 
ATOM     16  C   UNL     1      -3.885   5.846   4.209  0.00  0.00    +0.002 A 
ATOM     17  C   UNL     1      -3.510   6.164   2.880  0.00  0.00    +0.097 A 
ATOM     18  N   UNL     1      -4.419   6.655   2.031  0.00  0.00    -0.253 NA
ATOM     19  C   UNL     1      -5.658   6.861   2.405  0.00  0.00    +0.111 A 
ATOM     20  C   UNL     1      -6.092   6.575   3.698  0.00  0.00    +0.020 A 
ATOM     21  C   UNL     1      -5.215   6.066   4.614  0.00  0.00    +0.011 A 
ENDBRANCH   9  12
ENDBRANCH   7   9
ENDBRANCH   5   7
BRANCH   3  22
ATOM     22  C   UNL     1       0.411   1.411   0.216  0.00  0.00    +0.339 C 
ATOM     23  O   UNL     1       0.551   0.205   0.212  0.00  0.00    -0.245 OA
BRANCH  22  24
ATOM     24  O   UNL     1       1.490   2.214   0.307  0.00  0.00    -0.464 OA
ATOM     25  C   UNL     1       2.775   1.570   0.511  0.00  0.00    +0.280 C 
ENDBRANCH  22  24
ENDBRANCH   3  22
BRANCH   1  26
ATOM     26  C   UNL     1      -4.540   0.831   0.033  0.00  0.00    +0.140 C 
BRANCH  26  29
ATOM     27  C   UNL     1      -6.073  -0.134   1.664  0.00  0.00    +0.251 C 
ATOM     28  O   UNL     1      -6.668  -0.666   0.746  0.00  0.00    -0.270 OA
ATOM     29  N   UNL     1      -4.995   0.636   1.412  0.00  0.00    -0.307 N 
ATOM     30  H   UNL     1      -4.521   1.060   2.144  0.00  0.00    +0.149 HD
BRANCH  27  36
ATOM     31  C   UNL     1      -8.508  -1.821   2.574  0.00  0.00    +0.045 C 
ATOM     32  C   UNL     1      -7.603  -1.067   3.513  0.00  0.00    -0.031 A 
ATOM     33  C   UNL     1      -7.804  -1.084   4.871  0.00  0.00    +0.011 A 
ATOM     34  C   UNL     1      -6.964  -0.382   5.675  0.00  0.00    +0.046 A 
ATOM     35  S   UNL     1      -5.847   0.329   4.556  0.00  0.00    -0.092 S 
ATOM     36  C   UNL     1      -6.528  -0.329   3.044  0.00  0.00    +0.077 A 
ENDBRANCH  27  36
ENDBRANCH  26  29
ENDBRANCH   1  26
TORSDOF 8
