REMARK  Name = ZINC38508791
REMARK  10 active torsions:
REMARK  status: ('A' for Active; 'I' for Inactive)
REMARK    1  A    between atoms: C_1  and  C_2
REMARK    2  A    between atoms: C_2  and  C_3
REMARK    3  A    between atoms: C_2  and  N_4
REMARK    4  A    between atoms: C_7  and  C_9
REMARK    5  A    between atoms: N_11  and  C_12
REMARK    6  A    between atoms: C_12  and  C_13
REMARK    7  A    between atoms: C_13  and  C_14
REMARK    8  A    between atoms: C_14  and  N_15
REMARK    9  A    between atoms: N_15  and  C_16
REMARK   10  A    between atoms: N_15  and  C_17
REMARK                            x       y       z     vdW  Elec       q    Type
REMARK                         _______ _______ _______ _____ _____    ______ ____
ROOT
ATOM      1  C   UNL     1      -4.237  -1.963  -1.620  0.00  0.00    +0.272 C 
ATOM      2  O   UNL     1      -5.287  -2.388  -1.181  0.00  0.00    -0.268 OA
ATOM      3  N   UNL     1      -4.120  -1.681  -2.933  0.00  0.00    -0.245 N 
ATOM      4  C   UNL     1      -5.220  -1.798  -3.767  0.00  0.00    +0.168 A 
ATOM      5  N   UNL     1      -5.301  -1.576  -5.057  0.00  0.00    -0.221 NA
ATOM      6  C   UNL     1      -6.452  -1.732  -5.750  0.00  0.00    +0.116 A 
ATOM      7  C   UNL     1      -6.673  -1.528  -7.133  0.00  0.00    +0.152 A 
ATOM      8  C   UNL     1      -7.914  -1.732  -7.682  0.00  0.00    +0.079 A 
ATOM      9  C   UNL     1      -8.991  -2.144  -6.907  0.00  0.00    +0.127 A 
ATOM     10  C   UNL     1      -8.808  -2.353  -5.551  0.00  0.00    +0.055 A 
ATOM     11  C   UNL     1      -7.569  -2.150  -4.994  0.00  0.00    +0.046 A 
ATOM     12  S   UNL     1      -6.888  -2.294  -3.359  0.00  0.00    -0.052 S 
ATOM     13  F   UNL     1     -10.203  -2.337  -7.471  0.00  0.00    -0.205 F 
ATOM     14  F   UNL     1      -5.651  -1.127  -7.921  0.00  0.00    -0.203 F 
ENDROOT
BRANCH   1  18
ATOM     15  N   UNL     1      -1.117  -1.319  -0.026  0.00  0.00    -0.268 N 
ATOM     16  C   UNL     1      -1.829  -1.599   1.087  0.00  0.00    +0.109 A 
ATOM     17  C   UNL     1      -3.093  -1.883   0.694  0.00  0.00    +0.054 A 
ATOM     18  C   UNL     1      -3.088  -1.754  -0.715  0.00  0.00    +0.148 A 
ATOM     19  N   UNL     1      -1.866  -1.408  -1.066  0.00  0.00    -0.166 NA
BRANCH  15  21
ATOM     20  C   UNL     1       0.451   0.543   0.207  0.00  0.00    +0.032 C 
ATOM     21  C   UNL     1       0.303  -0.959  -0.044  0.00  0.00    +0.101 C 
ATOM     22  C   UNL     1       1.039  -1.734   1.050  0.00  0.00    +0.032 C 
ENDBRANCH  15  21
ENDBRANCH   1  18
BRANCH   3  23
ATOM     23  C   UNL     1      -2.829  -1.253  -3.478  0.00  0.00    +0.114 C 
BRANCH  23  24
ATOM     24  C   UNL     1      -1.970  -2.482  -3.781  0.00  0.00    +0.001 C 
BRANCH  24  25
ATOM     25  C   UNL     1      -0.622  -2.035  -4.350  0.00  0.00    -0.078 C 
BRANCH  25  26
ATOM     26  N   UNL     1       0.203  -3.215  -4.640  0.00  0.00    +0.376 N 
ATOM     27  C   UNL     1      -0.428  -4.003  -5.708  0.00  0.00    -0.097 C 
ATOM     28  C   UNL     1       1.538  -2.784  -5.074  0.00  0.00    -0.097 C 
ATOM     29  H   UNL     1       0.285  -3.781  -3.809  0.00  0.00    -0.083 HD
ENDBRANCH  25  26
ENDBRANCH  24  25
ENDBRANCH  23  24
ENDBRANCH   3  23
TORSDOF 6
