REMARK  Name = ZINC20885144
REMARK  6 active torsions:
REMARK  status: ('A' for Active; 'I' for Inactive)
REMARK    1  A    between atoms: C_1  and  C_2
REMARK    2  A    between atoms: N_6  and  N_7
REMARK    3  A    between atoms: C_8  and  C_10
REMARK    4  A    between atoms: C_12  and  N_18
REMARK    5  A    between atoms: C_21  and  C_23
REMARK    6  A    between atoms: C_21  and  C_24
REMARK                            x       y       z     vdW  Elec       q    Type
REMARK                         _______ _______ _______ _____ _____    ______ ____
ROOT
ATOM      1  N   UNL     1      -2.745   5.011   1.421  0.00  0.00    -0.202 N 
ATOM      2  C   UNL     1      -3.685   5.976   1.457  0.00  0.00    +0.283 C 
ATOM      3  O   UNL     1      -4.146   6.337   2.522  0.00  0.00    -0.267 OA
ATOM      4  H   UNL     1      -2.327   4.685   0.458  0.00  0.00    +0.178 HD
ENDROOT
BRANCH   1   9
ATOM      5  C   UNL     1      -0.373   0.764   5.073  0.00  0.00    +0.008 C 
ATOM      6  C   UNL     1      -1.094   1.367   3.866  0.00  0.00    -0.008 C 
ATOM      7  C   UNL     1      -0.876   2.883   3.844  0.00  0.00    +0.055 C 
ATOM      8  C   UNL     1      -1.484   3.438   2.574  0.00  0.00    +0.038 C 
ATOM      9  N   UNL     1      -2.299   4.424   2.613  0.00  0.00    -0.189 NA
ATOM     10  C   UNL     1      -1.103   2.797   1.258  0.00  0.00    +0.059 C 
ATOM     11  C   UNL     1      -1.313   1.284   1.374  0.00  0.00    -0.029 C 
ATOM     12  C   UNL     1      -0.536   0.754   2.580  0.00  0.00    +0.010 C 
ATOM     13  C   UNL     1      -0.808   0.600   0.102  0.00  0.00    +0.011 C 
ATOM     14  C   UNL     1      -2.803   0.987   1.556  0.00  0.00    +0.011 C 
ENDBRANCH   1   9
BRANCH   2  15
ATOM     15  C   UNL     1      -4.156   6.597   0.199  0.00  0.00    +0.149 A 
ATOM     16  C   UNL     1      -5.131   7.589   0.242  0.00  0.00    +0.094 A 
ATOM     17  C   UNL     1      -5.560   8.168  -0.953  0.00  0.00    +0.067 A 
ATOM     18  C   UNL     1      -4.998   7.717  -2.146  0.00  0.00    +0.100 A 
ATOM     19  C   UNL     1      -4.035   6.721  -2.107  0.00  0.00    +0.150 A 
ATOM     20  N   UNL     1      -3.647   6.198  -0.963  0.00  0.00    -0.228 NA
ATOM     21 CL   UNL     1      -3.330   6.156  -3.589  0.00  0.00    -0.060 Cl
ATOM     22 CL   UNL     1      -5.498   8.396  -3.663  0.00  0.00    -0.078 Cl
ATOM     23 CL   UNL     1      -5.799   8.102   1.760  0.00  0.00    -0.079 Cl
BRANCH  17  24
ATOM     24  N   UNL     1      -6.531   9.168  -0.954  0.00  0.00    -0.356 N 
ATOM     25  H   UNL     1      -6.859   9.615  -1.904  0.00  0.00    +0.142 HD
ATOM     26  H   UNL     1      -6.968   9.510  -0.004  0.00  0.00    +0.142 HD
ENDBRANCH  17  24
ENDBRANCH   2  15
TORSDOF 3
