REMARK  Name = ZINC06894935
REMARK  5 active torsions:
REMARK  status: ('A' for Active; 'I' for Inactive)
REMARK    1  A    between atoms: C_1  and  C_2
REMARK    2  A    between atoms: C_7  and  C_8
REMARK    3  A    between atoms: C_8  and  N_9
REMARK    4  A    between atoms: C_10  and  C_12
REMARK    5  A    between atoms: N_27  and  C_30
REMARK                            x       y       z     vdW  Elec       q    Type
REMARK                         _______ _______ _______ _____ _____    ______ ____
ROOT
ATOM      1  C   UNL     1      -4.788   0.266  -2.976  0.00  0.00    +0.076 C 
ATOM      2  C   UNL     1      -5.244   1.680  -3.412  0.00  0.00    -0.003 C 
ATOM      3  C   UNL     1      -6.759   1.668  -3.076  0.00  0.00    -0.066 C 
ATOM      4  C   UNL     1      -7.499   2.559  -4.097  0.00  0.00    -0.017 C 
ATOM      5  C   UNL     1      -7.497   1.710  -5.387  0.00  0.00    -0.020 C 
ATOM      6  C   UNL     1      -7.290   0.261  -4.917  0.00  0.00    -0.077 C 
ATOM      7  C   UNL     1      -6.064  -0.586  -3.015  0.00  0.00    +0.052 C 
ATOM      8  C   UNL     1      -5.899  -1.761  -3.941  0.00  0.00    -0.027 A 
ATOM      9  C   UNL     1      -5.628  -1.872  -5.286  0.00  0.00    +0.004 A 
ATOM     10  C   UNL     1      -5.534  -3.122  -5.872  0.00  0.00    +0.000 A 
ATOM     11  C   UNL     1      -5.713  -4.257  -5.103  0.00  0.00    +0.002 A 
ATOM     12  C   UNL     1      -5.984  -4.150  -3.755  0.00  0.00    +0.024 A 
ATOM     13  C   UNL     1      -6.080  -2.895  -3.157  0.00  0.00    +0.038 A 
ATOM     14  N   UNL     1      -6.340  -2.532  -1.834  0.00  0.00    -0.275 N 
ATOM     15  C   UNL     1      -6.346  -1.196  -1.666  0.00  0.00    +0.214 C 
ATOM     16  O   UNL     1      -6.539  -0.599  -0.628  0.00  0.00    -0.276 OA
ATOM     17  C   UNL     1      -6.580  -3.493  -0.755  0.00  0.00    +0.138 C 
ATOM     18  N   UNL     1      -7.137   0.310  -3.445  0.00  0.00    +0.394 N 
ATOM     19  H   UNL     1      -8.020   0.046  -2.991  0.00  0.00    -0.079 HD
ENDROOT
BRANCH   1  21
ATOM     20  N   UNL     1      -3.389  -0.669  -1.164  0.00  0.00    -0.311 N 
ATOM     21  C   UNL     1      -4.224   0.303  -1.579  0.00  0.00    +0.216 C 
ATOM     22  O   UNL     1      -4.522   1.208  -0.829  0.00  0.00    -0.276 OA
ATOM     23  H   UNL     1      -3.151  -1.393  -1.764  0.00  0.00    +0.149 HD
BRANCH  20  24
ATOM     24  C   UNL     1      -2.840  -0.633   0.194  0.00  0.00    +0.139 C 
BRANCH  24  31
ATOM     25  C   UNL     1      -0.132  -0.598  -0.813  0.00  0.00    +0.044 C 
ATOM     26  C   UNL     1      -0.647  -1.808  -0.077  0.00  0.00    -0.046 A 
ATOM     27  C   UNL     1       0.175  -2.904   0.112  0.00  0.00    +0.003 A 
ATOM     28  C   UNL     1      -0.297  -4.013   0.787  0.00  0.00    +0.000 A 
ATOM     29  C   UNL     1      -1.591  -4.028   1.274  0.00  0.00    +0.000 A 
ATOM     30  C   UNL     1      -2.413  -2.933   1.085  0.00  0.00    +0.005 A 
ATOM     31  C   UNL     1      -1.942  -1.825   0.405  0.00  0.00    -0.027 A 
ENDBRANCH  24  31
ENDBRANCH  20  24
ENDBRANCH   1  21
TORSDOF 3
