REMARK  Name = ZINC39946127
REMARK  11 active torsions:
REMARK  status: ('A' for Active; 'I' for Inactive)
REMARK    1  A    between atoms: C_1  and  C_2
REMARK    2  A    between atoms: C_4  and  C_9
REMARK    3  A    between atoms: C_5  and  C_8
REMARK    4  A    between atoms: C_9  and  O_10
REMARK    5  A    between atoms: O_10  and  C_11
REMARK    6  A    between atoms: C_15  and  C_17
REMARK    7  A    between atoms: C_17  and  O_19
REMARK    8  A    between atoms: O_19  and  C_20
REMARK    9  A    between atoms: C_20  and  C_22
REMARK   10  A    between atoms: C_20  and  C_28
REMARK   11  A    between atoms: C_28  and  C_30
REMARK                            x       y       z     vdW  Elec       q    Type
REMARK                         _______ _______ _______ _____ _____    ______ ____
ROOT
ATOM      1  O   UNL     1       1.002  -2.243  -9.446  0.00  0.00    -0.445 OA
ENDROOT
BRANCH   1   2
ATOM      2  C   UNL     1       1.433  -2.276  -8.169  0.00  0.00    +0.340 C 
ATOM      3  O   UNL     1       2.477  -2.832  -7.895  0.00  0.00    -0.245 OA
BRANCH   2   8
ATOM      4  C   UNL     1       0.322  -1.068  -4.788  0.00  0.00    +0.122 A 
ATOM      5  C   UNL     1      -0.870  -0.434  -5.109  0.00  0.00    +0.046 A 
ATOM      6  C   UNL     1      -1.310  -0.400  -6.419  0.00  0.00    +0.004 A 
ATOM      7  C   UNL     1      -0.567  -0.996  -7.417  0.00  0.00    +0.015 A 
ATOM      8  C   UNL     1       0.634  -1.636  -7.104  0.00  0.00    +0.062 A 
ATOM      9  C   UNL     1       1.079  -1.664  -5.782  0.00  0.00    +0.060 A 
BRANCH   4  10
ATOM     10  O   UNL     1       0.750  -1.098  -3.498  0.00  0.00    -0.488 OA
BRANCH  10  11
ATOM     11  C   UNL     1      -0.081  -0.463  -2.524  0.00  0.00    +0.264 C 
BRANCH  11  14
ATOM     12  C   UNL     1      -0.293  -2.772  -0.274  0.00  0.00    +0.045 C 
ATOM     13  C   UNL     1       0.939  -1.890  -0.483  0.00  0.00    +0.176 C 
ATOM     14  C   UNL     1       0.549  -0.597  -1.162  0.00  0.00    +0.019 C 
ATOM     15  C   UNL     1       0.859   0.391  -0.349  0.00  0.00    +0.041 C 
ATOM     16  N   UNL     1       1.423  -0.084   0.821  0.00  0.00    -0.269 N 
ATOM     17  O   UNL     1       1.494  -1.500   0.782  0.00  0.00    -0.267 OA
ATOM     18  C   UNL     1       0.630   1.849  -0.654  0.00  0.00    +0.065 C 
ATOM     19  H   UNL     1       1.726   0.469   1.559  0.00  0.00    +0.194 HD
ENDBRANCH  11  14
ENDBRANCH  10  11
ENDBRANCH   4  10
ENDBRANCH   2   8
ENDBRANCH   1   2
BRANCH   1  20
ATOM     20  C   UNL     1       1.825  -2.881 -10.424  0.00  0.00    +0.277 C 
BRANCH  20  21
ATOM     21  C   UNL     1       1.412  -4.324 -10.563  0.00  0.00    +0.000 A 
ATOM     22  C   UNL     1       0.072  -4.664 -10.546  0.00  0.00    +0.008 A 
ATOM     23  C   UNL     1      -0.307  -5.987 -10.674  0.00  0.00    +0.000 A 
ATOM     24  C   UNL     1       0.654  -6.971 -10.819  0.00  0.00    +0.000 A 
ATOM     25  C   UNL     1       1.994  -6.630 -10.837  0.00  0.00    +0.000 A 
ATOM     26  C   UNL     1       2.372  -5.307 -10.713  0.00  0.00    +0.008 A 
ENDBRANCH  20  21
BRANCH  20  27
ATOM     27  C   UNL     1       1.664  -2.183 -11.750  0.00  0.00    +0.206 C 
ATOM     28  O   UNL     1       0.735  -1.420 -11.925  0.00  0.00    -0.288 OA
BRANCH  27  29
ATOM     29  C   UNL     1       2.592  -2.414 -12.787  0.00  0.00    +0.027 C 
ATOM     30  C   UNL     1       2.591  -1.853 -14.051  0.00  0.00    +0.006 A 
ATOM     31  C   UNL     1       1.732  -0.930 -14.694  0.00  0.00    +0.010 A 
ATOM     32  C   UNL     1       1.974  -0.547 -15.967  0.00  0.00    +0.001 A 
ATOM     33  C   UNL     1       3.066  -1.032 -16.706  0.00  0.00    +0.002 A 
ATOM     34  C   UNL     1       3.944  -1.916 -16.186  0.00  0.00    +0.026 A 
ATOM     35  C   UNL     1       3.753  -2.385 -14.803  0.00  0.00    +0.043 A 
ATOM     36  N   UNL     1       4.432  -3.217 -14.066  0.00  0.00    -0.380 N 
ATOM     37  C   UNL     1       3.800  -3.324 -12.747  0.00  0.00    +0.152 C 
ATOM     38  H   UNL     1       5.232  -3.690 -14.345  0.00  0.00    +0.160 HD
ENDBRANCH  27  29
ENDBRANCH  20  27
ENDBRANCH   1  20
TORSDOF 9
