REMARK  Name = ZINC41585061
REMARK  8 active torsions:
REMARK  status: ('A' for Active; 'I' for Inactive)
REMARK    1  A    between atoms: C_1  and  O_2
REMARK    2  A    between atoms: O_2  and  C_3
REMARK    3  A    between atoms: C_8  and  C_9
REMARK    4  A    between atoms: C_18  and  O_37
REMARK    5  A    between atoms: C_19  and  C_20
REMARK    6  A    between atoms: C_20  and  N_21
REMARK    7  A    between atoms: N_24  and  C_27
REMARK    8  A    between atoms: C_27  and  C_28
REMARK                            x       y       z     vdW  Elec       q    Type
REMARK                         _______ _______ _______ _____ _____    ______ ____
ROOT
ATOM      1  C   UNL     1      -0.006  -2.831  -0.014  0.00  0.00    +0.068 A 
ATOM      2  C   UNL     1       0.736  -2.941  -1.146  0.00  0.00    +0.208 A 
ATOM      3  O   UNL     1       1.875  -3.635  -1.199  0.00  0.00    -0.462 OA
ATOM      4  C   UNL     1       2.212  -4.519  -0.239  0.00  0.00    +0.146 A 
ATOM      5  C   UNL     1       1.545  -4.511   0.999  0.00  0.00    +0.065 A 
ATOM      6  C   UNL     1       0.469  -3.521   1.201  0.00  0.00    +0.200 A 
ATOM      7  O   UNL     1      -0.001  -3.290   2.301  0.00  0.00    -0.286 OA
ATOM      8  C   UNL     1       1.899  -5.417   1.999  0.00  0.00    +0.019 A 
ATOM      9  C   UNL     1       2.896  -6.322   1.770  0.00  0.00    +0.046 A 
ATOM     10  C   UNL     1       3.559  -6.343   0.545  0.00  0.00    +0.125 A 
ATOM     11  C   UNL     1       3.221  -5.448  -0.456  0.00  0.00    +0.051 A 
ENDROOT
BRANCH   1  17
ATOM     12  C   UNL     1      -1.200  -0.637   0.010  0.00  0.00    +0.128 A 
ATOM     13  C   UNL     1      -2.374   0.099   0.019  0.00  0.00    +0.046 A 
ATOM     14  C   UNL     1      -3.596  -0.546   0.028  0.00  0.00    +0.004 A 
ATOM     15  C   UNL     1      -3.656  -1.929   0.027  0.00  0.00    +0.001 A 
ATOM     16  C   UNL     1      -2.494  -2.675   0.018  0.00  0.00    +0.012 A 
ATOM     17  C   UNL     1      -1.257  -2.034   0.003  0.00  0.00    +0.030 A 
BRANCH  12  19
ATOM     18  C   UNL     1      -0.017   1.425   0.010  0.00  0.00    +0.277 C 
ATOM     19  O   UNL     1       0.002  -0.004   0.002  0.00  0.00    -0.494 OA
ENDBRANCH  12  19
ENDBRANCH   1  17
BRANCH  10  20
ATOM     20  O   UNL     1       4.545  -7.250   0.330  0.00  0.00    -0.506 OA
ATOM     21  H   UNL     1       4.236  -8.086  -0.044  0.00  0.00    +0.292 HD
ENDBRANCH  10  20
BRANCH  11  22
ATOM     22  C   UNL     1       3.947  -5.482  -1.776  0.00  0.00    +0.126 C 
BRANCH  22  23
ATOM     23  N   UNL     1       5.115  -4.593  -1.716  0.00  0.00    -0.301 NA
ATOM     24  C   UNL     1       6.112  -5.099  -0.762  0.00  0.00    +0.066 C 
ATOM     25  C   UNL     1       7.284  -4.117  -0.684  0.00  0.00    -0.063 C 
ATOM     26  N   UNL     1       7.886  -3.967  -2.016  0.00  0.00    +0.384 N 
ATOM     27  C   UNL     1       6.885  -3.439  -2.952  0.00  0.00    -0.063 C 
ATOM     28  C   UNL     1       5.710  -4.415  -3.048  0.00  0.00    +0.066 C 
ATOM     29  H   UNL     1       8.209  -4.866  -2.341  0.00  0.00    -0.081 HD
BRANCH  26  30
ATOM     30  C   UNL     1       9.021  -3.039  -1.938  0.00  0.00    -0.043 C 
BRANCH  30  31
ATOM     31  C   UNL     1       9.715  -2.979  -3.274  0.00  0.00    -0.060 A 
ATOM     32  C   UNL     1      10.744  -3.858  -3.557  0.00  0.00    +0.005 A 
ATOM     33  C   UNL     1      11.383  -3.808  -4.782  0.00  0.00    +0.050 A 
ATOM     34  C   UNL     1      10.993  -2.876  -5.730  0.00  0.00    +0.166 A 
ATOM     35  C   UNL     1       9.957  -1.990  -5.444  0.00  0.00    +0.166 A 
ATOM     36  C   UNL     1       9.317  -2.050  -4.217  0.00  0.00    +0.051 A 
ATOM     37  O   UNL     1       9.764  -1.181  -6.527  0.00  0.00    -0.453 OA
ATOM     38  C   UNL     1      10.960  -1.307  -7.319  0.00  0.00    +0.466 C 
ATOM     39  O   UNL     1      11.450  -2.621  -6.990  0.00  0.00    -0.453 OA
ENDBRANCH  30  31
ENDBRANCH  26  30
ENDBRANCH  22  23
ENDBRANCH  11  22
TORSDOF 7
