REMARK  Name = ZINC08940315
REMARK  11 active torsions:
REMARK  status: ('A' for Active; 'I' for Inactive)
REMARK    1  A    between atoms: C_1  and  C_2
REMARK    2  A    between atoms: C_4  and  C_12
REMARK    3  A    between atoms: C_5  and  C_11
REMARK    4  A    between atoms: N_6  and  C_7
REMARK    5  A    between atoms: C_7  and  C_8
REMARK    6  A    between atoms: C_8  and  O_9
REMARK    7  A    between atoms: O_9  and  C_10
REMARK    8  A    between atoms: C_12  and  C_14
REMARK    9  A    between atoms: C_14  and  N_67
REMARK   10  A    between atoms: N_17  and  S_20
REMARK   11  A    between atoms: S_20  and  C_23
REMARK                            x       y       z     vdW  Elec       q    Type
REMARK                         _______ _______ _______ _____ _____    ______ ____
ROOT
ATOM      1  C   UNL     1      -1.324   0.019  -5.109  0.00  0.00    -0.061 C 
ATOM      2  C   UNL     1      -1.243   0.864  -6.385  0.00  0.00    +0.091 C 
ATOM      3  N   UNL     1      -0.864  -0.014  -7.503  0.00  0.00    -0.180 NA
ATOM      4  C   UNL     1       0.316  -0.877  -7.340  0.00  0.00    +0.091 C 
ATOM      5  C   UNL     1       0.173  -1.653  -6.026  0.00  0.00    -0.061 C 
ATOM      6  N   UNL     1      -0.039  -0.688  -4.925  0.00  0.00    +0.386 N 
ATOM      7  H   UNL     1       0.724  -0.001  -4.934  0.00  0.00    -0.081 HD
ENDROOT
BRANCH   3   8
ATOM      8  S   UNL     1      -1.741  -0.029  -8.907  0.00  0.00    +0.061 S 
ATOM      9  O   UNL     1      -2.405   1.225  -8.985  0.00  0.00    -0.153 OA
ATOM     10  O   UNL     1      -0.867  -0.494  -9.927  0.00  0.00    -0.153 OA
BRANCH   8  11
ATOM     11  C   UNL     1      -2.996  -1.253  -8.724  0.00  0.00    +0.109 A 
ATOM     12  C   UNL     1      -2.748  -2.557  -9.111  0.00  0.00    +0.032 A 
ATOM     13  C   UNL     1      -3.727  -3.524  -8.965  0.00  0.00    +0.051 A 
ATOM     14  C   UNL     1      -4.960  -3.178  -8.440  0.00  0.00    +0.162 A 
ATOM     15  C   UNL     1      -5.210  -1.868  -8.056  0.00  0.00    +0.164 A 
ATOM     16  C   UNL     1      -4.227  -0.904  -8.199  0.00  0.00    +0.078 A 
ATOM     17  O   UNL     1      -6.429  -1.538  -7.538  0.00  0.00    -0.488 OA
ATOM     18  C   UNL     1      -7.530  -1.593  -8.448  0.00  0.00    +0.232 C 
ATOM     19  C   UNL     1      -8.079  -3.008  -8.546  0.00  0.00    +0.082 C 
ATOM     20  C   UNL     1      -7.074  -3.979  -9.146  0.00  0.00    +0.232 C 
ATOM     21  O   UNL     1      -5.936  -4.121  -8.294  0.00  0.00    -0.488 OA
ENDBRANCH   8  11
ENDBRANCH   3   8
BRANCH   6  22
ATOM     22  C   UNL     1      -0.033  -1.394  -3.627  0.00  0.00    +0.002 C 
BRANCH  22  23
ATOM     23  C   UNL     1      -0.030  -0.373  -2.519  0.00  0.00    +0.149 C 
ATOM     24  O   UNL     1      -0.051   0.811  -2.786  0.00  0.00    -0.294 OA
BRANCH  23  28
ATOM     25  C   UNL     1       0.062  -3.287   1.659  0.00  0.00    +0.063 C 
ATOM     26  C   UNL     1       0.037  -2.112   0.715  0.00  0.00    +0.017 A 
ATOM     27  C   UNL     1       0.026  -2.191  -0.626  0.00  0.00    +0.034 A 
ATOM     28  C   UNL     1      -0.004  -0.809  -1.122  0.00  0.00    +0.036 A 
ATOM     29  C   UNL     1       0.002  -0.004   0.002  0.00  0.00    +0.026 A 
ATOM     30  N   UNL     1       0.023  -0.799   1.087  0.00  0.00    -0.345 N 
ATOM     31  C   UNL     1      -0.018   1.503   0.010  0.00  0.00    +0.064 C 
BRANCH  30  32
ATOM     32  C   UNL     1       0.030  -0.322   2.472  0.00  0.00    +0.149 C 
BRANCH  32  33
ATOM     33  C   UNL     1      -1.410  -0.175   2.968  0.00  0.00    +0.181 C 
BRANCH  33  34
ATOM     34  O   UNL     1      -1.403   0.290   4.319  0.00  0.00    -0.381 OA
ATOM     35  C   UNL     1      -2.705   0.462   4.882  0.00  0.00    +0.194 C 
ENDBRANCH  33  34
ENDBRANCH  32  33
ENDBRANCH  30  32
ENDBRANCH  23  28
ENDBRANCH  22  23
ENDBRANCH   6  22
TORSDOF 8
