REMARK  Name = ZINC38597880
REMARK  7 active torsions:
REMARK  status: ('A' for Active; 'I' for Inactive)
REMARK    1  A    between atoms: C_1  and  C_2
REMARK    2  A    between atoms: C_8  and  C_10
REMARK    3  A    between atoms: N_12  and  C_13
REMARK    4  A    between atoms: C_13  and  C_14
REMARK    5  A    between atoms: C_14  and  C_16
REMARK    6  A    between atoms: C_14  and  N_21
REMARK    7  A    between atoms: N_24  and  C_27
REMARK                            x       y       z     vdW  Elec       q    Type
REMARK                         _______ _______ _______ _____ _____    ______ ____
ROOT
ATOM      1  C   UNL     1      -7.229  -4.910  -0.033  0.00  0.00    +0.017 C 
ENDROOT
BRANCH   1   2
ATOM      2  N   UNL     1      -7.428  -4.064  -1.218  0.00  0.00    +0.389 N 
ATOM      3  C   UNL     1      -6.401  -3.015  -1.246  0.00  0.00    -0.059 C 
ATOM      4  C   UNL     1      -6.536  -2.203  -2.538  0.00  0.00    +0.086 C 
ATOM      5  N   UNL     1      -7.916  -1.704  -2.633  0.00  0.00    -0.333 N 
ATOM      6  C   UNL     1      -9.015  -2.666  -2.453  0.00  0.00    +0.086 C 
ATOM      7  C   UNL     1      -8.763  -3.456  -1.164  0.00  0.00    -0.059 C 
ATOM      8  H   UNL     1      -7.350  -4.630  -2.050  0.00  0.00    -0.081 HD
BRANCH   5   9
ATOM      9  C   UNL     1      -8.177  -0.354  -2.888  0.00  0.00    +0.030 A 
ATOM     10  C   UNL     1      -7.131   0.558  -2.938  0.00  0.00    +0.026 A 
ATOM     11  C   UNL     1      -7.391   1.891  -3.191  0.00  0.00    +0.040 A 
ATOM     12  C   UNL     1      -8.693   2.318  -3.393  0.00  0.00    +0.124 A 
ATOM     13  C   UNL     1      -9.737   1.410  -3.342  0.00  0.00    +0.040 A 
ATOM     14  C   UNL     1      -9.481   0.075  -3.096  0.00  0.00    +0.026 A 
ATOM     15  F   UNL     1      -8.944   3.622  -3.639  0.00  0.00    -0.205 F 
ENDBRANCH   5   9
ENDBRANCH   1   2
BRANCH   1  16
ATOM     16  C   UNL     1      -8.212  -6.052  -0.061  0.00  0.00    +0.093 A 
ATOM     17  C   UNL     1      -8.879  -6.542   1.000  0.00  0.00    +0.043 A 
ATOM     18  C   UNL     1      -9.687  -7.600   0.523  0.00  0.00    +0.041 A 
ATOM     19  C   UNL     1      -9.465  -7.693  -0.801  0.00  0.00    +0.195 A 
ATOM     20  O   UNL     1      -8.575  -6.750  -1.150  0.00  0.00    -0.469 OA
ENDBRANCH   1  16
BRANCH   1  21
ATOM     21  C   UNL     1      -5.803  -5.465  -0.036  0.00  0.00    +0.097 C 
BRANCH  21  24
ATOM     22  C   UNL     1      -4.317  -6.627  -1.578  0.00  0.00    +0.299 C 
ATOM     23  O   UNL     1      -3.422  -6.495  -0.769  0.00  0.00    -0.265 OA
ATOM     24  N   UNL     1      -5.547  -6.147  -1.307  0.00  0.00    -0.309 N 
ATOM     25  H   UNL     1      -6.262  -6.252  -1.954  0.00  0.00    +0.149 HD
BRANCH  22  33
ATOM     26  C   UNL     1      -3.538  -9.771  -7.676  0.00  0.00    +0.089 C 
ATOM     27  C   UNL     1      -2.905  -9.330  -6.381  0.00  0.00    +0.136 A 
ATOM     28  C   UNL     1      -3.524  -8.676  -5.383  0.00  0.00    +0.091 A 
ATOM     29  C   UNL     1      -2.582  -8.452  -4.354  0.00  0.00    +0.168 A 
ATOM     30  N   UNL     1      -1.440  -8.962  -4.738  0.00  0.00    -0.063 NA
ATOM     31  O   UNL     1      -1.627  -9.529  -6.022  0.00  0.00    -0.358 OA
ATOM     32  N   UNL     1      -2.826  -7.803  -3.145  0.00  0.00    -0.260 N 
ATOM     33  C   UNL     1      -4.056  -7.323  -2.874  0.00  0.00    +0.304 C 
ATOM     34  O   UNL     1      -4.950  -7.455  -3.683  0.00  0.00    -0.265 OA
ATOM     35  H   UNL     1      -2.111  -7.698  -2.498  0.00  0.00    +0.157 HD
ENDBRANCH  22  33
ENDBRANCH  21  24
ENDBRANCH   1  21
TORSDOF 6
