REMARK  Name = ZINC12918560
REMARK  6 active torsions:
REMARK  status: ('A' for Active; 'I' for Inactive)
REMARK    1  A    between atoms: C_1  and  C_2
REMARK    2  A    between atoms: C_2  and  C_4
REMARK    3  A    between atoms: C_2  and  N_13
REMARK    4  A    between atoms: N_13  and  C_14
REMARK    5  A    between atoms: N_13  and  S_15
REMARK    6  A    between atoms: S_15  and  C_18
REMARK                            x       y       z     vdW  Elec       q    Type
REMARK                         _______ _______ _______ _____ _____    ______ ____
ROOT
ATOM      1  C   UNL     1      -1.477  -1.392   1.429  0.00  0.00    +0.034 C 
ATOM      2  C   UNL     1      -1.222  -0.883   0.009  0.00  0.00    +0.142 C 
ENDROOT
BRANCH   2   3
ATOM      3  C   UNL     1       0.002  -0.004   0.002  0.00  0.00    +0.125 A 
ATOM      4  C   UNL     1      -0.016   1.336   0.009  0.00  0.00    +0.055 A 
ATOM      5  C   UNL     1       1.388   1.764  -0.002  0.00  0.00    +0.020 A 
ATOM      6  C   UNL     1       2.030   3.002  -0.001  0.00  0.00    +0.011 A 
ATOM      7  C   UNL     1       3.396   3.057  -0.013  0.00  0.00    +0.001 A 
ATOM      8  C   UNL     1       4.146   1.889  -0.027  0.00  0.00    +0.004 A 
ATOM      9  C   UNL     1       3.529   0.657  -0.028  0.00  0.00    +0.047 A 
ATOM     10  C   UNL     1       2.142   0.579  -0.015  0.00  0.00    +0.135 A 
ATOM     11  O   UNL     1       1.270  -0.450  -0.013  0.00  0.00    -0.458 OA
ENDBRANCH   2   3
BRANCH   2  12
ATOM     12  N   UNL     1      -1.009  -2.023  -0.887  0.00  0.00    -0.170 NA
ATOM     13  C   UNL     1       0.096  -2.952  -0.641  0.00  0.00    +0.132 C 
BRANCH  12  14
ATOM     14  S   UNL     1      -2.018  -2.260  -2.179  0.00  0.00    +0.061 S 
ATOM     15  O   UNL     1      -1.948  -3.643  -2.500  0.00  0.00    -0.153 OA
ATOM     16  O   UNL     1      -3.242  -1.612  -1.863  0.00  0.00    -0.153 OA
BRANCH  14  17
ATOM     17  C   UNL     1      -1.326  -1.391  -3.547  0.00  0.00    +0.105 A 
ATOM     18  C   UNL     1      -1.681  -0.075  -3.780  0.00  0.00    +0.028 A 
ATOM     19  C   UNL     1      -1.135   0.609  -4.850  0.00  0.00    +0.002 A 
ATOM     20  C   UNL     1      -0.242  -0.026  -5.693  0.00  0.00    +0.000 A 
ATOM     21  C   UNL     1       0.109  -1.343  -5.463  0.00  0.00    +0.002 A 
ATOM     22  C   UNL     1      -0.433  -2.026  -4.389  0.00  0.00    +0.028 A 
ENDBRANCH  14  17
ENDBRANCH  12  14
ENDBRANCH   2  12
TORSDOF 4
