REMARK  Name = ZINC09631238
REMARK  10 active torsions:
REMARK  status: ('A' for Active; 'I' for Inactive)
REMARK    1  A    between atoms: C_1  and  C_2
REMARK    2  A    between atoms: C_2  and  C_3
REMARK    3  A    between atoms: C_3  and  C_4
REMARK    4  A    between atoms: C_3  and  C_5
REMARK    5  A    between atoms: C_3  and  C_6
REMARK    6  A    between atoms: N_10  and  N_11
REMARK    7  A    between atoms: C_12  and  C_14
REMARK    8  A    between atoms: C_19  and  N_20
REMARK    9  A    between atoms: N_20  and  S_21
REMARK   10  A    between atoms: S_21  and  C_24
REMARK                            x       y       z     vdW  Elec       q    Type
REMARK                         _______ _______ _______ _____ _____    ______ ____
ROOT
ATOM      1  N   UNL     1       3.635  -5.715  -0.088  0.00  0.00    -0.203 N 
ATOM      2  C   UNL     1       4.607  -6.648  -0.108  0.00  0.00    +0.265 C 
ATOM      3  O   UNL     1       5.025  -7.068  -1.171  0.00  0.00    -0.268 OA
ATOM      4  H   UNL     1       3.301  -5.381   0.759  0.00  0.00    +0.178 HD
ENDROOT
BRANCH   1   9
ATOM      5  C   UNL     1       1.213  -1.624  -1.215  0.00  0.00    -0.005 C 
ATOM      6  C   UNL     1       1.887  -2.204   0.029  0.00  0.00    +0.010 C 
ATOM      7  C   UNL     1       1.723  -3.728   0.033  0.00  0.00    +0.053 C 
ATOM      8  C   UNL     1       2.255  -4.272  -1.274  0.00  0.00    +0.037 C 
ATOM      9  N   UNL     1       3.106  -5.228  -1.290  0.00  0.00    -0.189 NA
ATOM     10  C   UNL     1       1.755  -3.658  -2.563  0.00  0.00    +0.053 C 
ATOM     11  C   UNL     1       1.917  -2.136  -2.473  0.00  0.00    +0.010 C 
BRANCH   5  12
ATOM     12  C   UNL     1       1.296  -0.097  -1.173  0.00  0.00    -0.032 C 
ATOM     13  C   UNL     1       0.614   0.485  -2.412  0.00  0.00    +0.011 C 
ATOM     14  C   UNL     1       2.764   0.334  -1.148  0.00  0.00    +0.011 C 
BRANCH  12  16
ATOM     15  C   UNL     1       0.675   1.944   0.128  0.00  0.00    +0.004 C 
ATOM     16  C   UNL     1       0.592   0.417   0.085  0.00  0.00    +0.003 C 
ENDBRANCH  12  16
ENDBRANCH   5  12
ENDBRANCH   1   9
BRANCH   2  17
ATOM     17  C   UNL     1       5.163  -7.161   1.157  0.00  0.00    +0.061 A 
ATOM     18  C   UNL     1       4.690  -6.678   2.380  0.00  0.00    +0.015 A 
ATOM     19  C   UNL     1       5.211  -7.164   3.559  0.00  0.00    +0.001 A 
ATOM     20  C   UNL     1       6.211  -8.123   3.539  0.00  0.00    +0.002 A 
ATOM     21  C   UNL     1       6.693  -8.607   2.340  0.00  0.00    +0.025 A 
ATOM     22  C   UNL     1       6.176  -8.133   1.141  0.00  0.00    +0.060 A 
BRANCH  22  23
ATOM     23  N   UNL     1       6.659  -8.618  -0.068  0.00  0.00    -0.215 N 
ATOM     24  H   UNL     1       6.736  -8.025  -0.832  0.00  0.00    +0.174 HD
BRANCH  23  25
ATOM     25  S   UNL     1       7.104 -10.207  -0.204  0.00  0.00    +0.079 S 
ATOM     26  O   UNL     1       7.419 -10.425  -1.572  0.00  0.00    -0.149 OA
ATOM     27  O   UNL     1       8.032 -10.460   0.842  0.00  0.00    -0.149 OA
BRANCH  25  28
ATOM     28  C   UNL     1       5.676 -11.179   0.144  0.00  0.00    +0.146 A 
ATOM     29  C   UNL     1       4.725 -11.635  -0.707  0.00  0.00    +0.036 A 
ATOM     30  C   UNL     1       3.682 -12.390  -0.205  0.00  0.00    +0.010 A 
ATOM     31  C   UNL     1       3.640 -12.652   1.124  0.00  0.00    +0.047 A 
ATOM     32  S   UNL     1       5.110 -11.825   1.710  0.00  0.00    -0.077 S 
ENDBRANCH  25  28
ENDBRANCH  23  25
ENDBRANCH  22  23
ENDBRANCH   2  17
TORSDOF 7
