REMARK  Name = ZINC05659860
REMARK  6 active torsions:
REMARK  status: ('A' for Active; 'I' for Inactive)
REMARK    1  A    between atoms: C_1  and  C_2
REMARK    2  A    between atoms: N_7  and  C_8
REMARK    3  A    between atoms: C_8  and  C_10
REMARK    4  A    between atoms: C_8  and  C_19
REMARK    5  A    between atoms: C_25  and  C_30
REMARK    6  A    between atoms: C_28  and  O_29
REMARK                            x       y       z     vdW  Elec       q    Type
REMARK                         _______ _______ _______ _____ _____    ______ ____
ROOT
ATOM      1  C   UNL     1       0.344   3.135   7.007  0.00  0.00    +0.136 C 
ENDROOT
BRANCH   1   2
ATOM      2  C   UNL     1      -0.452   2.797   5.772  0.00  0.00    +0.021 A 
ATOM      3  C   UNL     1      -1.811   3.094   5.730  0.00  0.00    +0.010 A 
ATOM      4  C   UNL     1      -2.558   2.802   4.629  0.00  0.00    +0.010 A 
ATOM      5  C   UNL     1      -1.952   2.193   3.518  0.00  0.00    +0.004 A 
ATOM      6  C   UNL     1      -2.691   1.875   2.362  0.00  0.00    +0.012 A 
ATOM      7  C   UNL     1      -2.034   1.288   1.319  0.00  0.00    +0.023 A 
ATOM      8  C   UNL     1      -0.673   1.011   1.422  0.00  0.00    +0.039 A 
ATOM      9  N   UNL     1       0.012   1.308   2.499  0.00  0.00    -0.248 NA
ATOM     10  C   UNL     1      -0.569   1.888   3.554  0.00  0.00    +0.113 A 
ATOM     11  C   UNL     1       0.173   2.206   4.711  0.00  0.00    +0.148 A 
ATOM     12  C   UNL     1       0.033   0.358   0.262  0.00  0.00    +0.065 C 
BRANCH  11  13
ATOM     13  O   UNL     1       1.500   1.923   4.770  0.00  0.00    -0.504 OA
ATOM     14  H   UNL     1       2.069   2.638   4.451  0.00  0.00    +0.292 HD
ENDBRANCH  11  13
ENDBRANCH   1   2
BRANCH   1  21
ATOM     15  C   UNL     1       3.336   2.276  11.077  0.00  0.00    +0.044 C 
ATOM     16  C   UNL     1       1.861   2.501  10.867  0.00  0.00    -0.046 A 
ATOM     17  C   UNL     1       0.983   2.504  11.942  0.00  0.00    +0.021 A 
ATOM     18  C   UNL     1      -0.363   2.714  11.716  0.00  0.00    +0.084 A 
ATOM     19  C   UNL     1      -0.016   2.916   9.444  0.00  0.00    +0.097 A 
ATOM     20  C   UNL     1       1.352   2.711   9.598  0.00  0.00    +0.045 A 
ATOM     21  N   UNL     1      -0.541   3.128   8.174  0.00  0.00    -0.320 N 
ATOM     22  H   UNL     1      -1.494   3.272   8.062  0.00  0.00    +0.148 HD
ATOM     23  N   UNL     1      -0.897   2.929  10.485  0.00  0.00    -0.350 N 
ATOM     24  H   UNL     1      -1.902   3.091  10.347  0.00  0.00    +0.166 HD
ENDBRANCH   1  21
BRANCH   1  25
ATOM     25  C   UNL     1       0.959   4.501   6.850  0.00  0.00    -0.019 A 
ATOM     26  C   UNL     1       0.193   5.631   7.069  0.00  0.00    +0.009 A 
ATOM     27  C   UNL     1       0.754   6.887   6.931  0.00  0.00    +0.050 A 
ATOM     28  C   UNL     1       2.083   7.016   6.564  0.00  0.00    +0.166 A 
ATOM     29  C   UNL     1       2.853   5.878   6.338  0.00  0.00    +0.167 A 
ATOM     30  C   UNL     1       2.286   4.622   6.483  0.00  0.00    +0.055 A 
ATOM     31  O   UNL     1       4.115   6.266   5.991  0.00  0.00    -0.453 OA
ATOM     32  C   UNL     1       4.221   7.642   6.403  0.00  0.00    +0.466 C 
ATOM     33  O   UNL     1       2.863   8.118   6.358  0.00  0.00    -0.453 OA
ENDBRANCH   1  25
TORSDOF 4
