REMARK  Name = ZINC27663290
REMARK  5 active torsions:
REMARK  status: ('A' for Active; 'I' for Inactive)
REMARK    1  A    between atoms: C_10  and  C_23
REMARK    2  A    between atoms: N_12  and  S_13
REMARK    3  A    between atoms: S_13  and  C_16
REMARK    4  A    between atoms: C_23  and  C_24
REMARK    5  A    between atoms: N_26  and  C_27
REMARK                            x       y       z     vdW  Elec       q    Type
REMARK                         _______ _______ _______ _____ _____    ______ ____
ROOT
ATOM      1  C   UNL     1       3.115  -6.211  -4.960  0.00  0.00    +0.002 A 
ATOM      2  C   UNL     1       3.446  -4.869  -4.992  0.00  0.00    +0.002 A 
ATOM      3  C   UNL     1       3.919  -4.241  -3.853  0.00  0.00    +0.026 A 
ATOM      4  C   UNL     1       4.061  -4.963  -2.681  0.00  0.00    +0.073 A 
ATOM      5  C   UNL     1       3.732  -6.319  -2.647  0.00  0.00    +0.056 A 
ATOM      6  C   UNL     1       3.258  -6.938  -3.792  0.00  0.00    +0.025 A 
ATOM      7  N   UNL     1       3.888  -7.038  -1.456  0.00  0.00    -0.282 N 
ATOM      8  C   UNL     1       4.073  -6.397  -0.286  0.00  0.00    +0.240 C 
ATOM      9  O   UNL     1       4.249  -7.040   0.728  0.00  0.00    -0.273 OA
ATOM     10  C   UNL     1       4.064  -4.891  -0.221  0.00  0.00    +0.192 C 
ATOM     11  N   UNL     1       4.528  -4.353  -1.509  0.00  0.00    -0.189 N 
ATOM     12  H   UNL     1       3.860  -8.137  -1.469  0.00  0.00    +0.155 HD
ENDROOT
BRANCH  11  13
ATOM     13  S   UNL     1       5.571  -3.068  -1.571  0.00  0.00    +0.075 S 
ATOM     14  O   UNL     1       5.038  -2.159  -2.524  0.00  0.00    -0.150 OA
ATOM     15  O   UNL     1       5.836  -2.695  -0.226  0.00  0.00    -0.150 OA
BRANCH  13  16
ATOM     16  C   UNL     1       7.090  -3.662  -2.237  0.00  0.00    +0.109 A 
ATOM     17  C   UNL     1       8.072  -4.147  -1.393  0.00  0.00    +0.030 A 
ATOM     18  C   UNL     1       9.262  -4.619  -1.916  0.00  0.00    +0.022 A 
ATOM     19  C   UNL     1       9.475  -4.594  -3.283  0.00  0.00    +0.041 A 
ATOM     20  C   UNL     1       8.494  -4.103  -4.126  0.00  0.00    +0.022 A 
ATOM     21  C   UNL     1       7.303  -3.637  -3.603  0.00  0.00    +0.030 A 
ATOM     22 CL   UNL     1      10.971  -5.179  -3.939  0.00  0.00    -0.084 Cl
ENDBRANCH  13  16
ENDBRANCH  11  13
BRANCH  10  23
ATOM     23  C   UNL     1       2.642  -4.399   0.056  0.00  0.00    +0.129 C 
BRANCH  23  24
ATOM     24  C   UNL     1       2.654  -2.904   0.239  0.00  0.00    +0.220 C 
ATOM     25  O   UNL     1       3.687  -2.284   0.096  0.00  0.00    -0.275 OA
ATOM     26  N   UNL     1       1.518  -2.255   0.562  0.00  0.00    -0.285 N 
ATOM     27  H   UNL     1       0.598  -2.823   0.762  0.00  0.00    +0.155 HD
BRANCH  26  28
ATOM     28  C   UNL     1       1.509  -0.857   0.643  0.00  0.00    +0.033 A 
ATOM     29  C   UNL     1       0.384  -0.145   0.248  0.00  0.00    +0.025 A 
ATOM     30  C   UNL     1       0.377   1.234   0.330  0.00  0.00    +0.022 A 
ATOM     31  C   UNL     1       1.490   1.905   0.803  0.00  0.00    +0.041 A 
ATOM     32  C   UNL     1       2.613   1.198   1.196  0.00  0.00    +0.022 A 
ATOM     33  C   UNL     1       2.625  -0.181   1.117  0.00  0.00    +0.025 A 
ATOM     34 CL   UNL     1       1.479   3.638   0.903  0.00  0.00    -0.084 Cl
ENDBRANCH  26  28
ENDBRANCH  23  24
ENDBRANCH  10  23
TORSDOF 5
