REMARK  Name = ZINC48032733
REMARK  4 active torsions:
REMARK  status: ('A' for Active; 'I' for Inactive)
REMARK    1  A    between atoms: C_3  and  C_6
REMARK    2  A    between atoms: N_9  and  C_11
REMARK    3  A    between atoms: C_11  and  C_12
REMARK    4  A    between atoms: C_12  and  C_14
REMARK                            x       y       z     vdW  Elec       q    Type
REMARK                         _______ _______ _______ _____ _____    ______ ____
ROOT
ATOM      1  C   UNL     1       3.575   0.619  -0.029  0.00  0.00    +0.239 A 
ATOM      2  N   UNL     1       4.402   1.676  -0.025  0.00  0.00    -0.105 NA
ATOM      3  N   UNL     1       5.608   1.217  -0.041  0.00  0.00    -0.045 NA
ATOM      4  N   UNL     1       5.567  -0.069  -0.055  0.00  0.00    -0.155 N 
ATOM      5  N   UNL     1       4.338  -0.458  -0.042  0.00  0.00    -0.127 NA
ENDROOT
BRANCH   1   8
ATOM      6  C   UNL     1      -0.016   1.343   0.009  0.00  0.00    +0.042 A 
ATOM      7  C   UNL     1       1.326   1.774  -0.001  0.00  0.00    +0.053 A 
ATOM      8  C   UNL     1       2.096   0.655  -0.014  0.00  0.00    +0.175 A 
ATOM      9  O   UNL     1       1.280  -0.416  -0.012  0.00  0.00    -0.460 OA
ATOM     10  C   UNL     1       0.002  -0.004   0.002  0.00  0.00    +0.196 A 
ENDBRANCH   1   8
BRANCH   4  11
ATOM     11  C   UNL     1       6.734  -0.954  -0.076  0.00  0.00    +0.247 C 
BRANCH  11  12
ATOM     12  C   UNL     1       7.148  -1.273   1.337  0.00  0.00    +0.186 C 
ATOM     13  O   UNL     1       6.529  -0.808   2.270  0.00  0.00    -0.290 OA
BRANCH  12  14
ATOM     14  C   UNL     1       8.304  -2.150   1.585  0.00  0.00    +0.019 A 
ATOM     15  C   UNL     1       9.024  -2.684   0.511  0.00  0.00    +0.012 A 
ATOM     16  C   UNL     1      10.105  -3.504   0.751  0.00  0.00    +0.015 A 
ATOM     17  C   UNL     1      10.480  -3.799   2.051  0.00  0.00    +0.013 A 
ATOM     18  C   UNL     1       9.772  -3.274   3.120  0.00  0.00    +0.015 A 
ATOM     19  C   UNL     1       8.691  -2.448   2.895  0.00  0.00    +0.012 A 
ATOM     20  I   UNL     1      12.125  -5.047   2.404  0.00  0.00    -0.044 I 
ENDBRANCH  12  14
ENDBRANCH  11  12
ENDBRANCH   4  11
TORSDOF 4
