REMARK  Name = ZINC07891166
REMARK  3 active torsions:
REMARK  status: ('A' for Active; 'I' for Inactive)
REMARK    1  A    between atoms: C_1  and  C_2
REMARK    2  A    between atoms: C_4  and  C_19
REMARK    3  A    between atoms: N_8  and  N_9
REMARK                            x       y       z     vdW  Elec       q    Type
REMARK                         _______ _______ _______ _____ _____    ______ ____
ROOT
ATOM      1  C   UNL     1       3.551   2.245  -0.019  0.00  0.00    +0.066 C 
ATOM      2  C   UNL     1       2.283   1.431  -0.012  0.00  0.00    +0.044 A 
ATOM      3  C   UNL     1       2.338   0.046  -0.020  0.00  0.00    +0.046 A 
ATOM      4  C   UNL     1       1.148  -0.665  -0.013  0.00  0.00    +0.044 A 
ATOM      5  N   UNL     1       0.002  -0.004   0.002  0.00  0.00    -0.218 NA
ATOM      6  C   UNL     1      -0.016   1.321   0.009  0.00  0.00    +0.235 A 
ATOM      7  N   UNL     1       1.104   2.030   0.002  0.00  0.00    -0.218 NA
ATOM      8  N   UNL     1      -1.234   1.980   0.019  0.00  0.00    -0.205 N 
ATOM      9  C   UNL     1       1.159  -2.171  -0.020  0.00  0.00    +0.066 C 
ATOM     10  H   UNL     1      -2.060   1.473   0.020  0.00  0.00    +0.177 HD
ENDROOT
BRANCH   8  11
ATOM     11  N   UNL     1      -1.272   3.381   0.026  0.00  0.00    -0.189 NA
ATOM     12  C   UNL     1      -2.397   3.991   0.035  0.00  0.00    +0.041 C 
ATOM     13  C   UNL     1      -3.855   3.586   0.040  0.00  0.00    +0.061 C 
ATOM     14  C   UNL     1      -4.176   4.944  -0.605  0.00  0.00    +0.026 C 
ATOM     15  C   UNL     1      -2.855   5.432   0.052  0.00  0.00    +0.046 C 
ATOM     16  C   UNL     1      -3.353   5.906   1.429  0.00  0.00    +0.037 C 
ATOM     17  C   UNL     1      -4.813   6.236   1.222  0.00  0.00    -0.030 C 
ATOM     18  C   UNL     1      -5.261   5.711   0.114  0.00  0.00    -0.027 C 
ENDBRANCH   8  11
TORSDOF 1
