REMARK  Name = ZINC24527655
REMARK  5 active torsions:
REMARK  status: ('A' for Active; 'I' for Inactive)
REMARK    1  A    between atoms: C_6  and  C_7
REMARK    2  A    between atoms: C_7  and  C_9
REMARK    3  A    between atoms: C_7  and  N_12
REMARK    4  A    between atoms: C_21  and  S_24
REMARK    5  A    between atoms: S_24  and  N_27
REMARK                            x       y       z     vdW  Elec       q    Type
REMARK                         _______ _______ _______ _____ _____    ______ ____
ROOT
ATOM      1  N   UNL     1      -2.433   0.975   0.019  0.00  0.00    +0.392 N 
ATOM      2  C   UNL     1      -3.733   1.656  -0.062  0.00  0.00    -0.058 C 
ATOM      3  C   UNL     1      -4.849   0.612  -0.140  0.00  0.00    +0.088 C 
ATOM      4  N   UNL     1      -4.786  -0.258   1.043  0.00  0.00    -0.319 N 
ATOM      5  C   UNL     1      -3.486  -0.939   1.124  0.00  0.00    +0.088 C 
ATOM      6  C   UNL     1      -2.370   0.105   1.202  0.00  0.00    -0.058 C 
ATOM      7  C   UNL     1      -5.830  -1.175   1.043  0.00  0.00    +0.121 A 
ATOM      8  C   UNL     1      -7.145  -0.724   0.978  0.00  0.00    +0.045 A 
ATOM      9  C   UNL     1      -8.174  -1.648   0.972  0.00  0.00    +0.033 A 
ATOM     10  C   UNL     1      -7.853  -2.998   1.045  0.00  0.00    +0.124 A 
ATOM     11  C   UNL     1      -6.527  -3.374   1.114  0.00  0.00    +0.141 A 
ATOM     12  N   UNL     1      -5.565  -2.471   1.111  0.00  0.00    -0.238 NA
ATOM     13  H   UNL     1      -2.325   0.341  -0.874  0.00  0.00    -0.080 HD
ENDROOT
BRANCH  10  14
ATOM     14  S   UNL     1      -9.126  -4.216   1.048  0.00  0.00    +0.062 S 
ATOM     15  O   UNL     1     -10.257  -3.623   0.425  0.00  0.00    -0.153 OA
ATOM     16  O   UNL     1      -8.538  -5.419   0.572  0.00  0.00    -0.153 OA
BRANCH  14  17
ATOM     17  N   UNL     1      -9.542  -4.485   2.628  0.00  0.00    -0.177 NA
ATOM     18  C   UNL     1      -8.937  -5.490   3.514  0.00  0.00    +0.109 C 
ATOM     19  C   UNL     1      -9.656  -5.392   4.876  0.00  0.00    +0.018 C 
ATOM     20  C   UNL     1     -11.011  -4.733   4.505  0.00  0.00    +0.018 C 
ATOM     21  C   UNL     1     -10.585  -3.761   3.377  0.00  0.00    +0.109 C 
ENDBRANCH  14  17
ENDBRANCH  10  14
BRANCH   1  22
ATOM     22  C   UNL     1      -1.330   1.944   0.019  0.00  0.00    +0.050 C 
BRANCH  22  28
ATOM     23  C   UNL     1      -1.780   2.262  -2.423  0.00  0.00    +0.004 A 
ATOM     24  C   UNL     1      -1.874   3.062  -3.546  0.00  0.00    +0.020 A 
ATOM     25  C   UNL     1      -1.604   4.416  -3.455  0.00  0.00    +0.041 A 
ATOM     26  C   UNL     1      -1.246   4.969  -2.238  0.00  0.00    +0.020 A 
ATOM     27  C   UNL     1      -1.158   4.169  -1.115  0.00  0.00    +0.004 A 
ATOM     28  C   UNL     1      -1.427   2.816  -1.206  0.00  0.00    -0.052 A 
ATOM     29 CL   UNL     1      -1.715   5.420  -4.867  0.00  0.00    -0.084 Cl
ENDBRANCH  22  28
BRANCH  22  30
ATOM     30  C   UNL     1      -0.014   1.209   0.009  0.00  0.00    +0.201 C 
ATOM     31  O   UNL     1       0.002  -0.004   0.002  0.00  0.00    -0.277 OA
ATOM     32  N   UNL     1       1.143   1.898   0.001  0.00  0.00    -0.330 N 
ATOM     33  H   UNL     1       2.103   1.361  -0.006  0.00  0.00    +0.145 HD
ATOM     34  H   UNL     1       1.129   2.998   0.003  0.00  0.00    +0.145 HD
ENDBRANCH  22  30
ENDBRANCH   1  22
TORSDOF 5
