REMARK  Name = ZINC63426825
REMARK  13 active torsions:
REMARK  status: ('A' for Active; 'I' for Inactive)
REMARK    1  A    between atoms: C_1  and  C_2
REMARK    2  A    between atoms: C_7  and  C_8
REMARK    3  A    between atoms: C_8  and  S_9
REMARK    4  A    between atoms: S_9  and  C_10
REMARK    5  A    between atoms: C_14  and  C_17
REMARK    6  A    between atoms: C_17  and  C_19
REMARK    7  A    between atoms: C_17  and  N_29
REMARK    8  A    between atoms: C_19  and  C_20
REMARK    9  A    between atoms: C_30  and  O_32
REMARK   10  A    between atoms: O_32  and  C_33
REMARK   11  A    between atoms: C_33  and  C_34
REMARK   12  A    between atoms: C_33  and  C_35
REMARK   13  A    between atoms: C_33  and  C_36
REMARK                            x       y       z     vdW  Elec       q    Type
REMARK                         _______ _______ _______ _____ _____    ______ ____
ROOT
ATOM      1  C   UNL     1       1.369   0.976   6.661  0.00  0.00    +0.133 C 
ENDROOT
BRANCH   1   5
ATOM      2  C   UNL     1      -1.508   1.218   4.613  0.00  0.00    +0.319 C 
ATOM      3  N   UNL     1      -0.736   2.451   4.410  0.00  0.00    -0.146 NA
ATOM      4  N   UNL     1       0.425   2.296   4.811  0.00  0.00    -0.155 NA
ATOM      5  C   UNL     1       0.600   0.937   5.339  0.00  0.00    +0.280 C 
ATOM      6  O   UNL     1      -0.740   0.438   5.552  0.00  0.00    -0.316 OA
BRANCH   2   7
ATOM      7  S   UNL     1      -1.684   0.321   3.046  0.00  0.00    -0.100 S 
BRANCH   7   8
ATOM      8  C   UNL     1       0.025   0.045   2.504  0.00  0.00    +0.109 C 
BRANCH   8  15
ATOM      9  C   UNL     1      -0.018   1.503   0.010  0.00  0.00    +0.044 C 
ATOM     10  C   UNL     1       0.002  -0.004   0.002  0.00  0.00    -0.046 A 
ATOM     11  C   UNL     1       0.006  -0.689  -1.199  0.00  0.00    +0.003 A 
ATOM     12  C   UNL     1       0.025  -2.071  -1.207  0.00  0.00    +0.000 A 
ATOM     13  C   UNL     1       0.040  -2.768  -0.013  0.00  0.00    +0.000 A 
ATOM     14  C   UNL     1       0.037  -2.084   1.188  0.00  0.00    +0.005 A 
ATOM     15  C   UNL     1       0.023  -0.702   1.195  0.00  0.00    -0.035 A 
ENDBRANCH   8  15
ENDBRANCH   7   8
ENDBRANCH   2   7
ENDBRANCH   1   5
BRANCH   1  16
ATOM     16  N   UNL     1       1.503  -0.384   7.189  0.00  0.00    -0.274 N 
ATOM     17  C   UNL     1       2.141  -1.327   6.468  0.00  0.00    +0.401 C 
ATOM     18  O   UNL     1       2.606  -1.049   5.380  0.00  0.00    -0.226 OA
ATOM     19  H   UNL     1       1.132  -0.605   8.057  0.00  0.00    +0.152 HD
BRANCH  17  20
ATOM     20  O   UNL     1       2.264  -2.577   6.953  0.00  0.00    -0.445 OA
BRANCH  20  21
ATOM     21  C   UNL     1       2.952  -3.525   6.136  0.00  0.00    +0.107 C 
ATOM     22  C   UNL     1       4.381  -3.040   5.884  0.00  0.00    +0.055 C 
ATOM     23  C   UNL     1       2.991  -4.879   6.848  0.00  0.00    +0.055 C 
ATOM     24  C   UNL     1       2.221  -3.673   4.800  0.00  0.00    +0.055 C 
ENDBRANCH  20  21
ENDBRANCH  17  20
ENDBRANCH   1  16
BRANCH   1  25
ATOM     25  C   UNL     1       2.760   1.570   6.424  0.00  0.00    +0.060 C 
BRANCH  25  26
ATOM     26  C   UNL     1       3.472   1.723   7.743  0.00  0.00    -0.040 C 
ATOM     27  C   UNL     1       4.342   0.851   8.303  0.00  0.00    -0.001 A 
ATOM     28  C   UNL     1       4.864  -0.451   7.869  0.00  0.00    +0.010 A 
ATOM     29  C   UNL     1       5.742  -1.103   8.663  0.00  0.00    +0.001 A 
ATOM     30  C   UNL     1       6.167  -0.569   9.887  0.00  0.00    +0.002 A 
ATOM     31  C   UNL     1       5.732   0.621  10.354  0.00  0.00    +0.026 A 
ATOM     32  C   UNL     1       4.806   1.394   9.600  0.00  0.00    +0.043 A 
ATOM     33  N   UNL     1       4.245   2.555   9.832  0.00  0.00    -0.380 N 
ATOM     34  C   UNL     1       3.365   2.884   8.705  0.00  0.00    +0.144 C 
ATOM     35  H   UNL     1       4.390   3.107  10.617  0.00  0.00    +0.160 HD
ENDBRANCH  25  26
ENDBRANCH   1  25
TORSDOF 9
