REMARK  Name = ZINC35938605
REMARK  8 active torsions:
REMARK  status: ('A' for Active; 'I' for Inactive)
REMARK    1  A    between atoms: C_1  and  C_2
REMARK    2  A    between atoms: C_9  and  C_11
REMARK    3  A    between atoms: C_11  and  S_12
REMARK    4  A    between atoms: S_12  and  C_13
REMARK    5  A    between atoms: C_19  and  C_21
REMARK    6  A    between atoms: C_21  and  C_22
REMARK    7  A    between atoms: C_22  and  N_23
REMARK    8  A    between atoms: C_31  and  C_33
REMARK                            x       y       z     vdW  Elec       q    Type
REMARK                         _______ _______ _______ _____ _____    ______ ____
ROOT
ATOM      1  C   UNL     1       0.003   1.527  -0.003  0.00  0.00    +0.029 C 
ATOM      2  C   UNL     1       0.013  -0.003  -0.005  0.00  0.00    +0.090 C 
ATOM      3  C   UNL     1       0.631  -0.512  -1.314  0.00  0.00    +0.130 C 
ATOM      4  N   UNL     1       0.870  -1.956  -1.189  0.00  0.00    -0.298 N 
ATOM      5  C   UNL     1       1.681  -2.446  -0.065  0.00  0.00    +0.127 C 
ATOM      6  C   UNL     1       1.063  -1.937   1.243  0.00  0.00    +0.127 C 
ATOM      7  N   UNL     1       0.820  -0.492   1.121  0.00  0.00    -0.295 N 
ATOM      8  C   UNL     1       1.333   0.368   2.023  0.00  0.00    +0.226 C 
ATOM      9  O   UNL     1       1.046   1.545   1.968  0.00  0.00    -0.275 OA
ATOM     10  C   UNL     1       0.356  -2.817  -2.090  0.00  0.00    +0.214 C 
ATOM     11  O   UNL     1      -0.311  -2.401  -3.014  0.00  0.00    -0.276 OA
ENDROOT
BRANCH   8  12
ATOM     12  C   UNL     1       2.261  -0.133   3.099  0.00  0.00    +0.170 C 
BRANCH  12  13
ATOM     13  S   UNL     1       2.776   1.256   4.147  0.00  0.00    -0.116 S 
BRANCH  13  14
ATOM     14  C   UNL     1       3.843   0.517   5.339  0.00  0.00    +0.008 A 
ATOM     15  C   UNL     1       4.099  -0.848   5.293  0.00  0.00    +0.015 A 
ATOM     16  C   UNL     1       4.936  -1.424   6.229  0.00  0.00    +0.001 A 
ATOM     17  C   UNL     1       5.519  -0.643   7.211  0.00  0.00    +0.000 A 
ATOM     18  C   UNL     1       5.266   0.716   7.260  0.00  0.00    +0.001 A 
ATOM     19  C   UNL     1       4.435   1.299   6.323  0.00  0.00    +0.015 A 
ENDBRANCH  13  14
ENDBRANCH  12  13
ENDBRANCH   8  12
BRANCH  10  20
ATOM     20  C   UNL     1       0.610  -4.296  -1.950  0.00  0.00    +0.077 C 
BRANCH  20  21
ATOM     21  C   UNL     1      -0.081  -5.043  -3.093  0.00  0.00    -0.068 C 
BRANCH  21  22
ATOM     22  N   UNL     1       0.167  -6.484  -2.956  0.00  0.00    +0.388 N 
ATOM     23  C   UNL     1      -0.448  -6.964  -1.711  0.00  0.00    -0.072 C 
ATOM     24  C   UNL     1       0.085  -8.374  -1.404  0.00  0.00    +0.024 C 
ATOM     25  C   UNL     1      -0.004  -9.173  -2.663  0.00  0.00    -0.010 A 
ATOM     26  C   UNL     1      -0.224  -8.685  -3.917  0.00  0.00    -0.047 A 
ATOM     27  C   UNL     1      -0.274  -9.620  -4.947  0.00  0.00    +0.010 A 
ATOM     28  C   UNL     1      -0.104 -10.936  -4.676  0.00  0.00    +0.045 A 
ATOM     29  S   UNL     1       0.140 -10.920  -2.906  0.00  0.00    -0.101 S 
ATOM     30  C   UNL     1      -0.395  -7.183  -4.118  0.00  0.00    -0.006 C 
ATOM     31  H   UNL     1       1.161  -6.648  -2.919  0.00  0.00    -0.080 HD
BRANCH  30  32
ATOM     32  C   UNL     1       0.333  -6.754  -5.366  0.00  0.00    -0.057 A 
ATOM     33  C   UNL     1       1.704  -6.577  -5.340  0.00  0.00    +0.002 A 
ATOM     34  C   UNL     1       2.371  -6.184  -6.485  0.00  0.00    +0.000 A 
ATOM     35  C   UNL     1       1.668  -5.967  -7.655  0.00  0.00    +0.000 A 
ATOM     36  C   UNL     1       0.298  -6.145  -7.681  0.00  0.00    +0.000 A 
ATOM     37  C   UNL     1      -0.369  -6.542  -6.537  0.00  0.00    +0.002 A 
ENDBRANCH  30  32
ENDBRANCH  21  22
ENDBRANCH  20  21
ENDBRANCH  10  20
TORSDOF 7
