REMARK  Name = ZINC11815979
REMARK  8 active torsions:
REMARK  status: ('A' for Active; 'I' for Inactive)
REMARK    1  A    between atoms: C_2  and  C_3
REMARK    2  A    between atoms: C_3  and  C_4
REMARK    3  A    between atoms: C_4  and  C_28
REMARK    4  A    between atoms: C_9  and  C_11
REMARK    5  A    between atoms: C_11  and  C_12
REMARK    6  A    between atoms: C_19  and  C_20
REMARK    7  A    between atoms: C_19  and  N_59
REMARK    8  A    between atoms: C_28  and  C_29
REMARK                            x       y       z     vdW  Elec       q    Type
REMARK                         _______ _______ _______ _____ _____    ______ ____
ROOT
ATOM      1  C   UNL     1      -5.348   3.278   2.792  0.00  0.00    +0.028 C 
ATOM      2  C   UNL     1      -4.937   4.670   3.182  0.00  0.00    +0.200 C 
ATOM      3  O   UNL     1      -3.764   4.969   3.116  0.00  0.00    -0.278 OA
ATOM      4  N   UNL     1      -5.811   5.592   3.599  0.00  0.00    -0.318 N 
ATOM      5  C   UNL     1      -7.248   5.345   3.681  0.00  0.00    +0.085 C 
ATOM      6  C   UNL     1      -7.522   3.840   3.673  0.00  0.00    -0.058 C 
ATOM      7  H   UNL     1      -5.475   6.464   3.859  0.00  0.00    +0.149 HD
ATOM      8  N   UNL     1      -6.799   3.249   2.528  0.00  0.00    +0.391 N 
ATOM      9  H   UNL     1      -6.998   3.800   1.685  0.00  0.00    -0.080 HD
ENDROOT
BRANCH   1  10
ATOM     10  C   UNL     1      -4.603   2.866   1.520  0.00  0.00    +0.090 C 
BRANCH  10  16
ATOM     11  C   UNL     1      -0.805   2.297   0.989  0.00  0.00    +0.044 C 
ATOM     12  C   UNL     1      -0.219   2.081  -0.423  0.00  0.00    +0.028 C 
ATOM     13  C   UNL     1      -1.293   2.710  -1.349  0.00  0.00    +0.021 C 
ATOM     14  C   UNL     1      -2.600   2.350  -0.600  0.00  0.00    +0.108 C 
ATOM     15  N   UNL     1      -2.261   2.472   0.830  0.00  0.00    -0.295 N 
ATOM     16  C   UNL     1      -3.136   2.706   1.827  0.00  0.00    +0.215 C 
ATOM     17  O   UNL     1      -2.744   2.788   2.972  0.00  0.00    -0.276 OA
BRANCH  11  18
ATOM     18  C   UNL     1      -0.517   1.076   1.864  0.00  0.00    +0.052 C 
BRANCH  18  20
ATOM     19  C   UNL     1       1.589   0.742   3.053  0.00  0.00    +0.004 C 
ATOM     20  C   UNL     1       0.969   0.825   1.903  0.00  0.00    -0.032 C 
ENDBRANCH  18  20
ENDBRANCH  11  18
BRANCH  11  21
ATOM     21  C   UNL     1      -0.194   3.550   1.620  0.00  0.00    +0.052 C 
BRANCH  21  22
ATOM     22  C   UNL     1      -0.517   4.750   0.768  0.00  0.00    -0.032 C 
ATOM     23  C   UNL     1      -1.192   5.752   1.275  0.00  0.00    +0.004 C 
ENDBRANCH  21  22
ENDBRANCH  11  21
ENDBRANCH  10  16
ENDBRANCH   1  10
BRANCH   8  24
ATOM     24  C   UNL     1      -7.246   1.855   2.309  0.00  0.00    -0.040 C 
BRANCH  24  25
ATOM     25  C   UNL     1      -8.746   1.835   2.163  0.00  0.00    -0.045 A 
ATOM     26  C   UNL     1      -9.539   1.452   3.228  0.00  0.00    +0.006 A 
ATOM     27  C   UNL     1     -10.915   1.439   3.097  0.00  0.00    +0.038 A 
ATOM     28  C   UNL     1     -11.499   1.799   1.895  0.00  0.00    +0.125 A 
ATOM     29  C   UNL     1     -10.705   2.177   0.826  0.00  0.00    +0.058 A 
ATOM     30  C   UNL     1      -9.328   2.195   0.961  0.00  0.00    +0.045 A 
ATOM     31 CL   UNL     1      -8.331   2.669  -0.379  0.00  0.00    -0.083 Cl
ATOM     32  F   UNL     1     -12.844   1.780   1.764  0.00  0.00    -0.205 F 
ENDBRANCH  24  25
ENDBRANCH   8  24
TORSDOF 8
