REMARK  Name = ZINC36065313
REMARK  10 active torsions:
REMARK  status: ('A' for Active; 'I' for Inactive)
REMARK    1  A    between atoms: C_3  and  C_11
REMARK    2  A    between atoms: C_5  and  C_7
REMARK    3  A    between atoms: C_11  and  N_12
REMARK    4  A    between atoms: N_12  and  C_13
REMARK    5  A    between atoms: N_12  and  C_21
REMARK    6  A    between atoms: C_13  and  C_14
REMARK    7  A    between atoms: C_21  and  C_22
REMARK    8  A    between atoms: C_24  and  C_27
REMARK    9  A    between atoms: N_29  and  C_30
REMARK   10  A    between atoms: C_30  and  C_31
REMARK                            x       y       z     vdW  Elec       q    Type
REMARK                         _______ _______ _______ _____ _____    ______ ____
ROOT
ATOM      1  N   UNL     1       4.039   2.329   1.410  0.00  0.00    +0.391 N 
ATOM      2  H   UNL     1       4.162   1.451   1.892  0.00  0.00    -0.080 HD
ENDROOT
BRANCH   1   3
ATOM      3  C   UNL     1       3.642   2.073   0.020  0.00  0.00    -0.042 C 
BRANCH   3   6
ATOM      4  C   UNL     1       5.447  -1.061  -1.062  0.00  0.00    +0.001 A 
ATOM      5  C   UNL     1       4.528  -0.216  -0.467  0.00  0.00    +0.002 A 
ATOM      6  C   UNL     1       4.643   1.152  -0.628  0.00  0.00    -0.063 A 
ATOM      7  C   UNL     1       5.676   1.675  -1.383  0.00  0.00    +0.014 A 
ATOM      8  C   UNL     1       6.595   0.830  -1.976  0.00  0.00    +0.055 A 
ATOM      9  C   UNL     1       6.479  -0.538  -1.817  0.00  0.00    +0.012 A 
BRANCH   8  10
ATOM     10  C   UNL     1       7.721   1.400  -2.800  0.00  0.00    +0.417 C 
ATOM     11  F   UNL     1       8.826   1.641  -1.976  0.00  0.00    -0.166 F 
ATOM     12  F   UNL     1       8.075   0.488  -3.801  0.00  0.00    -0.166 F 
ATOM     13  F   UNL     1       7.307   2.600  -3.388  0.00  0.00    -0.166 F 
ENDBRANCH   8  10
ENDBRANCH   3   6
ENDBRANCH   1   3
BRANCH   1  14
ATOM     14  C   UNL     1       2.995   3.114   2.082  0.00  0.00    -0.042 C 
BRANCH  14  15
ATOM     15  C   UNL     1       1.738   2.289   2.191  0.00  0.00    -0.063 A 
ATOM     16  C   UNL     1       0.744   2.416   1.238  0.00  0.00    +0.002 A 
ATOM     17  C   UNL     1      -0.409   1.659   1.337  0.00  0.00    +0.002 A 
ATOM     18  C   UNL     1      -0.569   0.776   2.389  0.00  0.00    +0.020 A 
ATOM     19  C   UNL     1       0.426   0.650   3.342  0.00  0.00    +0.041 A 
ATOM     20  C   UNL     1       1.582   1.403   3.239  0.00  0.00    +0.021 A 
ATOM     21 CL   UNL     1       0.226  -0.459   4.663  0.00  0.00    -0.084 Cl
ENDBRANCH  14  15
ENDBRANCH   1  14
BRANCH   1  22
ATOM     22  C   UNL     1       5.303   3.078   1.429  0.00  0.00    +0.020 C 
BRANCH  22  23
ATOM     23  C   UNL     1       5.774   3.234   2.851  0.00  0.00    +0.179 A 
ATOM     24  N   UNL     1       6.553   2.407   3.481  0.00  0.00    -0.210 NA
ATOM     25  C   UNL     1       6.758   2.880   4.740  0.00  0.00    +0.163 A 
ATOM     26  C   UNL     1       6.061   4.044   4.848  0.00  0.00    +0.230 A 
ATOM     27  O   UNL     1       5.460   4.252   3.666  0.00  0.00    -0.449 OA
BRANCH  25  28
ATOM     28  C   UNL     1       7.579   2.250   5.790  0.00  0.00    +0.266 C 
ATOM     29  O   UNL     1       7.681   2.778   6.880  0.00  0.00    -0.268 OA
ATOM     30  N   UNL     1       8.217   1.089   5.540  0.00  0.00    -0.303 N 
ATOM     31  H   UNL     1       8.135   0.668   4.670  0.00  0.00    +0.150 HD
BRANCH  30  32
ATOM     32  C   UNL     1       9.033   0.463   6.583  0.00  0.00    +0.179 C 
BRANCH  32  33
ATOM     33  C   UNL     1       9.632  -0.814   6.054  0.00  0.00    +0.122 A 
ATOM     34  C   UNL     1      10.819  -0.927   5.432  0.00  0.00    +0.046 A 
ATOM     35  C   UNL     1      10.983  -2.294   5.107  0.00  0.00    +0.041 A 
ATOM     36  C   UNL     1       9.886  -2.934   5.550  0.00  0.00    +0.195 A 
ATOM     37  O   UNL     1       9.074  -2.033   6.128  0.00  0.00    -0.466 OA
ENDBRANCH  32  33
ENDBRANCH  30  32
ENDBRANCH  25  28
ENDBRANCH  22  23
ENDBRANCH   1  22
TORSDOF 10
