REMARK  Name = ZINC41606559
REMARK  5 active torsions:
REMARK  status: ('A' for Active; 'I' for Inactive)
REMARK    1  A    between atoms: C_1  and  C_2
REMARK    2  A    between atoms: C_3  and  N_9
REMARK    3  A    between atoms: C_10  and  C_12
REMARK    4  A    between atoms: C_12  and  S_13
REMARK    5  A    between atoms: S_13  and  C_14
REMARK                            x       y       z     vdW  Elec       q    Type
REMARK                         _______ _______ _______ _____ _____    ______ ____
ROOT
ATOM      1  N   UNL     1      -0.010   0.011  -2.413  0.00  0.00    -0.285 N 
ATOM      2  C   UNL     1       0.095  -0.653  -3.581  0.00  0.00    +0.227 C 
ATOM      3  O   UNL     1       0.112  -1.866  -3.590  0.00  0.00    -0.275 OA
ATOM      4  H   UNL     1      -0.104   0.977  -2.411  0.00  0.00    +0.155 HD
ENDROOT
BRANCH   1   7
ATOM      5  C   UNL     1      -1.263   1.190  -0.146  0.00  0.00    +0.047 C 
ATOM      6  C   UNL     1      -0.583  -0.153  -0.073  0.00  0.00    -0.011 A 
ATOM      7  C   UNL     1       0.017  -0.692  -1.204  0.00  0.00    +0.038 A 
ATOM      8  C   UNL     1       0.642  -1.929  -1.132  0.00  0.00    +0.023 A 
ATOM      9  C   UNL     1       0.667  -2.621   0.064  0.00  0.00    +0.003 A 
ATOM     10  C   UNL     1       0.069  -2.084   1.188  0.00  0.00    +0.020 A 
ATOM     11  C   UNL     1      -0.550  -0.848   1.122  0.00  0.00    +0.046 A 
ATOM     12 CL   UNL     1      -1.293  -0.173   2.538  0.00  0.00    -0.083 Cl
ENDBRANCH   1   7
BRANCH   2  13
ATOM     13  C   UNL     1       0.192   0.111  -4.876  0.00  0.00    +0.173 C 
BRANCH  13  14
ATOM     14  S   UNL     1       0.322  -1.057  -6.259  0.00  0.00    -0.077 S 
BRANCH  14  15
ATOM     15  C   UNL     1       0.425  -0.023  -7.682  0.00  0.00    +0.192 A 
ATOM     16  N   UNL     1       0.401   1.294  -7.532  0.00  0.00    -0.183 NA
ATOM     17  C   UNL     1       0.478   2.084  -8.589  0.00  0.00    +0.278 A 
ATOM     18  O   UNL     1       0.453   3.429  -8.431  0.00  0.00    -0.265 OA
ATOM     19  C   UNL     1       0.587   1.529  -9.878  0.00  0.00    +0.051 A 
ATOM     20  C   UNL     1       0.609   0.163  -9.992  0.00  0.00    +0.063 A 
ATOM     21  N   UNL     1       0.531  -0.573  -8.876  0.00  0.00    -0.226 NA
ATOM     22  C   UNL     1       0.727  -0.411 -11.403  0.00  0.00    +0.125 C 
ATOM     23  S   UNL     1       0.313   1.051 -12.440  0.00  0.00    -0.150 S 
ATOM     24  C   UNL     1       0.683   2.333 -11.173  0.00  0.00    +0.112 C 
ENDBRANCH  14  15
ENDBRANCH  13  14
ENDBRANCH   2  13
TORSDOF 4
