REMARK  Name = ZINC36024237
REMARK  10 active torsions:
REMARK  status: ('A' for Active; 'I' for Inactive)
REMARK    1  A    between atoms: C_1  and  C_2
REMARK    2  A    between atoms: C_2  and  C_4
REMARK    3  A    between atoms: C_2  and  N_10
REMARK    4  A    between atoms: C_13  and  C_29
REMARK    5  A    between atoms: N_24  and  C_25
REMARK    6  A    between atoms: C_25  and  C_26
REMARK    7  A    between atoms: C_25  and  C_27
REMARK    8  A    between atoms: C_25  and  C_28
REMARK    9  A    between atoms: C_29  and  C_30
REMARK   10  A    between atoms: C_29  and  C_31
REMARK                            x       y       z     vdW  Elec       q    Type
REMARK                         _______ _______ _______ _____ _____    ______ ____
ROOT
ATOM      1  N   UNL     1       0.768  -0.366  -1.286  0.00  0.00    -0.307 N 
ATOM      2  C   UNL     1       1.991   0.094  -1.621  0.00  0.00    +0.201 C 
ATOM      3  O   UNL     1       2.673   0.845  -0.955  0.00  0.00    -0.277 OA
ATOM      4  C   UNL     1       2.370  -0.484  -2.967  0.00  0.00    +0.022 C 
ATOM      5  N   UNL     1       1.440  -1.622  -3.165  0.00  0.00    +0.401 N 
ATOM      6  C   UNL     1       0.270  -1.247  -2.346  0.00  0.00    +0.007 C 
ATOM      7  C   UNL     1      -0.747  -0.508  -3.214  0.00  0.00    +0.025 C 
ATOM      8  C   UNL     1      -1.942  -0.088  -2.351  0.00  0.00    +0.109 C 
ATOM      9  N   UNL     1      -2.470  -1.276  -1.666  0.00  0.00    -0.286 N 
ATOM     10  C   UNL     1      -1.552  -2.097  -0.865  0.00  0.00    +0.109 C 
ATOM     11  C   UNL     1      -0.360  -2.500  -1.740  0.00  0.00    +0.025 C 
ATOM     12  C   UNL     1      -3.773  -1.606  -1.771  0.00  0.00    +0.303 C 
ATOM     13  O   UNL     1      -4.179  -2.640  -1.278  0.00  0.00    -0.253 OA
ATOM     14  N   UNL     1      -4.625  -0.789  -2.421  0.00  0.00    -0.294 N 
ATOM     15  H   UNL     1       1.184  -1.708  -4.138  0.00  0.00    -0.082 HD
ATOM     16  H   UNL     1      -4.290   0.002  -2.872  0.00  0.00    +0.151 HD
ATOM     17  H   UNL     1       1.848  -2.480  -2.825  0.00  0.00    -0.082 HD
ENDROOT
BRANCH  14  18
ATOM     18  C   UNL     1      -6.057  -1.095  -2.446  0.00  0.00    +0.028 C 
ATOM     19  C   UNL     1      -6.597  -1.128  -1.015  0.00  0.00    +0.031 C 
ATOM     20  C   UNL     1      -6.795  -0.018  -3.245  0.00  0.00    +0.031 C 
ATOM     21  C   UNL     1      -6.276  -2.458  -3.106  0.00  0.00    +0.031 C 
ENDBRANCH  14  18
BRANCH   4  22
ATOM     22  C   UNL     1       3.819  -0.975  -2.948  0.00  0.00    -0.023 C 
ATOM     23  C   UNL     1       4.753   0.203  -2.665  0.00  0.00    +0.006 C 
ATOM     24  C   UNL     1       3.985  -2.032  -1.853  0.00  0.00    +0.006 C 
ENDBRANCH   4  22
BRANCH   1  26
ATOM     25  C   UNL     1       0.375   1.397   0.362  0.00  0.00    +0.033 C 
ATOM     26  C   UNL     1       0.051  -0.040  -0.051  0.00  0.00    +0.101 C 
BRANCH  26  27
ATOM     27  C   UNL     1       0.478  -0.986   1.042  0.00  0.00    -0.027 A 
ATOM     28  C   UNL     1       1.779  -1.450   1.085  0.00  0.00    +0.005 A 
ATOM     29  C   UNL     1       2.171  -2.317   2.088  0.00  0.00    +0.000 A 
ATOM     30  C   UNL     1       1.261  -2.720   3.047  0.00  0.00    +0.000 A 
ATOM     31  C   UNL     1      -0.040  -2.255   3.005  0.00  0.00    +0.000 A 
ATOM     32  C   UNL     1      -0.431  -1.385   2.005  0.00  0.00    +0.005 A 
ENDBRANCH  26  27
ENDBRANCH   1  26
TORSDOF 4
