REMARK  Name = ZINC09938379
REMARK  4 active torsions:
REMARK  status: ('A' for Active; 'I' for Inactive)
REMARK    1  A    between atoms: C_1  and  C_2
REMARK    2  A    between atoms: N_17  and  C_18
REMARK    3  A    between atoms: C_22  and  C_24
REMARK    4  A    between atoms: N_26  and  C_27
REMARK                            x       y       z     vdW  Elec       q    Type
REMARK                         _______ _______ _______ _____ _____    ______ ____
ROOT
ATOM      1  C   UNL     1       0.330   4.917  -1.127  0.00  0.00    +0.079 C 
ATOM      2  C   UNL     1       0.001   3.744  -0.200  0.00  0.00    +0.185 C 
ATOM      3  C   UNL     1      -1.095   2.881  -0.840  0.00  0.00    +0.096 C 
ATOM      4  C   UNL     1      -1.290   1.659   0.067  0.00  0.00    +0.114 C 
ATOM      5  C   UNL     1      -1.565   2.146   1.464  0.00  0.00    +0.016 A 
ATOM      6  C   UNL     1      -2.242   1.318   2.341  0.00  0.00    +0.029 A 
ATOM      7  C   UNL     1      -2.490   1.732   3.636  0.00  0.00    +0.042 A 
ATOM      8  C   UNL     1      -2.061   2.979   4.056  0.00  0.00    +0.023 A 
ATOM      9  C   UNL     1      -1.391   3.810   3.181  0.00  0.00    +0.047 A 
ATOM     10  C   UNL     1      -1.142   3.397   1.876  0.00  0.00    +0.128 A 
ATOM     11  O   UNL     1      -0.486   4.245   1.042  0.00  0.00    -0.468 OA
ATOM     12 CL   UNL     1      -3.339   0.690   4.735  0.00  0.00    -0.084 Cl
ATOM     13  N   UNL     1      -0.017   0.922   0.106  0.00  0.00    -0.292 N 
ATOM     14  C   UNL     1       1.145   1.597   0.101  0.00  0.00    +0.310 C 
ATOM     15  O   UNL     1       2.185   0.974   0.192  0.00  0.00    -0.252 OA
ATOM     16  N   UNL     1       1.199   2.934  -0.001  0.00  0.00    -0.216 N 
ATOM     17  H   UNL     1      -0.016  -0.048   0.131  0.00  0.00    +0.151 HD
ENDROOT
BRANCH  16  18
ATOM     18  C   UNL     1       2.443   3.571   0.087  0.00  0.00    +0.042 A 
ATOM     19  C   UNL     1       3.469   3.214  -0.780  0.00  0.00    +0.024 A 
ATOM     20  C   UNL     1       4.697   3.843  -0.701  0.00  0.00    +0.003 A 
ATOM     21  C   UNL     1       4.916   4.823   0.246  0.00  0.00    +0.013 A 
ATOM     22  C   UNL     1       3.893   5.186   1.124  0.00  0.00    +0.039 A 
ATOM     23  C   UNL     1       2.652   4.554   1.041  0.00  0.00    +0.036 A 
BRANCH  22  24
ATOM     24  C   UNL     1       4.124   6.235   2.139  0.00  0.00    +0.248 C 
ATOM     25  O   UNL     1       3.232   6.550   2.903  0.00  0.00    -0.270 OA
ATOM     26  N   UNL     1       5.324   6.844   2.218  0.00  0.00    -0.281 N 
ATOM     27  H   UNL     1       6.008   6.655   1.557  0.00  0.00    +0.155 HD
BRANCH  26  28
ATOM     28  C   UNL     1       5.583   7.750   3.253  0.00  0.00    +0.034 A 
ATOM     29  C   UNL     1       6.395   8.853   3.025  0.00  0.00    +0.026 A 
ATOM     30  C   UNL     1       6.646   9.747   4.047  0.00  0.00    +0.040 A 
ATOM     31  C   UNL     1       6.096   9.540   5.301  0.00  0.00    +0.124 A 
ATOM     32  C   UNL     1       5.289   8.438   5.532  0.00  0.00    +0.040 A 
ATOM     33  C   UNL     1       5.032   7.543   4.511  0.00  0.00    +0.026 A 
ATOM     34  F   UNL     1       6.346  10.414   6.300  0.00  0.00    -0.205 F 
ENDBRANCH  26  28
ENDBRANCH  22  24
ENDBRANCH  16  18
TORSDOF 3
