REMARK  Name = ZINC06720787
REMARK  5 active torsions:
REMARK  status: ('A' for Active; 'I' for Inactive)
REMARK    1  A    between atoms: C_1  and  C_2
REMARK    2  A    between atoms: C_5  and  C_8
REMARK    3  A    between atoms: C_14  and  C_22
REMARK    4  A    between atoms: C_16  and  C_20
REMARK    5  A    between atoms: C_17  and  N_19
REMARK                            x       y       z     vdW  Elec       q    Type
REMARK                         _______ _______ _______ _____ _____    ______ ____
ROOT
ATOM      1  C   UNL     1       0.060  -4.246  -0.021  0.00  0.00    +0.084 C 
ATOM      2  N   UNL     1      -0.021  -5.026  -1.065  0.00  0.00    -0.150 NA
ATOM      3  N   UNL     1       0.063  -6.376  -0.723  0.00  0.00    -0.115 NA
ATOM      4  C   UNL     1       0.258  -6.543   0.536  0.00  0.00    +0.227 C 
ATOM      5  C   UNL     1       0.183  -5.159   1.176  0.00  0.00    +0.140 C 
ATOM      6  C   UNL     1       1.526  -4.952   1.886  0.00  0.00    +0.084 C 
ATOM      7  C   UNL     1       1.916  -6.228   2.582  0.00  0.00    +0.095 C 
ATOM      8  C   UNL     1       1.434  -7.447   2.263  0.00  0.00    +0.200 C 
ATOM      9  O   UNL     1       0.515  -7.642   1.278  0.00  0.00    -0.425 OA
ENDROOT
BRANCH   6  10
ATOM     10  C   UNL     1       1.395  -3.844   2.899  0.00  0.00    -0.018 A 
ATOM     11  C   UNL     1       0.489  -3.960   3.937  0.00  0.00    +0.006 A 
ATOM     12  C   UNL     1       0.368  -2.944   4.866  0.00  0.00    +0.002 A 
ATOM     13  C   UNL     1       1.152  -1.810   4.759  0.00  0.00    +0.021 A 
ATOM     14  C   UNL     1       2.059  -1.692   3.721  0.00  0.00    +0.060 A 
ATOM     15  C   UNL     1       2.184  -2.713   2.793  0.00  0.00    +0.063 A 
ATOM     16 CL   UNL     1       3.327  -2.570   1.495  0.00  0.00    -0.082 Cl
ATOM     17 CL   UNL     1       3.043  -0.269   3.586  0.00  0.00    -0.082 Cl
ENDBRANCH   6  10
BRANCH   1  22
ATOM     18  C   UNL     1      -0.018   1.503   0.010  0.00  0.00    +0.044 C 
ATOM     19  C   UNL     1       0.002  -0.004   0.002  0.00  0.00    -0.050 A 
ATOM     20  C   UNL     1       0.426  -0.681  -1.129  0.00  0.00    +0.004 A 
ATOM     21  C   UNL     1       0.447  -2.059  -1.144  0.00  0.00    +0.010 A 
ATOM     22  C   UNL     1       0.040  -2.774  -0.013  0.00  0.00    -0.001 A 
ATOM     23  C   UNL     1      -0.386  -2.083   1.125  0.00  0.00    +0.010 A 
ATOM     24  C   UNL     1      -0.397  -0.704   1.127  0.00  0.00    +0.004 A 
ENDBRANCH   1  22
BRANCH   8  25
ATOM     25  N   UNL     1       1.885  -8.537   2.964  0.00  0.00    -0.328 N 
ATOM     26  H   UNL     1       2.538  -8.421   3.673  0.00  0.00    +0.145 HD
ATOM     27  H   UNL     1       1.552  -9.423   2.752  0.00  0.00    +0.145 HD
ENDBRANCH   8  25
BRANCH   7  28
ATOM     28  C   UNL     1       2.863  -6.144   3.653  0.00  0.00    +0.100 C 
ATOM     29  N   UNL     1       3.613  -6.077   4.503  0.00  0.00    -0.191 NA
ENDBRANCH   7  28
TORSDOF 4
