REMARK  Name = ZINC33655046
REMARK  15 active torsions:
REMARK  status: ('A' for Active; 'I' for Inactive)
REMARK    1  A    between atoms: C_1  and  C_2
REMARK    2  A    between atoms: C_2  and  C_4
REMARK    3  A    between atoms: C_2  and  N_19
REMARK    4  A    between atoms: N_14  and  C_15
REMARK    5  A    between atoms: C_15  and  C_16
REMARK    6  A    between atoms: C_16  and  O_17
REMARK    7  A    between atoms: O_17  and  C_18
REMARK    8  A    between atoms: N_19  and  C_20
REMARK    9  A    between atoms: C_20  and  C_21
REMARK   10  A    between atoms: C_21  and  C_22
REMARK   11  A    between atoms: C_22  and  C_23
REMARK   12  A    between atoms: C_23  and  C_24
REMARK   13  A    between atoms: C_24  and  C_25
REMARK   14  A    between atoms: C_25  and  N_26
REMARK   15  A    between atoms: C_27  and  C_29
REMARK                            x       y       z     vdW  Elec       q    Type
REMARK                         _______ _______ _______ _____ _____    ______ ____
ROOT
ATOM      1  N   UNL     1       0.886   2.950  -0.432  0.00  0.00    -0.288 N 
ATOM      2  C   UNL     1       1.265   3.425   0.771  0.00  0.00    +0.247 C 
ATOM      3  O   UNL     1       0.745   4.427   1.220  0.00  0.00    -0.270 OA
ENDROOT
BRANCH   2   4
ATOM      4  C   UNL     1       2.314   2.727   1.543  0.00  0.00    +0.038 A 
ATOM      5  C   UNL     1       2.339   1.332   1.590  0.00  0.00    +0.014 A 
ATOM      6  C   UNL     1       3.323   0.686   2.308  0.00  0.00    +0.022 A 
ATOM      7  C   UNL     1       4.280   1.418   2.992  0.00  0.00    +0.059 A 
ATOM      8  C   UNL     1       4.258   2.803   2.954  0.00  0.00    +0.060 A 
ATOM      9  C   UNL     1       3.281   3.461   2.233  0.00  0.00    +0.034 A 
ATOM     10 CL   UNL     1       5.462   3.713   3.812  0.00  0.00    -0.082 Cl
ATOM     11 CL   UNL     1       5.511   0.598   3.899  0.00  0.00    -0.082 Cl
ENDBRANCH   2   4
BRANCH   1  13
ATOM     12  C   UNL     1      -0.025   0.776   0.222  0.00  0.00    +0.036 C 
ATOM     13  C   UNL     1       0.947   1.511  -0.704  0.00  0.00    +0.139 C 
BRANCH  13  14
ATOM     14  C   UNL     1       2.348   1.013  -0.460  0.00  0.00    +0.133 A 
ATOM     15  N   UNL     1       3.279   1.886  -0.222  0.00  0.00    -0.232 NA
ATOM     16  C   UNL     1       4.563   1.511   0.006  0.00  0.00    +0.078 A 
ATOM     17  C   UNL     1       5.565   2.450   0.262  0.00  0.00    +0.028 A 
ATOM     18  C   UNL     1       6.855   2.025   0.489  0.00  0.00    +0.002 A 
ATOM     19  C   UNL     1       7.173   0.673   0.467  0.00  0.00    +0.001 A 
ATOM     20  C   UNL     1       6.202  -0.272   0.218  0.00  0.00    +0.015 A 
ATOM     21  C   UNL     1       4.890   0.138  -0.015  0.00  0.00    +0.065 A 
ATOM     22  C   UNL     1       3.812  -0.825  -0.287  0.00  0.00    +0.262 A 
ATOM     23  O   UNL     1       4.026  -2.022  -0.320  0.00  0.00    -0.267 OA
ATOM     24  N   UNL     1       2.570  -0.327  -0.494  0.00  0.00    -0.292 N 
BRANCH  24  25
ATOM     25  C   UNL     1       1.457  -1.241  -0.763  0.00  0.00    +0.154 C 
BRANCH  25  26
ATOM     26  C   UNL     1       1.349  -1.482  -2.270  0.00  0.00    +0.181 C 
BRANCH  26  27
ATOM     27  O   UNL     1       2.518  -2.165  -2.728  0.00  0.00    -0.381 OA
ATOM     28  C   UNL     1       2.518  -2.441  -4.131  0.00  0.00    +0.194 C 
ENDBRANCH  26  27
ENDBRANCH  25  26
ENDBRANCH  24  25
ENDBRANCH  13  14
ENDBRANCH   1  13
BRANCH   1  29
ATOM     29  C   UNL     1       0.412   3.871  -1.467  0.00  0.00    +0.109 C 
BRANCH  29  30
ATOM     30  C   UNL     1      -1.081   4.138  -1.268  0.00  0.00    +0.019 C 
BRANCH  30  31
ATOM     31  C   UNL     1      -1.576   5.101  -2.349  0.00  0.00    +0.001 C 
BRANCH  31  32
ATOM     32  C   UNL     1      -3.070   5.368  -2.150  0.00  0.00    -0.002 C 
BRANCH  32  33
ATOM     33  C   UNL     1      -3.564   6.330  -3.232  0.00  0.00    -0.020 C 
BRANCH  33  34
ATOM     34  C   UNL     1      -5.058   6.597  -3.033  0.00  0.00    -0.086 C 
BRANCH  34  35
ATOM     35  N   UNL     1      -5.532   7.521  -4.071  0.00  0.00    +0.378 N 
ATOM     36  H   UNL     1      -6.606   7.713  -3.928  0.00  0.00    -0.090 HD
ATOM     37  H   UNL     1      -5.369   7.074  -5.063  0.00  0.00    -0.090 HD
ATOM     38  H   UNL     1      -4.978   8.469  -4.000  0.00  0.00    -0.090 HD
ENDBRANCH  34  35
ENDBRANCH  33  34
ENDBRANCH  32  33
ENDBRANCH  31  32
ENDBRANCH  30  31
ENDBRANCH  29  30
ENDBRANCH   1  29
TORSDOF 13
