REMARK  Name = ZINC17177778
REMARK  4 active torsions:
REMARK  status: ('A' for Active; 'I' for Inactive)
REMARK    1  A    between atoms: C_5  and  C_7
REMARK    2  A    between atoms: C_7  and  S_8
REMARK    3  A    between atoms: S_8  and  C_9
REMARK    4  A    between atoms: C_20  and  C_22
REMARK                            x       y       z     vdW  Elec       q    Type
REMARK                         _______ _______ _______ _____ _____    ______ ____
ROOT
ATOM      1  C   UNL     1       2.629   6.624   3.442  0.00  0.00    +0.171 A 
ATOM      2  N   UNL     1       2.885   5.291   3.559  0.00  0.00    -0.302 N 
ATOM      3  H   UNL     1       3.105   4.915   4.426  0.00  0.00    +0.171 HD
ATOM      4  C   UNL     1       2.834   4.493   2.472  0.00  0.00    +0.258 A 
ATOM      5  O   UNL     1       3.060   3.297   2.567  0.00  0.00    -0.267 OA
ATOM      6  C   UNL     1       2.517   5.063   1.233  0.00  0.00    +0.069 A 
ATOM      7  C   UNL     1       2.269   6.423   1.168  0.00  0.00    +0.135 A 
ATOM      8  N   UNL     1       2.332   7.165   2.278  0.00  0.00    -0.208 NA
ATOM      9  N   UNL     1       1.961   7.004  -0.047  0.00  0.00    -0.302 N 
ATOM     10  C   UNL     1       2.275   6.374  -1.220  0.00  0.00    +0.017 C 
ATOM     11  C   UNL     1       2.515   5.046  -1.251  0.00  0.00    +0.024 C 
ATOM     12  C   UNL     1       2.447   4.210   0.002  0.00  0.00    +0.092 C 
ATOM     13  C   UNL     1       2.837   4.397  -2.457  0.00  0.00    +0.162 C 
ATOM     14  O   UNL     1       3.065   3.203  -2.448  0.00  0.00    -0.292 OA
ATOM     15  C   UNL     1       2.903   5.151  -3.756  0.00  0.00    +0.080 C 
ATOM     16  C   UNL     1       1.955   6.353  -3.683  0.00  0.00    +0.014 C 
ATOM     17  C   UNL     1       2.350   7.207  -2.477  0.00  0.00    +0.051 C 
ATOM     18  H   UNL     1       1.518   7.867  -0.068  0.00  0.00    +0.153 HD
ENDROOT
BRANCH  12  19
ATOM     19  C   UNL     1       1.153   3.438   0.010  0.00  0.00    -0.032 A 
ATOM     20  C   UNL     1      -0.054   4.112   0.025  0.00  0.00    +0.005 A 
ATOM     21  C   UNL     1      -1.242   3.405   0.032  0.00  0.00    +0.003 A 
ATOM     22  C   UNL     1      -1.224   2.023   0.019  0.00  0.00    +0.038 A 
ATOM     23  C   UNL     1      -0.016   1.347   0.009  0.00  0.00    +0.124 A 
ATOM     24  C   UNL     1       1.173   2.056   0.002  0.00  0.00    +0.043 A 
ATOM     25  F   UNL     1       0.002  -0.004   0.002  0.00  0.00    -0.205 F 
ENDBRANCH  12  19
BRANCH   1  26
ATOM     26  S   UNL     1       2.699   7.645   4.876  0.00  0.00    -0.083 S 
BRANCH  26  27
ATOM     27  C   UNL     1       2.288   9.247   4.142  0.00  0.00    +0.115 C 
BRANCH  27  32
ATOM     28  C   UNL     1       1.126  11.559   6.891  0.00  0.00    +0.000 A 
ATOM     29  C   UNL     1       2.288  12.250   7.182  0.00  0.00    +0.003 A 
ATOM     30  C   UNL     1       3.450  11.971   6.489  0.00  0.00    +0.038 A 
ATOM     31  C   UNL     1       3.452  10.998   5.504  0.00  0.00    +0.127 A 
ATOM     32  C   UNL     1       2.288  10.306   5.214  0.00  0.00    -0.002 A 
ATOM     33  C   UNL     1       1.125  10.591   5.904  0.00  0.00    +0.007 A 
ATOM     34  F   UNL     1       4.588  10.725   4.826  0.00  0.00    -0.205 F 
ENDBRANCH  27  32
ENDBRANCH  26  27
ENDBRANCH   1  26
TORSDOF 4
