REMARK  Name = ZINC08827682
REMARK  13 active torsions:
REMARK  status: ('A' for Active; 'I' for Inactive)
REMARK    1  A    between atoms: C_1  and  C_2
REMARK    2  A    between atoms: C_5  and  C_8
REMARK    3  A    between atoms: C_10  and  C_21
REMARK    4  A    between atoms: C_11  and  O_20
REMARK    5  A    between atoms: N_14  and  C_15
REMARK    6  A    between atoms: C_15  and  C_16
REMARK    7  A    between atoms: C_16  and  C_17
REMARK    8  A    between atoms: C_17  and  N_64
REMARK    9  A    between atoms: C_18  and  N_64
REMARK   10  A    between atoms: C_19  and  N_64
REMARK   11  A    between atoms: C_21  and  C_23
REMARK   12  A    between atoms: N_26  and  C_29
REMARK   13  A    between atoms: C_27  and  C_28
REMARK                            x       y       z     vdW  Elec       q    Type
REMARK                         _______ _______ _______ _____ _____    ______ ____
ROOT
ATOM      1  C   UNL     1       0.012  -0.038  -0.210  0.00  0.00    +0.144 C 
ATOM      2  C   UNL     1      -0.092  -0.642   1.171  0.00  0.00    +0.071 C 
ATOM      3  C   UNL     1      -1.092  -1.554   1.122  0.00  0.00    +0.188 C 
ATOM      4  C   UNL     1      -1.659  -1.582  -0.242  0.00  0.00    +0.282 C 
ATOM      5  O   UNL     1      -2.571  -2.299  -0.604  0.00  0.00    -0.267 OA
ATOM      6  N   UNL     1      -1.016  -0.696  -1.025  0.00  0.00    -0.284 N 
ENDROOT
BRANCH   1  11
ATOM      7  C   UNL     1      -0.985   5.649   0.030  0.00  0.00    +0.044 C 
ATOM      8  C   UNL     1      -0.725   4.166  -0.033  0.00  0.00    -0.050 A 
ATOM      9  C   UNL     1       0.565   3.697  -0.196  0.00  0.00    +0.004 A 
ATOM     10  C   UNL     1       0.803   2.337  -0.253  0.00  0.00    +0.006 A 
ATOM     11  C   UNL     1      -0.248   1.446  -0.147  0.00  0.00    -0.022 A 
ATOM     12  C   UNL     1      -1.539   1.915   0.011  0.00  0.00    +0.006 A 
ATOM     13  C   UNL     1      -1.776   3.275   0.073  0.00  0.00    +0.004 A 
ENDBRANCH   1  11
BRANCH   3  14
ATOM     14  O   UNL     1      -1.506  -2.319   2.159  0.00  0.00    -0.502 OA
ATOM     15  H   UNL     1      -2.257  -2.908   1.859  0.00  0.00    +0.292 HD
ENDBRANCH   3  14
BRANCH   2  16
ATOM     16  C   UNL     1       0.730  -0.305   2.338  0.00  0.00    +0.198 C 
ATOM     17  O   UNL     1       0.223   0.229   3.307  0.00  0.00    -0.287 OA
BRANCH  16  18
ATOM     18  C   UNL     1       2.172  -0.614   2.337  0.00  0.00    +0.063 A 
ATOM     19  C   UNL     1       2.905  -1.198   1.278  0.00  0.00    +0.146 A 
ATOM     20  N   UNL     1       4.148  -1.308   1.659  0.00  0.00    -0.174 NA
ATOM     21  N   UNL     1       4.271  -0.809   2.961  0.00  0.00    -0.236 N 
ATOM     22  C   UNL     1       3.062  -0.381   3.369  0.00  0.00    +0.053 A 
ATOM     23  C   UNL     1       2.738   0.236   4.705  0.00  0.00    +0.066 C 
BRANCH  21  24
ATOM     24  C   UNL     1       5.454  -0.758   3.711  0.00  0.00    +0.066 A 
ATOM     25  C   UNL     1       6.646  -0.387   3.104  0.00  0.00    +0.028 A 
ATOM     26  C   UNL     1       7.809  -0.334   3.847  0.00  0.00    +0.002 A 
ATOM     27  C   UNL     1       7.789  -0.660   5.191  0.00  0.00    +0.000 A 
ATOM     28  C   UNL     1       6.604  -1.035   5.796  0.00  0.00    +0.002 A 
ATOM     29  C   UNL     1       5.436  -1.085   5.060  0.00  0.00    +0.028 A 
ENDBRANCH  21  24
ENDBRANCH  16  18
ENDBRANCH   2  16
BRANCH   6  30
ATOM     30  C   UNL     1      -1.293  -0.435  -2.439  0.00  0.00    +0.107 C 
BRANCH  30  31
ATOM     31  C   UNL     1      -0.440  -1.363  -3.306  0.00  0.00    +0.000 C 
BRANCH  31  32
ATOM     32  C   UNL     1      -0.729  -1.089  -4.784  0.00  0.00    -0.078 C 
BRANCH  32  35
ATOM     33  C   UNL     1      -0.307  -3.383  -5.435  0.00  0.00    -0.097 C 
ATOM     34  C   UNL     1       0.020  -1.591  -7.031  0.00  0.00    -0.097 C 
ATOM     35  N   UNL     1       0.118  -1.978  -5.607  0.00  0.00    +0.376 N 
ATOM     36  H   UNL     1       1.094  -1.885  -5.303  0.00  0.00    -0.083 HD
ENDBRANCH  32  35
ENDBRANCH  31  32
ENDBRANCH  30  31
ENDBRANCH   6  30
TORSDOF 9
