REMARK  Name = ZINC62571764
REMARK  5 active torsions:
REMARK  status: ('A' for Active; 'I' for Inactive)
REMARK    1  A    between atoms: C_1  and  N_2
REMARK    2  A    between atoms: C_9  and  N_12
REMARK    3  A    between atoms: N_12  and  S_13
REMARK    4  A    between atoms: S_13  and  C_16
REMARK    5  A    between atoms: C_20  and  N_22
REMARK                            x       y       z     vdW  Elec       q    Type
REMARK                         _______ _______ _______ _____ _____    ______ ____
ROOT
ATOM      1  N   UNL     1       0.618  -0.186   4.791  0.00  0.00    -0.216 N 
ATOM      2  H   UNL     1       1.388   0.401   4.860  0.00  0.00    +0.174 HD
ENDROOT
BRANCH   1  11
ATOM      3  C   UNL     1       0.207   1.345  -0.053  0.00  0.00    +0.129 C 
ATOM      4  N   UNL     1       0.178  -0.120  -0.019  0.00  0.00    -0.327 N 
ATOM      5  C   UNL     1       0.201  -0.911  -1.261  0.00  0.00    +0.146 C 
ATOM      6  C   UNL     1      -0.807  -2.058  -1.099  0.00  0.00    +0.248 C 
ATOM      7  O   UNL     1      -0.440  -2.835   0.043  0.00  0.00    -0.489 OA
ATOM      8  C   UNL     1      -0.187  -2.174   1.205  0.00  0.00    +0.142 A 
ATOM      9  C   UNL     1       0.132  -0.817   1.198  0.00  0.00    +0.074 A 
ATOM     10  C   UNL     1       0.399  -0.156   2.386  0.00  0.00    +0.051 A 
ATOM     11  C   UNL     1       0.350  -0.849   3.589  0.00  0.00    +0.050 A 
ATOM     12  C   UNL     1       0.034  -2.201   3.596  0.00  0.00    +0.028 A 
ATOM     13  C   UNL     1      -0.242  -2.860   2.408  0.00  0.00    +0.049 A 
ENDBRANCH   1  11
BRANCH   1  14
ATOM     14  S   UNL     1      -0.377  -0.403   6.097  0.00  0.00    +0.072 S 
ATOM     15  O   UNL     1      -0.492  -1.806   6.291  0.00  0.00    -0.150 OA
ATOM     16  O   UNL     1       0.092   0.471   7.114  0.00  0.00    -0.150 OA
BRANCH  14  17
ATOM     17  C   UNL     1      -1.976   0.174   5.634  0.00  0.00    +0.111 A 
ATOM     18  C   UNL     1      -2.285   1.517   5.745  0.00  0.00    +0.029 A 
ATOM     19  C   UNL     1      -3.539   1.970   5.382  0.00  0.00    +0.004 A 
ATOM     20  C   UNL     1      -4.485   1.080   4.909  0.00  0.00    +0.033 A 
ATOM     21  C   UNL     1      -4.176  -0.263   4.798  0.00  0.00    +0.128 A 
ATOM     22  C   UNL     1      -2.920  -0.715   5.156  0.00  0.00    +0.061 A 
BRANCH  21  23
ATOM     23  N   UNL     1      -5.190  -1.216   4.291  0.00  0.00    +0.056 N 
ATOM     24  O   UNL     1      -6.287  -0.820   3.975  0.00  0.00    -0.126 OA
ATOM     25  O   UNL     1      -4.920  -2.390   4.194  0.00  0.00    -0.126 OA
ENDBRANCH  21  23
ENDBRANCH  14  17
ENDBRANCH   1  14
TORSDOF 4
