REMARK  Name = ZINC66925113
REMARK  7 active torsions:
REMARK  status: ('A' for Active; 'I' for Inactive)
REMARK    1  A    between atoms: C_1  and  C_2
REMARK    2  A    between atoms: C_8  and  C_27
REMARK    3  A    between atoms: C_8  and  C_28
REMARK    4  A    between atoms: C_10  and  N_12
REMARK    5  A    between atoms: N_15  and  N_16
REMARK    6  A    between atoms: C_17  and  C_19
REMARK    7  A    between atoms: C_19  and  C_20
REMARK                            x       y       z     vdW  Elec       q    Type
REMARK                         _______ _______ _______ _____ _____    ______ ____
ROOT
ATOM      1  N   UNL     1      -2.505  -3.298  -0.964  0.00  0.00    -0.291 N 
ATOM      2  C   UNL     1      -3.667  -2.732  -0.582  0.00  0.00    +0.316 C 
ATOM      3  O   UNL     1      -3.796  -2.314   0.552  0.00  0.00    -0.251 OA
ATOM      4  N   UNL     1      -4.686  -2.630  -1.458  0.00  0.00    -0.218 N 
ATOM      5  H   UNL     1      -2.401  -3.631  -1.869  0.00  0.00    +0.151 HD
ATOM      6  H   UNL     1      -5.523  -2.224  -1.183  0.00  0.00    +0.174 HD
ENDROOT
BRANCH   1  16
ATOM      7  C   UNL     1      -0.018   1.503   0.010  0.00  0.00    +0.086 C 
ATOM      8  C   UNL     1       0.002  -0.004   0.002  0.00  0.00    +0.103 A 
ATOM      9  C   UNL     1      -1.081  -0.806   0.003  0.00  0.00    +0.050 A 
ATOM     10  C   UNL     1      -0.602  -2.129  -0.007  0.00  0.00    +0.014 A 
ATOM     11  C   UNL     1       0.745  -2.064  -0.011  0.00  0.00    +0.111 A 
ATOM     12  O   UNL     1       1.104  -0.775  -0.013  0.00  0.00    -0.464 OA
ATOM     13  C   UNL     1       1.646  -3.276  -0.019  0.00  0.00    +0.081 C 
ATOM     14  C   UNL     1       0.818  -4.497   0.398  0.00  0.00    -0.026 C 
ATOM     15  C   UNL     1      -0.466  -4.554  -0.433  0.00  0.00    +0.034 C 
ATOM     16  C   UNL     1      -1.397  -3.409  -0.012  0.00  0.00    +0.109 C 
ATOM     17  C   UNL     1       1.634  -5.770   0.162  0.00  0.00    +0.011 C 
ATOM     18  C   UNL     1       0.461  -4.389   1.882  0.00  0.00    +0.011 C 
ENDBRANCH   1  16
BRANCH   4  19
ATOM     19  N   UNL     1      -4.537  -3.112  -2.765  0.00  0.00    -0.233 N 
ATOM     20  C   UNL     1      -5.557  -3.010  -3.641  0.00  0.00    +0.234 C 
ATOM     21  O   UNL     1      -6.603  -2.501  -3.298  0.00  0.00    -0.274 OA
ATOM     22  H   UNL     1      -3.701  -3.519  -3.040  0.00  0.00    +0.173 HD
BRANCH  20  23
ATOM     23  C   UNL     1      -5.397  -3.528  -5.047  0.00  0.00    +0.135 C 
BRANCH  23  24
ATOM     24  C   UNL     1      -6.671  -3.294  -5.817  0.00  0.00    -0.003 A 
ATOM     25  C   UNL     1      -7.620  -4.295  -5.902  0.00  0.00    +0.007 A 
ATOM     26  C   UNL     1      -8.790  -4.082  -6.608  0.00  0.00    +0.000 A 
ATOM     27  C   UNL     1      -9.011  -2.866  -7.229  0.00  0.00    +0.003 A 
ATOM     28  C   UNL     1      -8.064  -1.864  -7.144  0.00  0.00    +0.038 A 
ATOM     29  C   UNL     1      -6.894  -2.075  -6.433  0.00  0.00    +0.127 A 
ATOM     30  F   UNL     1      -5.970  -1.094  -6.346  0.00  0.00    -0.205 F 
ENDBRANCH  23  24
ENDBRANCH  20  23
ENDBRANCH   4  19
TORSDOF 4
