REMARK  Name = ZINC16449897
REMARK  5 active torsions:
REMARK  status: ('A' for Active; 'I' for Inactive)
REMARK    1  A    between atoms: C_4  and  N_24
REMARK    2  A    between atoms: C_5  and  C_7
REMARK    3  A    between atoms: C_7  and  O_8
REMARK    4  A    between atoms: O_8  and  C_9
REMARK    5  A    between atoms: C_14  and  C_15
REMARK                            x       y       z     vdW  Elec       q    Type
REMARK                         _______ _______ _______ _____ _____    ______ ____
ROOT
ATOM      1  C   UNL     1      -0.371  -4.252   0.555  0.00  0.00    +0.128 A 
ATOM      2  C   UNL     1       0.636  -5.181   0.762  0.00  0.00    +0.047 A 
ATOM      3  C   UNL     1       0.370  -6.531   0.640  0.00  0.00    +0.019 A 
ATOM      4  C   UNL     1      -0.904  -6.969   0.311  0.00  0.00    +0.019 A 
ATOM      5  C   UNL     1      -1.919  -6.060   0.102  0.00  0.00    +0.026 A 
ATOM      6  C   UNL     1      -1.665  -4.689   0.228  0.00  0.00    +0.019 A 
ATOM      7 BR   UNL     1      -1.250  -8.821   0.148  0.00  0.00    -0.050 Br
ENDROOT
BRANCH   6   8
ATOM      8  C   UNL     1      -2.742  -3.715   0.012  0.00  0.00    +0.032 C 
ATOM      9  C   UNL     1      -3.864  -4.081  -0.657  0.00  0.00    +0.078 C 
ATOM     10  C   UNL     1      -5.116  -3.329  -0.866  0.00  0.00    +0.256 C 
ATOM     11  O   UNL     1      -5.268  -2.209  -0.415  0.00  0.00    -0.269 OA
ATOM     12  N   UNL     1      -6.066  -3.927  -1.565  0.00  0.00    -0.261 N 
ATOM     13  C   UNL     1      -5.873  -5.199  -2.067  0.00  0.00    +0.158 C 
ATOM     14  N   UNL     1      -6.697  -5.927  -2.770  0.00  0.00    -0.279 NA
ATOM     15  S   UNL     1      -4.219  -5.601  -1.528  0.00  0.00    -0.049 S 
ATOM     16  H   UNL     1      -6.905  -3.469  -1.727  0.00  0.00    +0.157 HD
ATOM     17  H   UNL     1      -6.432  -6.813  -3.062  0.00  0.00    +0.189 HD
ENDBRANCH   6   8
BRANCH   1  18
ATOM     18  O   UNL     1      -0.110  -2.925   0.675  0.00  0.00    -0.487 OA
BRANCH  18  19
ATOM     19  C   UNL     1       1.229  -2.555   1.011  0.00  0.00    +0.266 C 
BRANCH  19  24
ATOM     20  C   UNL     1       0.303   1.104   0.945  0.00  0.00    +0.001 A 
ATOM     21  C   UNL     1       1.510   1.700   1.260  0.00  0.00    +0.002 A 
ATOM     22  C   UNL     1       2.626   0.919   1.494  0.00  0.00    +0.033 A 
ATOM     23  C   UNL     1       2.535  -0.458   1.414  0.00  0.00    +0.133 A 
ATOM     24  C   UNL     1       1.328  -1.054   1.099  0.00  0.00    +0.020 A 
ATOM     25  C   UNL     1       0.212  -0.273   0.864  0.00  0.00    +0.009 A 
BRANCH  23  26
ATOM     26  N   UNL     1       3.730  -1.295   1.663  0.00  0.00    +0.057 N 
ATOM     27  O   UNL     1       4.786  -0.774   1.938  0.00  0.00    -0.126 OA
ATOM     28  O   UNL     1       3.650  -2.499   1.593  0.00  0.00    -0.126 OA
ENDBRANCH  23  26
ENDBRANCH  19  24
ENDBRANCH  18  19
ENDBRANCH   1  18
TORSDOF 5
