REMARK  Name = ZINC36601010
REMARK  13 active torsions:
REMARK  status: ('A' for Active; 'I' for Inactive)
REMARK    1  A    between atoms: C_1  and  C_2
REMARK    2  A    between atoms: C_5  and  C_7
REMARK    3  A    between atoms: C_7  and  N_8
REMARK    4  A    between atoms: N_8  and  C_9
REMARK    5  A    between atoms: C_9  and  C_11
REMARK    6  A    between atoms: C_9  and  C_20
REMARK    7  A    between atoms: C_14  and  N_17
REMARK    8  A    between atoms: N_17  and  C_18
REMARK    9  A    between atoms: N_17  and  C_19
REMARK   10  A    between atoms: N_22  and  C_23
REMARK   11  A    between atoms: C_29  and  C_31
REMARK   12  A    between atoms: C_31  and  N_32
REMARK   13  A    between atoms: C_33  and  C_35
REMARK                            x       y       z     vdW  Elec       q    Type
REMARK                         _______ _______ _______ _____ _____    ______ ____
ROOT
ATOM      1  N   UNL     1       3.555  -3.708  -1.797  0.00  0.00    -0.277 N 
ATOM      2  C   UNL     1       2.479  -3.796  -2.603  0.00  0.00    +0.234 C 
ATOM      3  O   UNL     1       1.954  -2.787  -3.026  0.00  0.00    -0.274 OA
ENDROOT
BRANCH   1   4
ATOM      4  C   UNL     1       4.189  -4.925  -1.286  0.00  0.00    +0.183 C 
BRANCH   4   9
ATOM      5  C   UNL     1       2.577  -5.457   3.463  0.00  0.00    +0.086 C 
ATOM      6  C   UNL     1       2.723  -5.657   1.976  0.00  0.00    +0.102 A 
ATOM      7  C   UNL     1       2.033  -6.538   1.230  0.00  0.00    +0.045 A 
ATOM      8  C   UNL     1       2.484  -6.389  -0.102  0.00  0.00    +0.046 A 
ATOM      9  C   UNL     1       3.424  -5.426  -0.089  0.00  0.00    +0.122 A 
ATOM     10  O   UNL     1       3.559  -4.982   1.172  0.00  0.00    -0.463 OA
ENDBRANCH   4   9
ENDBRANCH   1   4
BRANCH   1  11
ATOM     11  C   UNL     1       4.091  -2.394  -1.432  0.00  0.00    +0.193 C 
BRANCH  11  12
ATOM     12  C   UNL     1       2.980  -1.529  -0.896  0.00  0.00    -0.018 A 
ATOM     13  C   UNL     1       2.127  -2.024   0.073  0.00  0.00    +0.008 A 
ATOM     14  C   UNL     1       1.107  -1.234   0.567  0.00  0.00    +0.023 A 
ATOM     15  C   UNL     1       0.939   0.059   0.088  0.00  0.00    +0.029 A 
ATOM     16  C   UNL     1       1.798   0.553  -0.886  0.00  0.00    +0.023 A 
ATOM     17  C   UNL     1       2.819  -0.240  -1.371  0.00  0.00    +0.008 A 
BRANCH  15  18
ATOM     18  N   UNL     1      -0.092   0.861   0.585  0.00  0.00    -0.336 N 
ATOM     19  C   UNL     1      -0.872   0.417   1.742  0.00  0.00    +0.129 C 
ATOM     20  C   UNL     1      -0.392   2.146  -0.052  0.00  0.00    +0.129 C 
ENDBRANCH  15  18
ENDBRANCH  11  12
BRANCH  11  21
ATOM     21  C   UNL     1       5.152  -2.561  -0.375  0.00  0.00    +0.238 C 
ATOM     22  O   UNL     1       4.952  -3.286   0.576  0.00  0.00    -0.273 OA
ATOM     23  N   UNL     1       6.324  -1.904  -0.487  0.00  0.00    -0.311 N 
ATOM     24  H   UNL     1       6.485  -1.325  -1.248  0.00  0.00    +0.149 HD
BRANCH  23  25
ATOM     25  C   UNL     1       7.356  -2.066   0.541  0.00  0.00    +0.073 C 
ATOM     26  C   UNL     1       7.088  -1.093   1.690  0.00  0.00    +0.022 C 
ATOM     27  C   UNL     1       8.165  -1.262   2.763  0.00  0.00    +0.002 C 
ATOM     28  C   UNL     1       9.539  -0.970   2.157  0.00  0.00    +0.000 C 
ATOM     29  C   UNL     1       9.807  -1.944   1.008  0.00  0.00    +0.002 C 
ATOM     30  C   UNL     1       8.730  -1.774  -0.066  0.00  0.00    +0.022 C 
ENDBRANCH  23  25
ENDBRANCH  11  21
ENDBRANCH   1  11
BRANCH   2  31
ATOM     31  C   UNL     1       1.927  -5.147  -2.979  0.00  0.00    +0.200 C 
BRANCH  31  32
ATOM     32  N   UNL     1       0.766  -4.974  -3.856  0.00  0.00    -0.303 N 
ATOM     33  C   UNL     1       0.106  -6.053  -4.321  0.00  0.00    +0.244 C 
ATOM     34  O   UNL     1       0.474  -7.170  -4.013  0.00  0.00    -0.270 OA
ATOM     35  H   UNL     1       0.473  -4.082  -4.102  0.00  0.00    +0.150 HD
BRANCH  33  36
ATOM     36  C   UNL     1      -1.065  -5.878  -5.206  0.00  0.00    +0.037 A 
ATOM     37  C   UNL     1      -1.487  -4.597  -5.566  0.00  0.00    +0.013 A 
ATOM     38  C   UNL     1      -2.580  -4.441  -6.393  0.00  0.00    +0.001 A 
ATOM     39  C   UNL     1      -3.259  -5.551  -6.864  0.00  0.00    +0.000 A 
ATOM     40  C   UNL     1      -2.847  -6.824  -6.510  0.00  0.00    +0.001 A 
ATOM     41  C   UNL     1      -1.751  -6.994  -5.689  0.00  0.00    +0.013 A 
ENDBRANCH  33  36
ENDBRANCH  31  32
ENDBRANCH   2  31
TORSDOF 10
