REMARK  Name = ZINC11851792
REMARK  7 active torsions:
REMARK  status: ('A' for Active; 'I' for Inactive)
REMARK    1  A    between atoms: C_1  and  C_2
REMARK    2  A    between atoms: C_5  and  C_8
REMARK    3  A    between atoms: C_8  and  C_9
REMARK    4  A    between atoms: N_13  and  C_31
REMARK    5  A    between atoms: C_15  and  C_16
REMARK    6  A    between atoms: C_15  and  C_18
REMARK    7  A    between atoms: C_18  and  C_20
REMARK                            x       y       z     vdW  Elec       q    Type
REMARK                         _______ _______ _______ _____ _____    ______ ____
ROOT
ATOM      1  C   UNL     1      -2.908   3.860  -2.429  0.00  0.00    +0.143 C 
ATOM      2  C   UNL     1      -4.055   4.840  -2.614  0.00  0.00    +0.238 C 
ATOM      3  O   UNL     1      -3.874   6.037  -2.694  0.00  0.00    -0.274 OA
ATOM      4  N   UNL     1      -5.262   4.306  -2.683  0.00  0.00    -0.232 N 
ATOM      5  C   UNL     1      -5.476   2.951  -2.595  0.00  0.00    +0.097 C 
ATOM      6  C   UNL     1      -6.690   2.265  -2.653  0.00  0.00    +0.127 C 
ATOM      7  S   UNL     1      -3.835   2.275  -2.388  0.00  0.00    -0.095 S 
ENDROOT
BRANCH   4   8
ATOM      8  C   UNL     1      -6.365   5.152  -2.853  0.00  0.00    +0.042 A 
ATOM      9  C   UNL     1      -6.861   5.875  -1.776  0.00  0.00    +0.024 A 
ATOM     10  C   UNL     1      -7.944   6.714  -1.949  0.00  0.00    +0.002 A 
ATOM     11  C   UNL     1      -8.544   6.825  -3.190  0.00  0.00    +0.000 A 
ATOM     12  C   UNL     1      -8.057   6.102  -4.263  0.00  0.00    +0.002 A 
ATOM     13  C   UNL     1      -6.969   5.266  -4.098  0.00  0.00    +0.024 A 
ENDBRANCH   4   8
BRANCH   6  14
ATOM     14  C   UNL     1      -6.703   0.833  -2.675  0.00  0.00    +0.105 C 
ATOM     15  N   UNL     1      -6.713  -0.303  -2.692  0.00  0.00    -0.191 NA
ENDBRANCH   6  14
BRANCH   6  16
ATOM     16  C   UNL     1      -7.950   3.009  -2.693  0.00  0.00    +0.208 C 
ATOM     17  O   UNL     1      -8.296   3.672  -1.730  0.00  0.00    -0.286 OA
BRANCH  16  18
ATOM     18  C   UNL     1      -8.798   2.956  -3.894  0.00  0.00    +0.048 A 
ATOM     19  C   UNL     1      -8.505   2.339  -5.073  0.00  0.00    +0.095 A 
ATOM     20  N   UNL     1      -9.531   2.503  -5.945  0.00  0.00    -0.360 N 
ATOM     21  H   UNL     1      -9.552   2.151  -6.848  0.00  0.00    +0.165 HD
ATOM     22  C   UNL     1     -10.538   3.247  -5.366  0.00  0.00    +0.047 A 
ATOM     23  C   UNL     1     -10.130   3.565  -4.060  0.00  0.00    +0.011 A 
ATOM     24  C   UNL     1     -10.960   4.317  -3.233  0.00  0.00    +0.011 A 
ATOM     25  C   UNL     1     -12.181   4.749  -3.703  0.00  0.00    +0.001 A 
ATOM     26  C   UNL     1     -12.586   4.436  -4.992  0.00  0.00    +0.002 A 
ATOM     27  C   UNL     1     -11.775   3.692  -5.821  0.00  0.00    +0.026 A 
ENDBRANCH  16  18
ENDBRANCH   6  16
BRANCH   1  28
ATOM     28  C   UNL     1      -2.174   4.107  -1.110  0.00  0.00    +0.059 C 
BRANCH  28  33
ATOM     29  C   UNL     1       2.424   0.622  -0.781  0.00  0.00    +0.044 C 
ATOM     30  C   UNL     1       1.225   1.531  -0.867  0.00  0.00    -0.050 A 
ATOM     31  C   UNL     1       0.003   1.112  -0.375  0.00  0.00    +0.003 A 
ATOM     32  C   UNL     1      -1.098   1.944  -0.457  0.00  0.00    +0.004 A 
ATOM     33  C   UNL     1      -0.975   3.199  -1.024  0.00  0.00    -0.046 A 
ATOM     34  C   UNL     1       0.247   3.619  -1.515  0.00  0.00    +0.004 A 
ATOM     35  C   UNL     1       1.347   2.785  -1.436  0.00  0.00    +0.003 A 
ENDBRANCH  28  33
ENDBRANCH   1  28
TORSDOF 6
