REMARK  Name = ZINC06462205
REMARK  16 active torsions:
REMARK  status: ('A' for Active; 'I' for Inactive)
REMARK    1  A    between atoms: C_1  and  C_2
REMARK    2  A    between atoms: C_2  and  C_3
REMARK    3  A    between atoms: C_3  and  C_4
REMARK    4  A    between atoms: C_3  and  C_5
REMARK    5  A    between atoms: C_3  and  N_6
REMARK    6  A    between atoms: C_7  and  C_9
REMARK    7  A    between atoms: C_9  and  C_11
REMARK    8  A    between atoms: C_9  and  N_18
REMARK    9  A    between atoms: C_14  and  O_17
REMARK   10  A    between atoms: N_18  and  C_19
REMARK   11  A    between atoms: C_22  and  O_25
REMARK   12  A    between atoms: O_25  and  C_26
REMARK   13  A    between atoms: C_26  and  C_27
REMARK   14  A    between atoms: C_28  and  C_30
REMARK   15  A    between atoms: C_31  and  N_38
REMARK   16  A    between atoms: C_32  and  C_35
REMARK                            x       y       z     vdW  Elec       q    Type
REMARK                         _______ _______ _______ _____ _____    ______ ____
ROOT
ATOM      1  N   UNL     1      -3.684   2.541  -0.553  0.00  0.00    -0.251 N 
ATOM      2  C   UNL     1      -2.984   3.279  -1.437  0.00  0.00    +0.262 C 
ATOM      3  O   UNL     1      -3.308   4.432  -1.659  0.00  0.00    -0.269 OA
ENDROOT
BRANCH   1   4
ATOM      4  C   UNL     1      -4.717   3.129   0.188  0.00  0.00    +0.038 A 
ATOM      5  C   UNL     1      -5.893   3.513  -0.444  0.00  0.00    +0.027 A 
ATOM      6  C   UNL     1      -6.914   4.087   0.288  0.00  0.00    +0.047 A 
ATOM      7  C   UNL     1      -6.760   4.292   1.651  0.00  0.00    +0.121 A 
ATOM      8  C   UNL     1      -5.584   3.914   2.282  0.00  0.00    +0.047 A 
ATOM      9  C   UNL     1      -4.564   3.334   1.552  0.00  0.00    +0.027 A 
BRANCH   7  10
ATOM     10  O   UNL     1      -7.763   4.863   2.370  0.00  0.00    -0.492 OA
BRANCH  10  11
ATOM     11  C   UNL     1      -8.947   5.227   1.656  0.00  0.00    +0.225 C 
ATOM     12  C   UNL     1      -9.955   5.850   2.624  0.00  0.00    +0.048 C 
ENDBRANCH  10  11
ENDBRANCH   7  10
ENDBRANCH   1   4
BRANCH   2  13
ATOM     13  C   UNL     1      -1.835   2.695  -2.130  0.00  0.00    +0.116 A 
ATOM     14  C   UNL     1      -1.060   3.227  -3.163  0.00  0.00    +0.076 A 
ATOM     15  C   UNL     1      -0.042   2.364  -3.566  0.00  0.00    +0.155 A 
ATOM     16  N   UNL     1       0.087   1.198  -2.971  0.00  0.00    -0.203 NA
ATOM     17  S   UNL     1      -1.045   1.119  -1.877  0.00  0.00    +0.019 S 
BRANCH  15  18
ATOM     18  C   UNL     1       0.881   2.753  -4.648  0.00  0.00    +0.262 C 
ATOM     19  O   UNL     1       0.756   3.832  -5.194  0.00  0.00    -0.269 OA
ATOM     20  N   UNL     1       1.863   1.913  -5.032  0.00  0.00    -0.324 N 
ATOM     21  H   UNL     1       1.962   1.052  -4.596  0.00  0.00    +0.145 HD
ATOM     22  H   UNL     1       2.470   2.170  -5.744  0.00  0.00    +0.145 HD
ENDBRANCH  15  18
BRANCH  14  23
ATOM     23  N   UNL     1      -1.280   4.477  -3.727  0.00  0.00    -0.355 N 
ATOM     24  H   UNL     1      -2.005   5.034  -3.404  0.00  0.00    +0.142 HD
ATOM     25  H   UNL     1      -0.707   4.793  -4.443  0.00  0.00    +0.142 HD
ENDBRANCH  14  23
ENDBRANCH   2  13
BRANCH   1  26
ATOM     26  C   UNL     1      -3.364   1.124  -0.366  0.00  0.00    +0.197 C 
BRANCH  26  27
ATOM     27  C   UNL     1      -4.160   0.578   0.791  0.00  0.00    -0.018 A 
ATOM     28  C   UNL     1      -5.540   0.662   0.782  0.00  0.00    +0.009 A 
ATOM     29  C   UNL     1      -6.271   0.157   1.839  0.00  0.00    +0.046 A 
ATOM     30  C   UNL     1      -5.620  -0.425   2.917  0.00  0.00    +0.117 A 
ATOM     31  C   UNL     1      -4.235  -0.504   2.926  0.00  0.00    +0.046 A 
ATOM     32  C   UNL     1      -3.508  -0.003   1.864  0.00  0.00    +0.009 A 
BRANCH  30  33
ATOM     33  O   UNL     1      -6.337  -0.917   3.961  0.00  0.00    -0.507 OA
ATOM     34  H   UNL     1      -6.503  -0.273   4.662  0.00  0.00    +0.292 HD
ENDBRANCH  30  33
ENDBRANCH  26  27
BRANCH  26  36
ATOM     35  N   UNL     1      -3.502  -0.969  -1.678  0.00  0.00    -0.308 N 
ATOM     36  C   UNL     1      -3.712   0.361  -1.619  0.00  0.00    +0.239 C 
ATOM     37  O   UNL     1      -4.180   0.945  -2.573  0.00  0.00    -0.273 OA
ATOM     38  H   UNL     1      -3.127  -1.435  -0.915  0.00  0.00    +0.149 HD
BRANCH  35  39
ATOM     39  C   UNL     1      -3.845  -1.711  -2.894  0.00  0.00    +0.029 C 
ATOM     40  C   UNL     1      -5.339  -1.554  -3.182  0.00  0.00    +0.031 C 
ATOM     41  C   UNL     1      -3.038  -1.161  -4.072  0.00  0.00    +0.031 C 
BRANCH  39  43
ATOM     42  C   UNL     1      -3.875  -3.967  -3.966  0.00  0.00    +0.006 C 
ATOM     43  C   UNL     1      -3.516  -3.192  -2.697  0.00  0.00    +0.022 C 
ENDBRANCH  39  43
ENDBRANCH  35  39
ENDBRANCH  26  36
ENDBRANCH   1  26
TORSDOF 12
