REMARK  Name = ZINC45047151
REMARK  3 active torsions:
REMARK  status: ('A' for Active; 'I' for Inactive)
REMARK    1  A    between atoms: C_1  and  C_2
REMARK    2  A    between atoms: C_2  and  N_8
REMARK    3  A    between atoms: C_9  and  C_11
REMARK                            x       y       z     vdW  Elec       q    Type
REMARK                         _______ _______ _______ _____ _____    ______ ____
ROOT
ATOM      1  N   UNL     1       0.688  -0.476  -1.203  0.00  0.00    -0.309 N 
ATOM      2  C   UNL     1       0.211  -0.151  -2.421  0.00  0.00    +0.234 C 
ATOM      3  O   UNL     1      -0.785   0.534  -2.519  0.00  0.00    -0.274 OA
ATOM      4  H   UNL     1       1.485  -1.024  -1.125  0.00  0.00    +0.149 HD
ENDROOT
BRANCH   2   5
ATOM      5  C   UNL     1       0.917  -0.637  -3.661  0.00  0.00    +0.157 C 
ATOM      6  C   UNL     1       2.123   0.263  -3.959  0.00  0.00    +0.036 C 
ATOM      7  C   UNL     1       2.862  -0.289  -5.178  0.00  0.00    +0.039 C 
ATOM      8  C   UNL     1       1.904  -0.513  -6.318  0.00  0.00    -0.026 A 
ATOM      9  C   UNL     1       2.403  -0.589  -7.608  0.00  0.00    +0.005 A 
ATOM     10  C   UNL     1       1.550  -0.796  -8.674  0.00  0.00    +0.000 A 
ATOM     11  C   UNL     1       0.190  -0.931  -8.460  0.00  0.00    +0.002 A 
ATOM     12  C   UNL     1      -0.316  -0.856  -7.178  0.00  0.00    +0.023 A 
ATOM     13  C   UNL     1       0.541  -0.645  -6.103  0.00  0.00    +0.031 A 
ATOM     14  N   UNL     1       0.006  -0.564  -4.812  0.00  0.00    -0.333 N 
ATOM     15  H   UNL     1      -0.949  -0.462  -4.679  0.00  0.00    +0.147 HD
ENDBRANCH   2   5
BRANCH   1  17
ATOM     16  C   UNL     1      -0.019   1.526   0.010  0.00  0.00    +0.031 C 
ATOM     17  C   UNL     1       0.002  -0.004   0.002  0.00  0.00    +0.032 C 
ATOM     18  C   UNL     1      -1.433  -0.534   0.013  0.00  0.00    +0.025 C 
ATOM     19  C   UNL     1      -1.413  -2.063   0.004  0.00  0.00    +0.002 C 
ATOM     20  C   UNL     1      -0.673  -2.570   1.244  0.00  0.00    +0.000 C 
ATOM     21  C   UNL     1       0.763  -2.041   1.233  0.00  0.00    +0.002 C 
ATOM     22  C   UNL     1       0.742  -0.511   1.242  0.00  0.00    +0.025 C 
ENDBRANCH   1  17
TORSDOF 2
