REMARK  Name = ZINC03417744
REMARK  10 active torsions:
REMARK  status: ('A' for Active; 'I' for Inactive)
REMARK    1  A    between atoms: C_1  and  C_2
REMARK    2  A    between atoms: C_2  and  C_4
REMARK    3  A    between atoms: C_2  and  O_33
REMARK    4  A    between atoms: C_4  and  C_6
REMARK    5  A    between atoms: C_4  and  N_22
REMARK    6  A    between atoms: C_6  and  O_8
REMARK    7  A    between atoms: O_8  and  C_9
REMARK    8  A    between atoms: C_9  and  C_10
REMARK    9  A    between atoms: N_22  and  S_23
REMARK   10  A    between atoms: S_23  and  C_26
REMARK                            x       y       z     vdW  Elec       q    Type
REMARK                         _______ _______ _______ _____ _____    ______ ____
ROOT
ATOM      1  C   UNL     1      -1.191   3.150   2.515  0.00  0.00    +0.213 C 
ENDROOT
BRANCH   1   3
ATOM      2  C   UNL     1       0.729   1.631   2.014  0.00  0.00    +0.040 C 
ATOM      3  C   UNL     1      -0.117   2.250   3.129  0.00  0.00    +0.141 C 
BRANCH   3   4
ATOM      4  O   UNL     1       0.721   3.026   3.988  0.00  0.00    -0.390 OA
ATOM      5  H   UNL     1       1.178   3.751   3.541  0.00  0.00    +0.210 HD
ENDBRANCH   3   4
ENDBRANCH   1   3
BRANCH   1   6
ATOM      6  C   UNL     1      -2.102   3.659   3.603  0.00  0.00    +0.329 C 
ATOM      7  O   UNL     1      -3.283   3.407   3.568  0.00  0.00    -0.249 OA
BRANCH   6   8
ATOM      8  O   UNL     1      -1.601   4.391   4.610  0.00  0.00    -0.459 OA
BRANCH   8   9
ATOM      9  C   UNL     1      -2.538   4.848   5.622  0.00  0.00    +0.268 C 
BRANCH   9  10
ATOM     10  C   UNL     1      -1.800   5.648   6.664  0.00  0.00    +0.007 A 
ATOM     11  C   UNL     1      -0.461   5.850   6.569  0.00  0.00    +0.099 A 
ATOM     12  C   UNL     1       0.207   6.604   7.558  0.00  0.00    +0.338 A 
ATOM     13  O   UNL     1       1.408   6.777   7.462  0.00  0.00    -0.245 OA
ATOM     14  O   UNL     1      -0.449   7.135   8.602  0.00  0.00    -0.422 OA
ATOM     15  C   UNL     1      -1.780   6.972   8.755  0.00  0.00    +0.140 A 
ATOM     16  C   UNL     1      -2.510   6.236   7.803  0.00  0.00    +0.024 A 
ATOM     17  C   UNL     1      -3.888   6.061   7.963  0.00  0.00    +0.013 A 
ATOM     18  C   UNL     1      -4.521   6.616   9.039  0.00  0.00    +0.016 A 
ATOM     19  C   UNL     1      -3.806   7.347   9.977  0.00  0.00    +0.021 A 
ATOM     20  C   UNL     1      -2.444   7.527   9.841  0.00  0.00    +0.062 A 
ATOM     21 BR   UNL     1      -4.706   8.105  11.458  0.00  0.00    -0.050 Br
ENDBRANCH   9  10
ENDBRANCH   8   9
ENDBRANCH   6   8
ENDBRANCH   1   6
BRANCH   1  22
ATOM     22  N   UNL     1      -1.973   2.384   1.542  0.00  0.00    -0.174 NA
ATOM     23  H   UNL     1      -2.168   1.448   1.705  0.00  0.00    +0.149 HD
BRANCH  22  24
ATOM     24  S   UNL     1      -2.523   3.115   0.162  0.00  0.00    +0.059 S 
ATOM     25  O   UNL     1      -3.180   4.308   0.569  0.00  0.00    -0.153 OA
ATOM     26  O   UNL     1      -3.176   2.108  -0.599  0.00  0.00    -0.153 OA
BRANCH  24  27
ATOM     27  C   UNL     1      -1.109   3.610  -0.765  0.00  0.00    +0.105 A 
ATOM     28  C   UNL     1      -0.629   4.902  -0.657  0.00  0.00    +0.030 A 
ATOM     29  C   UNL     1       0.477   5.293  -1.389  0.00  0.00    +0.022 A 
ATOM     30  C   UNL     1       1.104   4.390  -2.229  0.00  0.00    +0.041 A 
ATOM     31  C   UNL     1       0.623   3.097  -2.337  0.00  0.00    +0.022 A 
ATOM     32  C   UNL     1      -0.483   2.708  -1.605  0.00  0.00    +0.030 A 
ATOM     33 CL   UNL     1       2.493   4.879  -3.147  0.00  0.00    -0.084 Cl
ENDBRANCH  24  27
ENDBRANCH  22  24
ENDBRANCH   1  22
TORSDOF 9
