REMARK  Name = ZINC00937823
REMARK  7 active torsions:
REMARK  status: ('A' for Active; 'I' for Inactive)
REMARK    1  A    between atoms: C_1  and  C_2
REMARK    2  A    between atoms: C_7  and  C_8
REMARK    3  A    between atoms: C_7  and  N_53
REMARK    4  A    between atoms: C_9  and  O_31
REMARK    5  A    between atoms: C_15  and  C_27
REMARK    6  A    between atoms: C_16  and  O_19
REMARK    7  A    between atoms: O_19  and  C_20
REMARK                            x       y       z     vdW  Elec       q    Type
REMARK                         _______ _______ _______ _____ _____    ______ ____
ROOT
ATOM      1  C   UNL     1       1.134  -2.099  -0.021  0.00  0.00    +0.020 A 
ATOM      2  C   UNL     1       2.328  -2.800  -0.036  0.00  0.00    +0.122 A 
ATOM      3  C   UNL     1       3.546  -2.124  -0.044  0.00  0.00    +0.046 A 
ATOM      4  C   UNL     1       3.579  -0.759  -0.036  0.00  0.00    +0.019 A 
ATOM      5  C   UNL     1       2.385  -0.038  -0.021  0.00  0.00    +0.068 A 
ATOM      6  C   UNL     1       1.150  -0.711  -0.013  0.00  0.00    +0.144 A 
ATOM      7  O   UNL     1       0.002  -0.004   0.002  0.00  0.00    -0.447 OA
ATOM      8  C   UNL     1      -0.016   1.335   0.009  0.00  0.00    +0.254 A 
ATOM      9  C   UNL     1       1.107   2.080   0.003  0.00  0.00    +0.222 A 
ATOM     10  C   UNL     1       2.377   1.435  -0.012  0.00  0.00    +0.235 A 
ATOM     11  O   UNL     1       3.415   2.076  -0.018  0.00  0.00    -0.283 OA
ENDROOT
BRANCH   8  12
ATOM     12  C   UNL     1      -1.349   2.039   0.019  0.00  0.00    +0.454 C 
ATOM     13  F   UNL     1      -1.767   2.264  -1.296  0.00  0.00    -0.163 F 
ATOM     14  F   UNL     1      -2.291   1.244   0.679  0.00  0.00    -0.163 F 
ATOM     15  F   UNL     1      -1.224   3.263   0.685  0.00  0.00    -0.163 F 
ENDBRANCH   8  12
BRANCH   2  16
ATOM     16  O   UNL     1       2.311  -4.157  -0.043  0.00  0.00    -0.506 OA
ATOM     17  H   UNL     1       2.298  -4.545  -0.929  0.00  0.00    +0.292 HD
ENDBRANCH   2  16
BRANCH   1  18
ATOM     18  C   UNL     1      -0.178  -2.840  -0.011  0.00  0.00    -0.036 C 
BRANCH  18  25
ATOM     19  C   UNL     1      -1.662  -4.657  -5.224  0.00  0.00    +0.007 C 
ATOM     20  C   UNL     1      -1.164  -4.608  -3.778  0.00  0.00    -0.018 C 
ATOM     21  C   UNL     1      -2.285  -4.097  -2.868  0.00  0.00    -0.016 C 
ATOM     22  C   UNL     1      -1.763  -3.992  -1.433  0.00  0.00    -0.078 C 
ATOM     23  C   UNL     1       0.488  -3.567  -2.222  0.00  0.00    -0.078 C 
ATOM     24  C   UNL     1       0.034  -3.659  -3.681  0.00  0.00    -0.016 C 
ATOM     25  N   UNL     1      -0.627  -3.046  -1.404  0.00  0.00    +0.383 N 
ATOM     26  H   UNL     1      -0.933  -2.146  -1.792  0.00  0.00    -0.081 HD
ENDBRANCH  18  25
ENDBRANCH   1  18
BRANCH   9  27
ATOM     27  O   UNL     1       1.029   3.439   0.011  0.00  0.00    -0.448 OA
BRANCH  27  28
ATOM     28  C   UNL     1       1.004   4.069   1.214  0.00  0.00    +0.129 A 
ATOM     29  C   UNL     1       1.051   3.329   2.387  0.00  0.00    +0.048 A 
ATOM     30  C   UNL     1       1.031   3.973   3.610  0.00  0.00    +0.023 A 
ATOM     31  C   UNL     1       0.952   5.353   3.665  0.00  0.00    +0.041 A 
ATOM     32  C   UNL     1       0.898   6.092   2.496  0.00  0.00    +0.023 A 
ATOM     33  C   UNL     1       0.924   5.453   1.272  0.00  0.00    +0.048 A 
ATOM     34 CL   UNL     1       0.920   6.158   5.202  0.00  0.00    -0.084 Cl
ENDBRANCH  27  28
ENDBRANCH   9  27
TORSDOF 6
