REMARK  Name = ZINC38485395
REMARK  10 active torsions:
REMARK  status: ('A' for Active; 'I' for Inactive)
REMARK    1  A    between atoms: C_1  and  C_2
REMARK    2  A    between atoms: C_2  and  N_3
REMARK    3  A    between atoms: N_3  and  C_4
REMARK    4  A    between atoms: C_4  and  C_5
REMARK    5  A    between atoms: C_6  and  C_8
REMARK    6  A    between atoms: C_8  and  N_9
REMARK    7  A    between atoms: C_15  and  C_17
REMARK    8  A    between atoms: N_19  and  C_33
REMARK    9  A    between atoms: N_24  and  C_27
REMARK   10  A    between atoms: C_33  and  C_34
REMARK                            x       y       z     vdW  Elec       q    Type
REMARK                         _______ _______ _______ _____ _____    ______ ____
ROOT
ATOM      1  C   UNL     1      -1.052  -1.633  -9.456  0.00  0.00    +0.081 A 
ATOM      2  C   UNL     1      -1.155  -1.345 -10.785  0.00  0.00    +0.101 A 
ATOM      3  N   UNL     1      -0.711  -2.202 -11.738  0.00  0.00    -0.349 N 
ATOM      4  C   UNL     1      -0.141  -3.390 -11.461  0.00  0.00    +0.101 A 
ATOM      5  C   UNL     1       0.023  -3.803 -10.164  0.00  0.00    +0.085 A 
ATOM      6  C   UNL     1       0.575  -4.979  -9.498  0.00  0.00    +0.283 A 
ATOM      7  O   UNL     1       1.067  -5.960 -10.030  0.00  0.00    -0.265 OA
ATOM      8  N   UNL     1       0.431  -4.761  -8.172  0.00  0.00    -0.196 N 
ATOM      9  N   UNL     1      -0.177  -3.523  -7.946  0.00  0.00    -0.162 NA
ATOM     10  C   UNL     1      -0.433  -2.915  -9.070  0.00  0.00    +0.112 A 
ENDROOT
BRANCH   1  17
ATOM     11  N   UNL     1      -5.279  -1.283  -6.930  0.00  0.00    -0.291 NA
ATOM     12  C   UNL     1      -4.234  -0.628  -6.132  0.00  0.00    +0.104 C 
ATOM     13  C   UNL     1      -3.348   0.219  -7.052  0.00  0.00    +0.123 C 
ATOM     14  N   UNL     1      -2.854  -0.636  -8.141  0.00  0.00    -0.295 N 
ATOM     15  C   UNL     1      -3.831  -1.432  -8.899  0.00  0.00    +0.123 C 
ATOM     16  C   UNL     1      -4.697  -2.214  -7.907  0.00  0.00    +0.104 C 
ATOM     17  C   UNL     1      -1.540  -0.689  -8.437  0.00  0.00    +0.250 C 
ATOM     18  O   UNL     1      -0.757   0.042  -7.861  0.00  0.00    -0.270 OA
BRANCH  11  19
ATOM     19  C   UNL     1      -6.251  -1.966  -6.066  0.00  0.00    +0.180 C 
BRANCH  19  21
ATOM     20  N   UNL     1      -7.950  -1.343  -4.380  0.00  0.00    -0.301 N 
ATOM     21  C   UNL     1      -7.001  -0.945  -5.249  0.00  0.00    +0.230 C 
ATOM     22  O   UNL     1      -6.750   0.235  -5.375  0.00  0.00    -0.274 OA
BRANCH  20  24
ATOM     23  C   UNL     1      -7.938  -0.106  -2.270  0.00  0.00    +0.024 C 
ATOM     24  C   UNL     1      -8.679  -0.351  -3.586  0.00  0.00    +0.104 C 
ENDBRANCH  20  24
BRANCH  20  25
ATOM     25  C   UNL     1      -8.253  -2.768  -4.228  0.00  0.00    +0.104 C 
ATOM     26  C   UNL     1      -9.354  -3.163  -5.215  0.00  0.00    +0.024 C 
ENDBRANCH  20  25
ENDBRANCH  19  21
ENDBRANCH  11  19
ENDBRANCH   1  17
BRANCH   8  27
ATOM     27  C   UNL     1       0.834  -5.649  -7.168  0.00  0.00    +0.069 A 
ATOM     28  C   UNL     1       1.572  -6.779  -7.493  0.00  0.00    +0.028 A 
ATOM     29  C   UNL     1       1.968  -7.653  -6.500  0.00  0.00    +0.002 A 
ATOM     30  C   UNL     1       1.630  -7.404  -5.182  0.00  0.00    +0.000 A 
ATOM     31  C   UNL     1       0.894  -6.279  -4.855  0.00  0.00    +0.002 A 
ATOM     32  C   UNL     1       0.500  -5.398  -5.843  0.00  0.00    +0.028 A 
ENDBRANCH   8  27
BRANCH   3  33
ATOM     33  C   UNL     1      -0.860  -1.814 -13.143  0.00  0.00    +0.152 C 
BRANCH  33  34
ATOM     34  C   UNL     1       0.385  -1.048 -13.595  0.00  0.00    +0.138 C 
ATOM     35  C   UNL     1       0.187  -0.531 -15.037  0.00  0.00    +0.035 C 
ATOM     36  C   UNL     1       1.593  -0.748 -15.661  0.00  0.00    +0.031 C 
ATOM     37  C   UNL     1       2.040  -2.042 -14.935  0.00  0.00    +0.160 C 
ATOM     38  O   UNL     1       1.519  -1.923 -13.600  0.00  0.00    -0.375 OA
ENDBRANCH  33  34
ENDBRANCH   3  33
TORSDOF 8
