REMARK  Name = ZINC39743678
REMARK  14 active torsions:
REMARK  status: ('A' for Active; 'I' for Inactive)
REMARK    1  A    between atoms: C_1  and  C_2
REMARK    2  A    between atoms: C_3  and  C_36
REMARK    3  A    between atoms: C_8  and  C_10
REMARK    4  A    between atoms: C_10  and  C_12
REMARK    5  A    between atoms: C_10  and  S_13
REMARK    6  A    between atoms: S_13  and  C_14
REMARK    7  A    between atoms: C_17  and  C_23
REMARK    8  A    between atoms: N_18  and  C_19
REMARK    9  A    between atoms: C_19  and  C_20
REMARK   10  A    between atoms: C_20  and  C_21
REMARK   11  A    between atoms: C_20  and  C_22
REMARK   12  A    between atoms: C_23  and  C_25
REMARK   13  A    between atoms: C_23  and  N_26
REMARK   14  A    between atoms: C_27  and  C_29
REMARK                            x       y       z     vdW  Elec       q    Type
REMARK                         _______ _______ _______ _____ _____    ______ ____
ROOT
ATOM      1  C   UNL     1       0.409  -3.739   7.293  0.00  0.00    +0.192 A 
ATOM      2  N   UNL     1       0.103  -4.982   7.003  0.00  0.00    -0.122 NA
ATOM      3  N   UNL     1       0.528  -5.765   7.930  0.00  0.00    -0.132 NA
ATOM      4  C   UNL     1       1.125  -5.074   8.859  0.00  0.00    +0.154 A 
ATOM      5  N   UNL     1       1.076  -3.760   8.484  0.00  0.00    -0.304 N 
ENDROOT
BRANCH   4   6
ATOM      6  C   UNL     1       1.759  -5.622  10.112  0.00  0.00    +0.138 C 
ATOM      7  C   UNL     1       0.666  -5.997  11.114  0.00  0.00    +0.036 C 
BRANCH   6   8
ATOM      8  N   UNL     1       2.546  -6.812   9.780  0.00  0.00    -0.302 N 
ATOM      9  C   UNL     1       3.575  -7.181  10.568  0.00  0.00    +0.245 C 
ATOM     10  O   UNL     1       3.850  -6.526  11.555  0.00  0.00    -0.270 OA
ATOM     11  H   UNL     1       2.326  -7.335   8.993  0.00  0.00    +0.150 HD
BRANCH   9  12
ATOM     12  C   UNL     1       4.369  -8.382  10.234  0.00  0.00    +0.037 A 
ATOM     13  C   UNL     1       4.059  -9.133   9.099  0.00  0.00    +0.014 A 
ATOM     14  C   UNL     1       4.804 -10.252   8.791  0.00  0.00    +0.021 A 
ATOM     15  C   UNL     1       5.858 -10.631   9.606  0.00  0.00    +0.041 A 
ATOM     16  C   UNL     1       6.170  -9.890  10.734  0.00  0.00    +0.021 A 
ATOM     17  C   UNL     1       5.436  -8.766  11.048  0.00  0.00    +0.014 A 
ATOM     18 CL   UNL     1       6.790 -12.042   9.214  0.00  0.00    -0.084 Cl
ENDBRANCH   9  12
ENDBRANCH   6   8
ENDBRANCH   4   6
BRANCH   1  19
ATOM     19  S   UNL     1       0.035  -2.315   6.326  0.00  0.00    -0.074 S 
BRANCH  19  20
ATOM     20  C   UNL     1      -0.852  -2.980   4.890  0.00  0.00    +0.137 C 
ATOM     21  C   UNL     1      -2.176  -3.595   5.349  0.00  0.00    +0.029 C 
BRANCH  20  29
ATOM     22  C   UNL     1      -1.952   2.505   1.206  0.00  0.00    +0.066 C 
ATOM     23  C   UNL     1      -1.931   1.018   0.964  0.00  0.00    +0.050 A 
ATOM     24  C   UNL     1      -2.179   0.496  -0.262  0.00  0.00    +0.011 A 
ATOM     25  S   UNL     1      -2.014  -1.249   0.079  0.00  0.00    -0.057 S 
ATOM     26  C   UNL     1      -1.654  -1.132   1.719  0.00  0.00    +0.165 A 
ATOM     27  N   UNL     1      -1.665   0.165   1.937  0.00  0.00    -0.230 NA
ATOM     28  N   UNL     1      -1.400  -2.158   2.623  0.00  0.00    -0.264 N 
ATOM     29  C   UNL     1      -1.127  -1.869   3.910  0.00  0.00    +0.232 C 
ATOM     30  O   UNL     1      -1.102  -0.714   4.281  0.00  0.00    -0.274 OA
ATOM     31  C   UNL     1      -2.504   1.195  -1.557  0.00  0.00    +0.053 C 
ATOM     32  H   UNL     1      -1.420  -3.081   2.327  0.00  0.00    +0.157 HD
ENDBRANCH  20  29
ENDBRANCH  19  20
ENDBRANCH   1  19
BRANCH   5  33
ATOM     33  C   UNL     1       1.623  -2.611   9.211  0.00  0.00    +0.128 C 
BRANCH  33  34
ATOM     34  C   UNL     1       3.106  -2.450   8.869  0.00  0.00    +0.003 C 
ATOM     35  C   UNL     1       3.251  -2.100   7.387  0.00  0.00    +0.009 C 
ATOM     36  C   UNL     1       3.706  -1.329   9.719  0.00  0.00    +0.009 C 
ENDBRANCH  33  34
ENDBRANCH   5  33
TORSDOF 8
