REMARK  Name = ZINC39710393
REMARK  12 active torsions:
REMARK  status: ('A' for Active; 'I' for Inactive)
REMARK    1  A    between atoms: C_1  and  C_2
REMARK    2  A    between atoms: C_2  and  C_3
REMARK    3  A    between atoms: C_10  and  C_15
REMARK    4  A    between atoms: C_15  and  C_17
REMARK    5  A    between atoms: C_15  and  N_27
REMARK    6  A    between atoms: N_22  and  C_23
REMARK    7  A    between atoms: C_23  and  C_24
REMARK    8  A    between atoms: C_23  and  C_25
REMARK    9  A    between atoms: C_23  and  C_26
REMARK   10  A    between atoms: N_30  and  C_33
REMARK   11  A    between atoms: C_37  and  C_40
REMARK   12  A    between atoms: C_38  and  C_39
REMARK                            x       y       z     vdW  Elec       q    Type
REMARK                         _______ _______ _______ _____ _____    ______ ____
ROOT
ATOM      1  C   UNL     1      -6.434  -1.049  -2.913  0.00  0.00    -0.009 C 
ENDROOT
BRANCH   1   9
ATOM      2  C   UNL     1      -3.439  -5.862  -4.297  0.00  0.00    -0.047 A 
ATOM      3  C   UNL     1      -2.219  -5.231  -4.054  0.00  0.00    +0.005 A 
ATOM      4  C   UNL     1      -2.127  -4.031  -3.424  0.00  0.00    +0.024 A 
ATOM      5  C   UNL     1      -3.285  -3.366  -2.982  0.00  0.00    +0.040 A 
ATOM      6  N   UNL     1      -3.183  -2.188  -2.365  0.00  0.00    -0.285 N 
ATOM      7  C   UNL     1      -4.230  -1.511  -1.925  0.00  0.00    +0.223 C 
ATOM      8  O   UNL     1      -4.074  -0.440  -1.369  0.00  0.00    -0.275 OA
ATOM      9  C   UNL     1      -5.621  -2.071  -2.116  0.00  0.00    +0.088 C 
ATOM     10  C   UNL     1      -5.743  -3.410  -2.818  0.00  0.00    -0.006 C 
ATOM     11  C   UNL     1      -4.588  -4.009  -3.225  0.00  0.00    -0.007 A 
ATOM     12  C   UNL     1      -4.615  -5.300  -3.914  0.00  0.00    +0.013 A 
ATOM     13  H   UNL     1      -2.299  -1.812  -2.233  0.00  0.00    +0.155 HD
BRANCH   2  15
ATOM     14  C   UNL     1      -3.549  -6.968  -6.513  0.00  0.00    +0.009 C 
ATOM     15  C   UNL     1      -3.454  -7.193  -5.003  0.00  0.00    +0.032 C 
ENDBRANCH   2  15
ENDBRANCH   1   9
BRANCH   1  16
ATOM     16  N   UNL     1      -7.811  -1.533  -3.070  0.00  0.00    +0.387 N 
ATOM     17  C   UNL     1      -8.593  -0.545  -3.823  0.00  0.00    -0.059 C 
ATOM     18  C   UNL     1      -9.998  -1.099  -4.086  0.00  0.00    +0.086 C 
ATOM     19  N   UNL     1     -10.593  -1.490  -2.799  0.00  0.00    -0.333 N 
ATOM     20  C   UNL     1      -9.805  -2.352  -1.905  0.00  0.00    +0.086 C 
ATOM     21  C   UNL     1      -8.409  -1.739  -1.744  0.00  0.00    -0.059 C 
ATOM     22  H   UNL     1      -7.804  -2.407  -3.573  0.00  0.00    -0.081 HD
BRANCH  19  23
ATOM     23  C   UNL     1     -11.870  -1.057  -2.437  0.00  0.00    +0.033 A 
ATOM     24  C   UNL     1     -12.984  -1.819  -2.769  0.00  0.00    +0.023 A 
ATOM     25  C   UNL     1     -14.245  -1.387  -2.409  0.00  0.00    +0.002 A 
ATOM     26  C   UNL     1     -14.401  -0.199  -1.720  0.00  0.00    +0.004 A 
ATOM     27  C   UNL     1     -13.295   0.562  -1.388  0.00  0.00    -0.046 A 
ATOM     28  C   UNL     1     -12.030   0.133  -1.739  0.00  0.00    -0.027 A 
ATOM     29  C   UNL     1     -10.824   0.959  -1.372  0.00  0.00    +0.046 C 
ATOM     30  C   UNL     1     -13.470   1.857  -0.637  0.00  0.00    +0.044 C 
ENDBRANCH  19  23
ENDBRANCH   1  16
BRANCH   1  31
ATOM     31  C   UNL     1      -5.800  -0.857  -4.293  0.00  0.00    +0.205 C 
ATOM     32  N   UNL     1      -5.695  -2.145  -4.992  0.00  0.00    -0.152 NA
ATOM     33  N   UNL     1      -4.506  -2.381  -5.216  0.00  0.00    -0.070 NA
ATOM     34  N   UNL     1      -3.656  -1.379  -4.749  0.00  0.00    -0.179 N 
ATOM     35  N   UNL     1      -4.405  -0.390  -4.159  0.00  0.00    -0.183 NA
ATOM     36  H   UNL     1      -2.690  -1.379  -4.829  0.00  0.00    +0.191 HD
BRANCH  35  37
ATOM     37  C   UNL     1      -4.213   0.897  -4.842  0.00  0.00    +0.035 C 
ATOM     38  C   UNL     1      -5.142   1.944  -4.226  0.00  0.00    +0.029 C 
ATOM     39  C   UNL     1      -2.759   1.347  -4.682  0.00  0.00    +0.029 C 
ATOM     40  C   UNL     1      -4.537   0.739  -6.329  0.00  0.00    +0.029 C 
ENDBRANCH  35  37
ENDBRANCH   1  31
TORSDOF 6
