REMARK  Name = ZINC04475641
REMARK  5 active torsions:
REMARK  status: ('A' for Active; 'I' for Inactive)
REMARK    1  A    between atoms: C_1  and  C_2
REMARK    2  A    between atoms: C_10  and  C_11
REMARK    3  A    between atoms: C_10  and  N_22
REMARK    4  A    between atoms: C_11  and  S_15
REMARK    5  A    between atoms: S_15  and  C_16
REMARK                            x       y       z     vdW  Elec       q    Type
REMARK                         _______ _______ _______ _____ _____    ______ ____
ROOT
ATOM      1  C   UNL     1      -1.050   1.321  -0.658  0.00  0.00    +0.044 C 
ATOM      2  C   UNL     1      -0.798  -0.158  -0.520  0.00  0.00    -0.049 A 
ATOM      3  C   UNL     1      -0.491  -0.914  -1.644  0.00  0.00    +0.005 A 
ATOM      4  C   UNL     1      -0.258  -2.267  -1.533  0.00  0.00    +0.025 A 
ATOM      5  C   UNL     1      -0.330  -2.881  -0.287  0.00  0.00    +0.054 A 
ATOM      6  C   UNL     1      -0.640  -2.118   0.849  0.00  0.00    +0.054 A 
ATOM      7  C   UNL     1      -0.868  -0.751   0.721  0.00  0.00    +0.028 A 
ATOM      8  N   UNL     1      -0.639  -2.983   1.923  0.00  0.00    -0.299 N 
ATOM      9  C   UNL     1      -0.344  -4.216   1.473  0.00  0.00    +0.124 C 
ATOM     10  C   UNL     1      -0.246  -5.413   2.305  0.00  0.00    +0.178 C 
ATOM     11  N   UNL     1      -0.153  -4.180   0.142  0.00  0.00    -0.299 N 
ATOM     12  H   UNL     1      -0.820  -2.743   2.845  0.00  0.00    +0.153 HD
ATOM     13  H   UNL     1       0.070  -4.938  -0.420  0.00  0.00    +0.153 HD
ENDROOT
BRANCH  10  14
ATOM     14  C   UNL     1      -0.026  -6.647   1.718  0.00  0.00    +0.076 C 
ATOM     15  C   UNL     1       1.117  -6.856   0.925  0.00  0.00    +0.123 C 
ATOM     16 CL   UNL     1       1.309  -8.345   0.053  0.00  0.00    -0.069 Cl
ATOM     17 CL   UNL     1       2.336  -5.624   0.819  0.00  0.00    -0.069 Cl
BRANCH  14  18
ATOM     18  S   UNL     1      -1.179  -7.957   1.964  0.00  0.00    -0.085 S 
BRANCH  18  19
ATOM     19  C   UNL     1      -2.626  -7.417   1.115  0.00  0.00    +0.013 A 
ATOM     20  C   UNL     1      -2.581  -6.280   0.316  0.00  0.00    +0.015 A 
ATOM     21  C   UNL     1      -3.717  -5.860  -0.347  0.00  0.00    +0.001 A 
ATOM     22  C   UNL     1      -4.898  -6.568  -0.217  0.00  0.00    +0.000 A 
ATOM     23  C   UNL     1      -4.946  -7.700   0.577  0.00  0.00    +0.001 A 
ATOM     24  C   UNL     1      -3.813  -8.130   1.238  0.00  0.00    +0.015 A 
ENDBRANCH  18  19
ENDBRANCH  14  18
ENDBRANCH  10  14
BRANCH  10  25
ATOM     25  N   UNL     1      -0.381  -5.307   3.775  0.00  0.00    +0.061 N 
ATOM     26  O   UNL     1      -0.701  -4.153   4.325  0.00  0.00    -0.126 OA
ATOM     27  O   UNL     1      -0.182  -6.365   4.533  0.00  0.00    -0.126 OA
ENDBRANCH  10  25
TORSDOF 4
