REMARK  Name = ZINC39344630
REMARK  11 active torsions:
REMARK  status: ('A' for Active; 'I' for Inactive)
REMARK    1  A    between atoms: C_1  and  C_2
REMARK    2  A    between atoms: C_2  and  C_3
REMARK    3  A    between atoms: C_2  and  C_4
REMARK    4  A    between atoms: C_4  and  C_5
REMARK    5  A    between atoms: C_5  and  C_6
REMARK    6  A    between atoms: C_9  and  C_24
REMARK    7  A    between atoms: N_15  and  C_17
REMARK    8  A    between atoms: C_17  and  C_18
REMARK    9  A    between atoms: C_24  and  C_25
REMARK   10  A    between atoms: C_28  and  O_31
REMARK   11  A    between atoms: O_31  and  C_32
REMARK                            x       y       z     vdW  Elec       q    Type
REMARK                         _______ _______ _______ _____ _____    ______ ____
ROOT
ATOM      1  C   UNL     1      -2.906  -0.467  -1.626  0.00  0.00    +0.175 C 
ATOM      2  N   UNL     1      -3.664   0.152  -0.514  0.00  0.00    -0.272 NA
ATOM      3  C   UNL     1      -4.450   1.075  -0.968  0.00  0.00    +0.035 C 
ATOM      4  C   UNL     1      -4.237   1.167  -2.444  0.00  0.00    +0.087 C 
ATOM      5  N   UNL     1      -3.741  -0.202  -2.798  0.00  0.00    -0.277 NA
ATOM      6  C   UNL     1      -3.135  -0.121  -4.117  0.00  0.00    +0.068 C 
ATOM      7  C   UNL     1      -4.272   0.221  -5.099  0.00  0.00    -0.063 C 
ATOM      8  N   UNL     1      -4.952   1.463  -4.727  0.00  0.00    +0.383 N 
ATOM      9  C   UNL     1      -5.442   1.427  -3.324  0.00  0.00    -0.054 C 
ATOM     10  H   UNL     1      -4.309   2.233  -4.834  0.00  0.00    -0.082 HD
ENDROOT
BRANCH   1  11
ATOM     11  C   UNL     1      -1.535   0.196  -1.779  0.00  0.00    +0.043 C 
BRANCH  11  12
ATOM     12  C   UNL     1      -0.662  -0.155  -0.573  0.00  0.00    +0.006 C 
BRANCH  12  14
ATOM     13  C   UNL     1       0.547   2.029  -0.680  0.00  0.00    +0.007 C 
ATOM     14  C   UNL     1       0.709   0.508  -0.726  0.00  0.00    -0.017 C 
ATOM     15  C   UNL     1       1.623   0.058   0.415  0.00  0.00    +0.007 C 
ENDBRANCH  12  14
ENDBRANCH  11  12
ENDBRANCH   1  11
BRANCH   8  16
ATOM     16  C   UNL     1      -6.095   1.669  -5.626  0.00  0.00    -0.046 C 
BRANCH  16  17
ATOM     17  C   UNL     1      -6.726   3.034  -5.345  0.00  0.00    +0.136 C 
ATOM     18  C   UNL     1      -7.739   3.389  -6.419  0.00  0.00    +0.021 C 
ATOM     19  C   UNL     1      -7.248   4.502  -6.968  0.00  0.00    +0.132 C 
ATOM     20  N   UNL     1      -6.087   4.859  -6.374  0.00  0.00    -0.162 NA
ATOM     21  N   UNL     1      -5.722   4.106  -5.463  0.00  0.00    -0.182 NA
ENDBRANCH  16  17
ENDBRANCH   8  16
BRANCH   3  22
ATOM     22  C   UNL     1      -5.406   1.908  -0.154  0.00  0.00    +0.087 C 
BRANCH  22  23
ATOM     23  C   UNL     1      -5.316   1.505   1.295  0.00  0.00    -0.042 A 
ATOM     24  C   UNL     1      -6.130   0.500   1.783  0.00  0.00    +0.007 A 
ATOM     25  C   UNL     1      -6.050   0.128   3.111  0.00  0.00    +0.046 A 
ATOM     26  C   UNL     1      -5.151   0.765   3.955  0.00  0.00    +0.120 A 
ATOM     27  C   UNL     1      -4.335   1.773   3.463  0.00  0.00    +0.046 A 
ATOM     28  C   UNL     1      -4.416   2.137   2.132  0.00  0.00    +0.007 A 
BRANCH  26  29
ATOM     29  O   UNL     1      -5.071   0.402   5.262  0.00  0.00    -0.495 OA
ATOM     30  C   UNL     1      -4.123   1.100   6.072  0.00  0.00    +0.277 C 
ENDBRANCH  26  29
ENDBRANCH  22  23
ENDBRANCH   3  22
TORSDOF 8
