REMARK  Name = ZINC64611194
REMARK  5 active torsions:
REMARK  status: ('A' for Active; 'I' for Inactive)
REMARK    1  A    between atoms: C_1  and  C_2
REMARK    2  A    between atoms: C_6  and  N_9
REMARK    3  A    between atoms: C_7  and  C_8
REMARK    4  A    between atoms: N_12  and  C_13
REMARK    5  A    between atoms: C_14  and  C_22
REMARK                            x       y       z     vdW  Elec       q    Type
REMARK                         _______ _______ _______ _____ _____    ______ ____
ROOT
ATOM      1  C   UNL     1      -0.082  -6.214   3.444  0.00  0.00    +0.139 A 
ATOM      2  C   UNL     1      -0.075  -7.038   4.549  0.00  0.00    +0.112 A 
ATOM      3  N   UNL     1      -0.062  -8.312   4.120  0.00  0.00    -0.226 NA
ATOM      4  C   UNL     1      -0.062  -8.326   2.796  0.00  0.00    +0.140 A 
ATOM      5  N   UNL     1      -0.080  -7.028   2.344  0.00  0.00    -0.287 N 
ATOM      6  C   UNL     1      -0.089  -6.763   1.002  0.00  0.00    +0.094 A 
ATOM      7  C   UNL     1      -0.085  -7.768   0.103  0.00  0.00    +0.018 A 
ATOM      8  C   UNL     1      -0.070  -9.106   0.535  0.00  0.00    +0.005 A 
ATOM      9  C   UNL     1      -0.051  -9.386   1.865  0.00  0.00    +0.047 A 
ENDROOT
BRANCH   2  10
ATOM     10  C   UNL     1      -0.079  -6.596   5.964  0.00  0.00    +0.004 A 
ATOM     11  C   UNL     1       0.597  -5.435   6.337  0.00  0.00    +0.013 A 
ATOM     12  C   UNL     1       0.590  -5.029   7.655  0.00  0.00    +0.039 A 
ATOM     13  C   UNL     1      -0.087  -5.772   8.608  0.00  0.00    +0.123 A 
ATOM     14  C   UNL     1      -0.760  -6.926   8.243  0.00  0.00    +0.039 A 
ATOM     15  C   UNL     1      -0.764  -7.338   6.926  0.00  0.00    +0.013 A 
ATOM     16  F   UNL     1      -0.091  -5.370   9.898  0.00  0.00    -0.205 F 
ENDBRANCH   2  10
BRANCH   1  20
ATOM     17  N   UNL     1       0.842  -2.791   2.763  0.00  0.00    -0.269 N 
ATOM     18  C   UNL     1       0.769  -4.134   2.670  0.00  0.00    +0.309 C 
ATOM     19  O   UNL     1       1.483  -4.729   1.886  0.00  0.00    -0.252 OA
ATOM     20  N   UNL     1      -0.096  -4.817   3.446  0.00  0.00    -0.253 N 
ATOM     21  H   UNL     1       0.325  -2.323   3.438  0.00  0.00    +0.156 HD
ATOM     22  H   UNL     1      -0.727  -4.339   4.006  0.00  0.00    +0.158 HD
BRANCH  17  28
ATOM     23  C   UNL     1       3.459   1.251   1.773  0.00  0.00    +0.044 C 
ATOM     24  C   UNL     1       2.946  -0.111   1.382  0.00  0.00    -0.046 A 
ATOM     25  C   UNL     1       3.286  -0.652   0.155  0.00  0.00    +0.004 A 
ATOM     26  C   UNL     1       2.817  -1.901  -0.207  0.00  0.00    +0.002 A 
ATOM     27  C   UNL     1       2.006  -2.612   0.655  0.00  0.00    +0.023 A 
ATOM     28  C   UNL     1       1.663  -2.073   1.887  0.00  0.00    +0.038 A 
ATOM     29  C   UNL     1       2.140  -0.820   2.251  0.00  0.00    -0.026 A 
ATOM     30  C   UNL     1       1.775  -0.233   3.590  0.00  0.00    +0.046 C 
ENDBRANCH  17  28
ENDBRANCH   1  20
TORSDOF 3
