REMARK  Name = ZINC04090374
REMARK  8 active torsions:
REMARK  status: ('A' for Active; 'I' for Inactive)
REMARK    1  A    between atoms: C_1  and  C_2
REMARK    2  A    between atoms: C_2  and  C_3
REMARK    3  A    between atoms: C_3  and  C_5
REMARK    4  A    between atoms: C_3  and  N_6
REMARK    5  A    between atoms: C_7  and  O_31
REMARK    6  A    between atoms: C_8  and  C_15
REMARK    7  A    between atoms: C_29  and  C_30
REMARK    8  A    between atoms: C_29  and  N_54
REMARK                            x       y       z     vdW  Elec       q    Type
REMARK                         _______ _______ _______ _____ _____    ______ ____
ROOT
ATOM      1  C   UNL     1      -1.439  -0.641   0.466  0.00  0.00    +0.021 C 
ATOM      2  C   UNL     1      -1.718  -1.190  -0.913  0.00  0.00    +0.011 A 
ATOM      3  C   UNL     1      -2.155  -2.452  -1.129  0.00  0.00    -0.022 A 
ATOM      4  C   UNL     1      -2.306  -2.614  -2.558  0.00  0.00    +0.003 A 
ATOM      5  C   UNL     1      -2.718  -3.686  -3.355  0.00  0.00    +0.010 A 
ATOM      6  C   UNL     1      -2.741  -3.479  -4.712  0.00  0.00    +0.001 A 
ATOM      7  C   UNL     1      -2.375  -2.268  -5.277  0.00  0.00    +0.002 A 
ATOM      8  C   UNL     1      -1.963  -1.190  -4.513  0.00  0.00    +0.026 A 
ATOM      9  C   UNL     1      -1.930  -1.371  -3.132  0.00  0.00    +0.047 A 
ATOM     10  N   UNL     1      -1.581  -0.538  -2.108  0.00  0.00    -0.359 N 
ATOM     11  H   UNL     1      -1.282   0.379  -2.212  0.00  0.00    +0.166 HD
ATOM     12  C   UNL     1      -2.413  -3.443  -0.022  0.00  0.00    +0.019 C 
ATOM     13  C   UNL     1      -2.485  -2.669   1.301  0.00  0.00    -0.073 C 
ATOM     14  N   UNL     1      -1.301  -1.785   1.398  0.00  0.00    +0.388 N 
ATOM     15  H   UNL     1      -0.464  -2.322   1.144  0.00  0.00    -0.080 HD
ENDROOT
BRANCH   1  18
ATOM     16  N   UNL     1       1.048   2.159   0.682  0.00  0.00    -0.262 N 
ATOM     17  C   UNL     1      -0.141   1.474   0.701  0.00  0.00    +0.204 A 
ATOM     18  C   UNL     1      -0.146   0.134   0.450  0.00  0.00    +0.069 A 
ATOM     19  C   UNL     1       1.071  -0.515   0.177  0.00  0.00    +0.260 A 
ATOM     20  O   UNL     1       1.090  -1.713  -0.050  0.00  0.00    -0.267 OA
ATOM     21  N   UNL     1       2.216   0.196   0.168  0.00  0.00    -0.275 N 
ATOM     22  H   UNL     1       3.083  -0.263  -0.026  0.00  0.00    +0.173 HD
ATOM     23  C   UNL     1       2.201   1.518   0.419  0.00  0.00    +0.332 A 
ATOM     24  O   UNL     1       3.244   2.142   0.406  0.00  0.00    -0.246 OA
BRANCH  16  25
ATOM     25  C   UNL     1       1.061   3.600   0.950  0.00  0.00    +0.092 C 
ATOM     26  C   UNL     1       1.915   3.879   2.189  0.00  0.00    +0.031 C 
BRANCH  25  28
ATOM     27  C   UNL     1       0.731   4.160  -1.462  0.00  0.00    +0.006 C 
ATOM     28  C   UNL     1       1.652   4.337  -0.253  0.00  0.00    +0.022 C 
ENDBRANCH  25  28
ENDBRANCH  16  25
BRANCH  17  29
ATOM     29  O   UNL     1      -1.296   2.122   0.960  0.00  0.00    -0.493 OA
ATOM     30  H   UNL     1      -1.180   3.051   1.203  0.00  0.00    +0.294 HD
ENDBRANCH  17  29
ENDBRANCH   1  18
BRANCH  14  31
ATOM     31  C   UNL     1      -1.153  -1.292   2.783  0.00  0.00    -0.081 C 
ATOM     32  C   UNL     1      -2.469  -0.695   3.286  0.00  0.00    -0.017 C 
ENDBRANCH  14  31
TORSDOF 5
