REMARK  Name = ZINC39325050
REMARK  7 active torsions:
REMARK  status: ('A' for Active; 'I' for Inactive)
REMARK    1  A    between atoms: C_1  and  C_2
REMARK    2  A    between atoms: C_8  and  C_14
REMARK    3  A    between atoms: C_14  and  N_15
REMARK    4  A    between atoms: N_15  and  C_16
REMARK    5  A    between atoms: N_15  and  S_26
REMARK    6  A    between atoms: C_16  and  C_17
REMARK    7  A    between atoms: S_26  and  C_29
REMARK                            x       y       z     vdW  Elec       q    Type
REMARK                         _______ _______ _______ _____ _____    ______ ____
ROOT
ATOM      1  N   UNL     1       1.271  -1.833   5.710  0.00  0.00    -0.171 NA
ENDROOT
BRANCH   1   2
ATOM      2  S   UNL     1       2.009  -0.353   5.796  0.00  0.00    +0.061 S 
ATOM      3  O   UNL     1       2.445  -0.194   7.139  0.00  0.00    -0.153 OA
ATOM      4  O   UNL     1       2.900  -0.279   4.692  0.00  0.00    -0.153 OA
BRANCH   2   5
ATOM      5  C   UNL     1       0.765   0.865   5.523  0.00  0.00    +0.109 A 
ATOM      6  C   UNL     1       0.578   1.388   4.257  0.00  0.00    +0.032 A 
ATOM      7  C   UNL     1      -0.395   2.345   4.039  0.00  0.00    +0.051 A 
ATOM      8  C   UNL     1      -1.188   2.782   5.091  0.00  0.00    +0.162 A 
ATOM      9  C   UNL     1      -1.001   2.254   6.363  0.00  0.00    +0.164 A 
ATOM     10  C   UNL     1      -0.024   1.292   6.574  0.00  0.00    +0.078 A 
ATOM     11  O   UNL     1      -1.772   2.663   7.407  0.00  0.00    -0.485 OA
ATOM     12  C   UNL     1      -2.490   3.890   7.234  0.00  0.00    +0.270 C 
ATOM     13  C   UNL     1      -3.162   3.865   5.855  0.00  0.00    +0.270 C 
ATOM     14  O   UNL     1      -2.140   3.727   4.861  0.00  0.00    -0.485 OA
ENDBRANCH   2   5
ENDBRANCH   1   2
BRANCH   1  15
ATOM     15  C   UNL     1       1.301  -2.595   4.460  0.00  0.00    +0.126 C 
BRANCH  15  23
ATOM     16  C   UNL     1      -2.473   0.234   0.532  0.00  0.00    +0.045 C 
ATOM     17  C   UNL     1      -1.807  -1.117   0.478  0.00  0.00    -0.029 A 
ATOM     18  C   UNL     1      -1.748  -1.793  -0.700  0.00  0.00    +0.005 A 
ATOM     19  C   UNL     1      -1.146  -3.046  -0.819  0.00  0.00    +0.001 A 
ATOM     20  C   UNL     1      -0.580  -3.663   0.250  0.00  0.00    +0.009 A 
ATOM     21  C   UNL     1      -0.608  -2.991   1.550  0.00  0.00    -0.007 A 
ATOM     22  C   UNL     1      -0.053  -3.573   2.650  0.00  0.00    -0.003 C 
ATOM     23  C   UNL     1      -0.128  -2.805   3.955  0.00  0.00    +0.114 C 
ATOM     24  C   UNL     1      -0.812  -1.457   3.930  0.00  0.00    +0.225 C 
ATOM     25  O   UNL     1      -0.900  -0.798   4.948  0.00  0.00    -0.275 OA
ATOM     26  N   UNL     1      -1.314  -0.997   2.796  0.00  0.00    -0.284 N 
ATOM     27  C   UNL     1      -1.246  -1.667   1.645  0.00  0.00    +0.043 A 
ATOM     28  H   UNL     1      -1.749  -0.130   2.801  0.00  0.00    +0.155 HD
ENDBRANCH  15  23
ENDBRANCH   1  15
BRANCH   1  29
ATOM     29  C   UNL     1       0.588  -2.381   6.885  0.00  0.00    +0.144 C 
BRANCH  29  30
ATOM     30  C   UNL     1       1.527  -3.293   7.632  0.00  0.00    -0.028 A 
ATOM     31  C   UNL     1       1.579  -4.638   7.316  0.00  0.00    +0.009 A 
ATOM     32  C   UNL     1       2.439  -5.479   7.998  0.00  0.00    +0.050 A 
ATOM     33  C   UNL     1       3.251  -4.975   9.001  0.00  0.00    +0.166 A 
ATOM     34  C   UNL     1       3.198  -3.620   9.320  0.00  0.00    +0.167 A 
ATOM     35  C   UNL     1       2.338  -2.782   8.628  0.00  0.00    +0.054 A 
ATOM     36  O   UNL     1       4.083  -3.375  10.330  0.00  0.00    -0.453 OA
ATOM     37  C   UNL     1       4.379  -4.662  10.902  0.00  0.00    +0.466 C 
ATOM     38  O   UNL     1       4.168  -5.578   9.811  0.00  0.00    -0.453 OA
ENDBRANCH  29  30
ENDBRANCH   1  29
TORSDOF 6
