REMARK  Name = ZINC63446490
REMARK  15 active torsions:
REMARK  status: ('A' for Active; 'I' for Inactive)
REMARK    1  A    between atoms: C_1  and  C_2
REMARK    2  A    between atoms: C_2  and  O_3
REMARK    3  A    between atoms: O_3  and  C_4
REMARK    4  A    between atoms: C_4  and  C_6
REMARK    5  A    between atoms: C_6  and  S_7
REMARK    6  A    between atoms: S_7  and  C_8
REMARK    7  A    between atoms: C_12  and  C_15
REMARK    8  A    between atoms: C_15  and  C_17
REMARK    9  A    between atoms: C_15  and  N_27
REMARK   10  A    between atoms: C_17  and  C_18
REMARK   11  A    between atoms: C_28  and  O_30
REMARK   12  A    between atoms: O_30  and  C_31
REMARK   13  A    between atoms: C_31  and  C_32
REMARK   14  A    between atoms: C_31  and  C_33
REMARK   15  A    between atoms: C_31  and  C_34
REMARK                            x       y       z     vdW  Elec       q    Type
REMARK                         _______ _______ _______ _____ _____    ______ ____
ROOT
ATOM      1  C   UNL     1      -6.921  -2.684   1.316  0.00  0.00    +0.133 C 
ENDROOT
BRANCH   1   5
ATOM      2  C   UNL     1      -4.461  -4.614  -0.344  0.00  0.00    +0.319 C 
ATOM      3  N   UNL     1      -5.363  -4.092  -1.379  0.00  0.00    -0.146 NA
ATOM      4  N   UNL     1      -6.422  -3.708  -0.866  0.00  0.00    -0.155 NA
ATOM      5  C   UNL     1      -6.383  -3.917   0.587  0.00  0.00    +0.280 C 
ATOM      6  O   UNL     1      -4.989  -4.122   0.905  0.00  0.00    -0.316 OA
BRANCH   2   7
ATOM      7  S   UNL     1      -2.778  -3.991  -0.605  0.00  0.00    -0.093 S 
BRANCH   7   8
ATOM      8  C   UNL     1      -2.956  -2.189  -0.501  0.00  0.00    +0.194 C 
BRANCH   8   9
ATOM      9  C   UNL     1      -1.597  -1.544  -0.590  0.00  0.00    +0.317 C 
ATOM     10  O   UNL     1      -0.609  -2.229  -0.711  0.00  0.00    -0.250 OA
BRANCH   9  11
ATOM     11  O   UNL     1      -1.483  -0.207  -0.535  0.00  0.00    -0.464 OA
BRANCH  11  13
ATOM     12  C   UNL     1      -0.235   1.862  -0.545  0.00  0.00    +0.048 C 
ATOM     13  C   UNL     1      -0.164   0.336  -0.625  0.00  0.00    +0.229 C 
ENDBRANCH  11  13
ENDBRANCH   9  11
ENDBRANCH   8   9
ENDBRANCH   7   8
ENDBRANCH   2   7
ENDBRANCH   1   5
BRANCH   1  14
ATOM     14  N   UNL     1      -6.193  -1.495   0.866  0.00  0.00    -0.274 N 
ATOM     15  C   UNL     1      -5.590  -0.694   1.766  0.00  0.00    +0.401 C 
ATOM     16  O   UNL     1      -5.572  -1.005   2.941  0.00  0.00    -0.226 OA
ATOM     17  H   UNL     1      -6.145  -1.284  -0.080  0.00  0.00    +0.152 HD
BRANCH  15  18
ATOM     18  O   UNL     1      -5.006   0.451   1.364  0.00  0.00    -0.445 OA
BRANCH  18  19
ATOM     19  C   UNL     1      -4.331   1.220   2.362  0.00  0.00    +0.107 C 
ATOM     20  C   UNL     1      -3.216   0.379   2.986  0.00  0.00    +0.055 C 
ATOM     21  C   UNL     1      -3.727   2.471   1.719  0.00  0.00    +0.055 C 
ATOM     22  C   UNL     1      -5.327   1.634   3.447  0.00  0.00    +0.055 C 
ENDBRANCH  18  19
ENDBRANCH  15  18
ENDBRANCH   1  14
BRANCH   1  23
ATOM     23  C   UNL     1      -8.410  -2.518   1.006  0.00  0.00    +0.060 C 
BRANCH  23  24
ATOM     24  C   UNL     1      -8.968  -1.377   1.818  0.00  0.00    -0.040 C 
ATOM     25  C   UNL     1      -9.117  -0.093   1.422  0.00  0.00    -0.001 A 
ATOM     26  C   UNL     1      -8.815   0.601   0.164  0.00  0.00    +0.010 A 
ATOM     27  C   UNL     1      -9.080   1.923   0.064  0.00  0.00    +0.001 A 
ATOM     28  C   UNL     1      -9.635   2.646   1.129  0.00  0.00    +0.002 A 
ATOM     29  C   UNL     1      -9.940   2.079   2.316  0.00  0.00    +0.026 A 
ATOM     30  C   UNL     1      -9.703   0.693   2.531  0.00  0.00    +0.043 A 
ATOM     31  N   UNL     1      -9.908  -0.076   3.573  0.00  0.00    -0.380 N 
ATOM     32  C   UNL     1      -9.481  -1.439   3.240  0.00  0.00    +0.144 C 
ATOM     33  H   UNL     1     -10.284   0.208   4.421  0.00  0.00    +0.160 HD
ENDBRANCH  23  24
ENDBRANCH   1  23
TORSDOF 11
