REMARK  Name = ZINC41317009
REMARK  4 active torsions:
REMARK  status: ('A' for Active; 'I' for Inactive)
REMARK    1  A    between atoms: C_5  and  N_7
REMARK    2  A    between atoms: C_13  and  C_15
REMARK    3  A    between atoms: C_15  and  C_17
REMARK    4  A    between atoms: C_15  and  C_24
REMARK                            x       y       z     vdW  Elec       q    Type
REMARK                         _______ _______ _______ _____ _____    ______ ____
ROOT
ATOM      1  N   UNL     1       1.250  -2.092  -0.009  0.00  0.00    -0.324 N 
ATOM      2  C   UNL     1       1.248  -2.848   1.252  0.00  0.00    +0.124 C 
ATOM      3  C   UNL     1       0.060  -3.818   1.240  0.00  0.00    +0.126 C 
ATOM      4  N   UNL     1       0.070  -4.558  -0.029  0.00  0.00    -0.298 N 
ATOM      5  C   UNL     1       0.071  -3.802  -1.290  0.00  0.00    +0.126 C 
ATOM      6  C   UNL     1       1.254  -2.833  -1.278  0.00  0.00    +0.124 C 
ATOM      7  C   UNL     1       0.078  -5.906  -0.037  0.00  0.00    +0.223 C 
ATOM      8  O   UNL     1       0.177  -6.518   1.005  0.00  0.00    -0.275 OA
ENDROOT
BRANCH   1  13
ATOM      9  C   UNL     1       0.025   1.378   0.013  0.00  0.00    +0.004 A 
ATOM     10  C   UNL     1       1.213   2.084   0.017  0.00  0.00    +0.029 A 
ATOM     11  C   UNL     1       2.423   1.404   0.013  0.00  0.00    +0.089 A 
ATOM     12  C   UNL     1       2.441   0.012   0.004  0.00  0.00    +0.178 A 
ATOM     13  C   UNL     1       1.241  -0.694   0.000  0.00  0.00    +0.075 A 
ATOM     14  C   UNL     1       0.036  -0.005   0.005  0.00  0.00    +0.027 A 
ATOM     15  O   UNL     1       3.741  -0.375   0.001  0.00  0.00    -0.406 OA
ATOM     16  C   UNL     1       4.524   0.715   0.007  0.00  0.00    +0.419 A 
ATOM     17  O   UNL     1       5.740   0.706   0.007  0.00  0.00    -0.223 OA
ATOM     18  N   UNL     1       3.754   1.821   0.014  0.00  0.00    -0.288 N 
ATOM     19  H   UNL     1       4.068   2.738   0.019  0.00  0.00    +0.172 HD
ENDBRANCH   1  13
BRANCH   7  20
ATOM     20  C   UNL     1      -0.036  -6.652  -1.342  0.00  0.00    +0.108 C 
BRANCH  20  21
ATOM     21  C   UNL     1       1.343  -6.991  -1.848  0.00  0.00    -0.035 A 
ATOM     22  C   UNL     1       2.182  -7.784  -1.087  0.00  0.00    +0.007 A 
ATOM     23  C   UNL     1       3.446  -8.096  -1.550  0.00  0.00    +0.038 A 
ATOM     24  C   UNL     1       3.872  -7.615  -2.777  0.00  0.00    +0.123 A 
ATOM     25  C   UNL     1       3.030  -6.822  -3.538  0.00  0.00    +0.038 A 
ATOM     26  C   UNL     1       1.764  -6.515  -3.075  0.00  0.00    +0.007 A 
ATOM     27  F   UNL     1       5.107  -7.920  -3.231  0.00  0.00    -0.205 F 
ENDBRANCH  20  21
BRANCH  20  28
ATOM     28  C   UNL     1      -0.831  -7.941  -1.125  0.00  0.00    +0.005 C 
ATOM     29  C   UNL     1      -1.932  -8.270  -2.134  0.00  0.00    +0.005 C 
ATOM     30  C   UNL     1      -2.301  -7.804  -0.724  0.00  0.00    +0.005 C 
ENDBRANCH  20  28
ENDBRANCH   7  20
TORSDOF 4
