REMARK  Name = ZINC01327935
REMARK  13 active torsions:
REMARK  status: ('A' for Active; 'I' for Inactive)
REMARK    1  A    between atoms: C_1  and  C_2
REMARK    2  A    between atoms: C_2  and  C_3
REMARK    3  A    between atoms: C_3  and  C_4
REMARK    4  A    between atoms: C_3  and  C_5
REMARK    5  A    between atoms: C_3  and  N_6
REMARK    6  A    between atoms: C_7  and  C_11
REMARK    7  A    between atoms: C_11  and  C_13
REMARK    8  A    between atoms: C_11  and  N_20
REMARK    9  A    between atoms: C_16  and  C_19
REMARK   10  A    between atoms: N_20  and  C_21
REMARK   11  A    between atoms: N_20  and  C_23
REMARK   12  A    between atoms: C_21  and  C_22
REMARK   13  A    between atoms: C_23  and  C_24
REMARK                            x       y       z     vdW  Elec       q    Type
REMARK                         _______ _______ _______ _____ _____    ______ ____
ROOT
ATOM      1  C   UNL     1       3.018  -2.812  -3.945  0.00  0.00    +0.034 C 
ENDROOT
BRANCH   1   2
ATOM      2  C   UNL     1       2.983  -2.839  -5.451  0.00  0.00    -0.054 A 
ATOM      3  C   UNL     1       3.528  -3.908  -6.136  0.00  0.00    +0.003 A 
ATOM      4  C   UNL     1       3.496  -3.933  -7.518  0.00  0.00    +0.003 A 
ATOM      5  C   UNL     1       2.918  -2.888  -8.214  0.00  0.00    -0.050 A 
ATOM      6  C   UNL     1       2.372  -1.819  -7.529  0.00  0.00    +0.003 A 
ATOM      7  C   UNL     1       2.400  -1.796  -6.147  0.00  0.00    +0.003 A 
ATOM      8  C   UNL     1       2.885  -2.914  -9.721  0.00  0.00    +0.044 C 
ENDBRANCH   1   2
BRANCH   1  10
ATOM      9  N   UNL     1       0.954  -3.683  -2.725  0.00  0.00    -0.225 N 
ATOM     10  C   UNL     1       2.101  -3.878  -3.402  0.00  0.00    +0.143 A 
ATOM     11  N   UNL     1       2.266  -5.175  -3.498  0.00  0.00    -0.115 NA
ATOM     12  N   UNL     1       1.272  -5.746  -2.911  0.00  0.00    -0.023 NA
ATOM     13  N   UNL     1       0.480  -4.848  -2.438  0.00  0.00    -0.043 NA
BRANCH   9  14
ATOM     14  C   UNL     1       0.359  -2.391  -2.375  0.00  0.00    +0.061 C 
ATOM     15  C   UNL     1       0.215  -1.537  -3.636  0.00  0.00    +0.036 C 
ATOM     16  C   UNL     1       1.261  -1.670  -1.371  0.00  0.00    +0.036 C 
BRANCH  14  18
ATOM     17  C   UNL     1      -1.641  -1.267  -1.386  0.00  0.00    +0.006 C 
ATOM     18  C   UNL     1      -1.020  -2.617  -1.752  0.00  0.00    +0.026 C 
ENDBRANCH  14  18
ENDBRANCH   9  14
ENDBRANCH   1  10
BRANCH   1  19
ATOM     19  N   UNL     1       4.389  -3.063  -3.482  0.00  0.00    +0.392 N 
ATOM     20  H   UNL     1       4.655  -4.008  -3.716  0.00  0.00    -0.080 HD
BRANCH  19  21
ATOM     21  C   UNL     1       4.456  -2.881  -2.026  0.00  0.00    -0.080 C 
ATOM     22  C   UNL     1       3.656  -3.989  -1.337  0.00  0.00    -0.017 C 
ENDBRANCH  19  21
BRANCH  19  23
ATOM     23  C   UNL     1       5.307  -2.120  -4.136  0.00  0.00    -0.042 C 
BRANCH  23  24
ATOM     24  C   UNL     1       6.726  -2.456  -3.756  0.00  0.00    -0.064 A 
ATOM     25  C   UNL     1       7.296  -1.883  -2.635  0.00  0.00    +0.002 A 
ATOM     26  C   UNL     1       8.598  -2.192  -2.287  0.00  0.00    +0.000 A 
ATOM     27  C   UNL     1       9.330  -3.073  -3.060  0.00  0.00    +0.000 A 
ATOM     28  C   UNL     1       8.759  -3.647  -4.181  0.00  0.00    +0.000 A 
ATOM     29  C   UNL     1       7.456  -3.342  -4.527  0.00  0.00    +0.002 A 
ENDBRANCH  23  24
ENDBRANCH  19  23
ENDBRANCH   1  19
TORSDOF 8
