REMARK  Name = ZINC25186979
REMARK  9 active torsions:
REMARK  status: ('A' for Active; 'I' for Inactive)
REMARK    1  A    between atoms: C_1  and  C_2
REMARK    2  A    between atoms: C_2  and  N_3
REMARK    3  A    between atoms: N_6  and  C_9
REMARK    4  A    between atoms: C_12  and  N_16
REMARK    5  A    between atoms: C_13  and  C_15
REMARK    6  A    between atoms: C_17  and  C_19
REMARK    7  A    between atoms: N_22  and  S_25
REMARK    8  A    between atoms: S_25  and  C_28
REMARK    9  A    between atoms: C_31  and  C_34
REMARK                            x       y       z     vdW  Elec       q    Type
REMARK                         _______ _______ _______ _____ _____    ______ ____
ROOT
ATOM      1  N   UNL     1      -3.226   5.069  -5.798  0.00  0.00    -0.285 N 
ATOM      2  C   UNL     1      -3.577   4.233  -6.795  0.00  0.00    +0.220 C 
ATOM      3  O   UNL     1      -3.451   3.035  -6.654  0.00  0.00    -0.275 OA
ATOM      4  H   UNL     1      -3.424   6.147  -5.889  0.00  0.00    +0.155 HD
ENDROOT
BRANCH   1   8
ATOM      5  C   UNL     1      -1.385   3.571  -2.369  0.00  0.00    +0.030 A 
ATOM      6  C   UNL     1      -1.285   2.879  -3.569  0.00  0.00    +0.025 A 
ATOM      7  C   UNL     1      -1.899   3.372  -4.703  0.00  0.00    +0.025 A 
ATOM      8  C   UNL     1      -2.608   4.565  -4.646  0.00  0.00    +0.036 A 
ATOM      9  C   UNL     1      -2.703   5.259  -3.447  0.00  0.00    -0.028 A 
ATOM     10  C   UNL     1      -2.094   4.763  -2.311  0.00  0.00    +0.028 A 
ATOM     11  C   UNL     1      -3.472   6.554  -3.385  0.00  0.00    +0.046 C 
BRANCH   5  15
ATOM     12  N   UNL     1      -0.320   1.161   0.849  0.00  0.00    +0.382 N 
ATOM     13  C   UNL     1       0.651   1.328  -0.241  0.00  0.00    -0.060 C 
ATOM     14  C   UNL     1      -0.076   1.802  -1.502  0.00  0.00    +0.086 C 
ATOM     15  N   UNL     1      -0.767   3.068  -1.218  0.00  0.00    -0.333 N 
ATOM     16  C   UNL     1      -1.739   2.901  -0.129  0.00  0.00    +0.086 C 
ATOM     17  C   UNL     1      -1.012   2.427   1.132  0.00  0.00    -0.060 C 
ATOM     18  H   UNL     1      -1.073   0.428   0.524  0.00  0.00    -0.082 HD
BRANCH  12  20
ATOM     19  C   UNL     1      -0.646   0.708   3.233  0.00  0.00    -0.017 C 
ATOM     20  C   UNL     1       0.329   0.634   2.056  0.00  0.00    -0.082 C 
ENDBRANCH  12  20
ENDBRANCH   5  15
ENDBRANCH   1   8
BRANCH   2  21
ATOM     21  C   UNL     1      -4.127   4.786  -8.084  0.00  0.00    +0.078 C 
ATOM     22  C   UNL     1      -5.405   5.577  -7.795  0.00  0.00    +0.030 C 
ATOM     23  C   UNL     1      -5.942   6.167  -9.103  0.00  0.00    +0.110 C 
ATOM     24  N   UNL     1      -6.112   5.080 -10.077  0.00  0.00    -0.177 NA
ATOM     25  C   UNL     1      -4.970   4.201 -10.361  0.00  0.00    +0.110 C 
ATOM     26  C   UNL     1      -4.444   3.633  -9.040  0.00  0.00    +0.030 C 
BRANCH  24  27
ATOM     27  S   UNL     1      -7.564   4.851 -10.841  0.00  0.00    +0.061 S 
ATOM     28  O   UNL     1      -8.240   6.101 -10.812  0.00  0.00    -0.153 OA
ATOM     29  O   UNL     1      -7.282   4.165 -12.052  0.00  0.00    -0.153 OA
BRANCH  27  30
ATOM     30  C   UNL     1      -8.508   3.746  -9.844  0.00  0.00    +0.105 A 
ATOM     31  C   UNL     1      -8.422   2.382 -10.053  0.00  0.00    +0.029 A 
ATOM     32  C   UNL     1      -9.159   1.515  -9.268  0.00  0.00    +0.005 A 
ATOM     33  C   UNL     1      -9.989   2.012  -8.281  0.00  0.00    -0.050 A 
ATOM     34  C   UNL     1     -10.079   3.376  -8.075  0.00  0.00    +0.005 A 
ATOM     35  C   UNL     1      -9.338   4.243  -8.857  0.00  0.00    +0.029 A 
ATOM     36  C   UNL     1     -10.796   1.067  -7.429  0.00  0.00    +0.044 C 
ENDBRANCH  27  30
ENDBRANCH  24  27
ENDBRANCH   2  21
TORSDOF 6
