REMARK  Name = ZINC09288538
REMARK  4 active torsions:
REMARK  status: ('A' for Active; 'I' for Inactive)
REMARK    1  A    between atoms: C_1  and  C_2
REMARK    2  A    between atoms: N_20  and  C_23
REMARK    3  A    between atoms: C_25  and  N_30
REMARK    4  A    between atoms: C_28  and  C_29
REMARK                            x       y       z     vdW  Elec       q    Type
REMARK                         _______ _______ _______ _____ _____    ______ ____
ROOT
ATOM      1  C   UNL     1      -7.200   9.483  -3.703  0.00  0.00    +0.044 C 
ATOM      2  C   UNL     1      -5.711   9.613  -3.510  0.00  0.00    -0.050 A 
ATOM      3  C   UNL     1      -4.932  10.188  -4.498  0.00  0.00    +0.005 A 
ATOM      4  C   UNL     1      -3.569  10.310  -4.327  0.00  0.00    +0.024 A 
ATOM      5  C   UNL     1      -2.966   9.854  -3.157  0.00  0.00    +0.036 A 
ATOM      6  C   UNL     1      -3.760   9.278  -2.171  0.00  0.00    -0.027 A 
ATOM      7  C   UNL     1      -5.120   9.158  -2.345  0.00  0.00    +0.008 A 
ATOM      8  C   UNL     1      -2.824   8.895  -1.055  0.00  0.00    +0.053 C 
ATOM      9  C   UNL     1      -2.912   7.491  -0.639  0.00  0.00    +0.089 C 
ATOM     10  C   UNL     1      -2.185   7.538   0.764  0.00  0.00    +0.074 C 
ATOM     11  C   UNL     1      -2.956   8.728   1.353  0.00  0.00    -0.054 C 
ATOM     12  C   UNL     1      -2.321  10.817   0.354  0.00  0.00    -0.076 C 
ATOM     13  C   UNL     1      -2.182  10.969   1.899  0.00  0.00    -0.020 C 
ATOM     14  C   UNL     1      -2.045   9.489   2.338  0.00  0.00    -0.016 C 
ATOM     15  C   UNL     1      -2.569   6.146   1.188  0.00  0.00    +0.228 C 
ATOM     16  O   UNL     1      -2.832   5.767   2.309  0.00  0.00    -0.275 OA
ATOM     17  N   UNL     1      -2.558   5.396   0.045  0.00  0.00    -0.210 N 
ATOM     18  C   UNL     1      -2.576   6.163  -1.093  0.00  0.00    +0.229 C 
ATOM     19  O   UNL     1      -2.357   5.804  -2.230  0.00  0.00    -0.275 OA
ATOM     20  C   UNL     1      -1.462   9.328  -1.532  0.00  0.00    +0.212 C 
ATOM     21  O   UNL     1      -0.416   9.214  -0.929  0.00  0.00    -0.277 OA
ATOM     22  N   UNL     1      -1.629   9.867  -2.754  0.00  0.00    -0.286 N 
ATOM     23  H   UNL     1      -0.905  10.223  -3.292  0.00  0.00    +0.155 HD
ATOM     24  N   UNL     1      -3.179   9.629   0.198  0.00  0.00    +0.395 N 
ATOM     25  H   UNL     1      -4.164   9.916   0.163  0.00  0.00    -0.079 HD
ENDROOT
BRANCH  17  26
ATOM     26  C   UNL     1      -2.536   3.994   0.037  0.00  0.00    +0.049 A 
ATOM     27  C   UNL     1      -1.324   3.317   0.032  0.00  0.00    +0.057 A 
ATOM     28  C   UNL     1      -1.306   1.936   0.019  0.00  0.00    +0.128 A 
ATOM     29  C   UNL     1      -2.494   1.228   0.021  0.00  0.00    +0.033 A 
ATOM     30  C   UNL     1      -3.703   1.899   0.031  0.00  0.00    +0.007 A 
ATOM     31  C   UNL     1      -3.727   3.281   0.039  0.00  0.00    -0.028 A 
ATOM     32  C   UNL     1      -5.045   4.012   0.051  0.00  0.00    +0.045 C 
BRANCH  28  33
ATOM     33  N   UNL     1      -0.014   1.214   0.009  0.00  0.00    +0.056 N 
ATOM     34  O   UNL     1       0.002  -0.004   0.002  0.00  0.00    -0.126 OA
ATOM     35  O   UNL     1       1.032   1.837   0.002  0.00  0.00    -0.126 OA
ENDBRANCH  28  33
ENDBRANCH  17  26
TORSDOF 2
