REMARK  Name = ZINC05238814
REMARK  7 active torsions:
REMARK  status: ('A' for Active; 'I' for Inactive)
REMARK    1  A    between atoms: C_1  and  C_2
REMARK    2  A    between atoms: C_2  and  C_3
REMARK    3  A    between atoms: C_2  and  C_4
REMARK    4  A    between atoms: C_7  and  C_10
REMARK    5  A    between atoms: C_19  and  S_21
REMARK    6  A    between atoms: S_21  and  C_22
REMARK    7  A    between atoms: C_22  and  C_23
REMARK                            x       y       z     vdW  Elec       q    Type
REMARK                         _______ _______ _______ _____ _____    ______ ____
ROOT
ATOM      1  C   UNL     1      -2.709   2.943   4.745  0.00  0.00    +0.004 A 
ATOM      2  C   UNL     1      -3.925   2.452   5.082  0.00  0.00    +0.056 A 
ATOM      3  S   UNL     1      -4.318   3.322   6.588  0.00  0.00    -0.076 S 
ATOM      4  C   UNL     1      -2.859   4.322   6.723  0.00  0.00    +0.117 A 
ATOM      5  C   UNL     1      -2.098   3.955   5.600  0.00  0.00    +0.080 A 
ATOM      6  C   UNL     1      -0.841   4.620   5.454  0.00  0.00    +0.261 A 
ATOM      7  O   UNL     1      -0.114   4.365   4.510  0.00  0.00    -0.267 OA
ATOM      8  N   UNL     1      -0.470   5.531   6.373  0.00  0.00    -0.301 N 
ATOM      9  H   UNL     1       0.408   5.998   6.274  0.00  0.00    +0.171 HD
ATOM     10  C   UNL     1      -1.272   5.829   7.436  0.00  0.00    +0.171 A 
ATOM     11  N   UNL     1      -2.435   5.231   7.595  0.00  0.00    -0.216 NA
ENDROOT
BRANCH   1  15
ATOM     12  C   UNL     1      -0.718   1.572   1.248  0.00  0.00    -0.045 A 
ATOM     13  C   UNL     1      -0.854   2.929   1.476  0.00  0.00    +0.004 A 
ATOM     14  C   UNL     1      -1.504   3.380   2.606  0.00  0.00    +0.009 A 
ATOM     15  C   UNL     1      -2.014   2.465   3.526  0.00  0.00    -0.017 A 
ATOM     16  C   UNL     1      -1.869   1.098   3.294  0.00  0.00    +0.009 A 
ATOM     17  C   UNL     1      -1.222   0.658   2.157  0.00  0.00    +0.004 A 
BRANCH  12  19
ATOM     18  C   UNL     1       1.423   1.615  -0.003  0.00  0.00    +0.012 C 
ATOM     19  C   UNL     1      -0.013   1.086   0.008  0.00  0.00    +0.013 C 
ATOM     20  C   UNL     1      -0.753   1.593  -1.232  0.00  0.00    +0.012 C 
ENDBRANCH  12  19
ENDBRANCH   1  15
BRANCH  10  21
ATOM     21  S   UNL     1      -0.744   7.029   8.614  0.00  0.00    -0.076 S 
BRANCH  21  22
ATOM     22  C   UNL     1      -2.156   7.001   9.746  0.00  0.00    +0.202 C 
BRANCH  22  23
ATOM     23  C   UNL     1      -1.920   7.980  10.867  0.00  0.00    +0.366 C 
ATOM     24  O   UNL     1      -0.902   8.630  10.898  0.00  0.00    -0.245 OA
ATOM     25  O   UNL     1      -2.841   8.130  11.832  0.00  0.00    -0.245 OA
ENDBRANCH  22  23
ENDBRANCH  21  22
ENDBRANCH  10  21
TORSDOF 5
