REMARK  Name = ZINC00918649
REMARK  14 active torsions:
REMARK  status: ('A' for Active; 'I' for Inactive)
REMARK    1  A    between atoms: C_1  and  C_2
REMARK    2  A    between atoms: C_2  and  O_3
REMARK    3  A    between atoms: O_3  and  C_4
REMARK    4  A    between atoms: C_11  and  C_16
REMARK    5  A    between atoms: C_16  and  N_17
REMARK    6  A    between atoms: N_17  and  C_18
REMARK    7  A    between atoms: N_17  and  S_27
REMARK    8  A    between atoms: C_18  and  C_19
REMARK    9  A    between atoms: C_19  and  C_20
REMARK   10  A    between atoms: C_25  and  C_26
REMARK   11  A    between atoms: S_27  and  C_30
REMARK   12  A    between atoms: C_33  and  C_36
REMARK   13  A    between atoms: C_36  and  O_38
REMARK   14  A    between atoms: O_38  and  C_39
REMARK                            x       y       z     vdW  Elec       q    Type
REMARK                         _______ _______ _______ _____ _____    ______ ____
ROOT
ATOM      1  N   UNL     1       1.143   4.329   1.597  0.00  0.00    -0.172 NA
ENDROOT
BRANCH   1   2
ATOM      2  S   UNL     1       1.137   3.848   0.012  0.00  0.00    +0.061 S 
ATOM      3  O   UNL     1       2.369   4.281  -0.548  0.00  0.00    -0.153 OA
ATOM      4  O   UNL     1      -0.121   4.234  -0.525  0.00  0.00    -0.153 OA
BRANCH   2   5
ATOM      5  C   UNL     1       1.170   2.086   0.002  0.00  0.00    +0.106 A 
ATOM      6  C   UNL     1      -0.017   1.375   0.010  0.00  0.00    +0.029 A 
ATOM      7  C   UNL     1       0.002  -0.004   0.002  0.00  0.00    +0.017 A 
ATOM      8  C   UNL     1       1.222  -0.682  -0.013  0.00  0.00    +0.059 A 
ATOM      9  C   UNL     1       2.416   0.042  -0.021  0.00  0.00    +0.017 A 
ATOM     10  C   UNL     1       2.383   1.421  -0.013  0.00  0.00    +0.029 A 
BRANCH   8  11
ATOM     11  C   UNL     1       1.250  -2.159  -0.021  0.00  0.00    +0.339 C 
ATOM     12  O   UNL     1       0.210  -2.787  -0.014  0.00  0.00    -0.245 OA
BRANCH  11  13
ATOM     13  O   UNL     1       2.429  -2.811  -0.036  0.00  0.00    -0.464 OA
ATOM     14  C   UNL     1       2.381  -4.262  -0.043  0.00  0.00    +0.280 C 
ENDBRANCH  11  13
ENDBRANCH   8  11
ENDBRANCH   2   5
ENDBRANCH   1   2
BRANCH   1  15
ATOM     15  C   UNL     1       2.414   4.566   2.285  0.00  0.00    +0.150 C 
BRANCH  15  23
ATOM     16  C   UNL     1       2.793  10.501   4.035  0.00  0.00    +0.121 A 
ATOM     17  C   UNL     1       3.457  10.950   2.896  0.00  0.00    +0.047 A 
ATOM     18  C   UNL     1       3.780  10.077   1.881  0.00  0.00    +0.030 A 
ATOM     19  C   UNL     1       3.442   8.732   1.988  0.00  0.00    +0.049 A 
ATOM     20  C   UNL     1       2.771   8.273   3.137  0.00  0.00    +0.002 A 
ATOM     21  C   UNL     1       2.449   9.170   4.162  0.00  0.00    +0.055 A 
ATOM     22  C   UNL     1       2.422   6.855   3.237  0.00  0.00    +0.020 A 
ATOM     23  C   UNL     1       2.759   6.031   2.214  0.00  0.00    +0.033 A 
ATOM     24  C   UNL     1       3.437   6.540   1.085  0.00  0.00    +0.254 A 
ATOM     25  O   UNL     1       3.735   5.780   0.179  0.00  0.00    -0.268 OA
ATOM     26  N   UNL     1       3.756   7.841   0.982  0.00  0.00    -0.322 N 
ATOM     27  H   UNL     1       4.229   8.169   0.164  0.00  0.00    +0.169 HD
BRANCH  16  28
ATOM     28  O   UNL     1       2.483  11.377   5.027  0.00  0.00    -0.492 OA
BRANCH  28  30
ATOM     29  C   UNL     1       2.437  13.568   6.046  0.00  0.00    +0.048 C 
ATOM     30  C   UNL     1       2.868  12.739   4.834  0.00  0.00    +0.225 C 
ENDBRANCH  28  30
ENDBRANCH  16  28
ENDBRANCH  15  23
ENDBRANCH   1  15
BRANCH   1  31
ATOM     31  C   UNL     1      -0.123   4.518   2.309  0.00  0.00    +0.114 C 
BRANCH  31  32
ATOM     32  C   UNL     1      -0.470   3.242   3.078  0.00  0.00    +0.052 C 
BRANCH  32  33
ATOM     33  C   UNL     1      -1.772   3.436   3.812  0.00  0.00    -0.043 A 
ATOM     34  C   UNL     1      -1.767   3.832   5.136  0.00  0.00    +0.004 A 
ATOM     35  C   UNL     1      -2.962   4.015   5.808  0.00  0.00    +0.000 A 
ATOM     36  C   UNL     1      -4.161   3.791   5.157  0.00  0.00    +0.000 A 
ATOM     37  C   UNL     1      -4.166   3.390   3.835  0.00  0.00    +0.003 A 
ATOM     38  C   UNL     1      -2.972   3.212   3.162  0.00  0.00    -0.047 A 
ATOM     39  C   UNL     1      -2.977   2.775   1.720  0.00  0.00    +0.044 C 
ENDBRANCH  32  33
ENDBRANCH  31  32
ENDBRANCH   1  31
TORSDOF 11
