REMARK  Name = ZINC10187297
REMARK  8 active torsions:
REMARK  status: ('A' for Active; 'I' for Inactive)
REMARK    1  A    between atoms: C_1  and  C_2
REMARK    2  A    between atoms: C_5  and  C_8
REMARK    3  A    between atoms: N_12  and  C_13
REMARK    4  A    between atoms: C_18  and  O_19
REMARK    5  A    between atoms: O_19  and  C_20
REMARK    6  A    between atoms: N_21  and  C_22
REMARK    7  A    between atoms: C_22  and  C_23
REMARK    8  A    between atoms: C_23  and  O_24
REMARK                            x       y       z     vdW  Elec       q    Type
REMARK                         _______ _______ _______ _____ _____    ______ ____
ROOT
ATOM      1  C   UNL     1      -1.041   2.013   0.485  0.00  0.00    +0.058 A 
ATOM      2  C   UNL     1      -0.026   1.126   0.447  0.00  0.00    +0.075 A 
ATOM      3  S   UNL     1       1.376   2.176   0.098  0.00  0.00    -0.057 S 
ATOM      4  C   UNL     1       0.508   3.736   0.033  0.00  0.00    +0.174 A 
ATOM      5  N   UNL     1       0.983   4.945  -0.193  0.00  0.00    -0.220 NA
ATOM      6  N   UNL     1      -0.787   3.343   0.282  0.00  0.00    -0.317 N 
ENDROOT
BRANCH   1  11
ATOM      7  C   UNL     1      -6.413   0.220   1.510  0.00  0.00    +0.044 C 
ATOM      8  C   UNL     1      -5.006   0.689   1.241  0.00  0.00    -0.050 A 
ATOM      9  C   UNL     1      -4.771   1.628   0.253  0.00  0.00    +0.004 A 
ATOM     10  C   UNL     1      -3.485   2.062   0.002  0.00  0.00    +0.010 A 
ATOM     11  C   UNL     1      -2.422   1.552   0.748  0.00  0.00    -0.001 A 
ATOM     12  C   UNL     1      -2.666   0.602   1.740  0.00  0.00    +0.010 A 
ATOM     13  C   UNL     1      -3.957   0.180   1.985  0.00  0.00    +0.004 A 
ENDBRANCH   1  11
BRANCH   5  14
ATOM     14  C   UNL     1       2.330   5.132  -0.355  0.00  0.00    +0.108 A 
ATOM     15  C   UNL     1       2.900   5.060  -1.627  0.00  0.00    +0.031 A 
ATOM     16  C   UNL     1       4.258   5.250  -1.784  0.00  0.00    +0.002 A 
ATOM     17  C   UNL     1       5.056   5.511  -0.685  0.00  0.00    +0.004 A 
ATOM     18  C   UNL     1       4.502   5.584   0.581  0.00  0.00    +0.048 A 
ATOM     19  C   UNL     1       3.142   5.402   0.754  0.00  0.00    +0.145 A 
BRANCH  19  20
ATOM     20  O   UNL     1       2.595   5.479   1.997  0.00  0.00    -0.493 OA
ATOM     21  C   UNL     1       3.485   5.757   3.081  0.00  0.00    +0.277 C 
ENDBRANCH  19  20
ENDBRANCH   5  14
BRANCH   6  22
ATOM     22  C   UNL     1      -1.872   4.327   0.323  0.00  0.00    +0.152 C 
BRANCH  22  23
ATOM     23  C   UNL     1      -1.359   5.625   0.950  0.00  0.00    +0.177 C 
BRANCH  23  24
ATOM     24  O   UNL     1      -2.418   6.584   0.990  0.00  0.00    -0.393 OA
ATOM     25  H   UNL     1      -2.164   7.434   1.376  0.00  0.00    +0.209 HD
ENDBRANCH  23  24
ENDBRANCH  22  23
ENDBRANCH   6  22
TORSDOF 6
