REMARK  Name = ZINC27774938
REMARK  10 active torsions:
REMARK  status: ('A' for Active; 'I' for Inactive)
REMARK    1  A    between atoms: C_1  and  C_2
REMARK    2  A    between atoms: C_5  and  N_9
REMARK    3  A    between atoms: C_7  and  C_8
REMARK    4  A    between atoms: C_13  and  S_15
REMARK    5  A    between atoms: S_15  and  C_16
REMARK    6  A    between atoms: C_16  and  C_17
REMARK    7  A    between atoms: C_22  and  C_25
REMARK    8  A    between atoms: C_25  and  C_26
REMARK    9  A    between atoms: C_26  and  O_28
REMARK   10  A    between atoms: O_28  and  C_29
REMARK                            x       y       z     vdW  Elec       q    Type
REMARK                         _______ _______ _______ _____ _____    ______ ____
ROOT
ATOM      1  S   UNL     1      -0.394  -7.880  -4.452  0.00  0.00    -0.088 S 
ENDROOT
BRANCH   1   6
ATOM      2  N   UNL     1       0.058  -4.168  -0.021  0.00  0.00    -0.292 N 
ATOM      3  C   UNL     1      -0.044  -4.858  -1.224  0.00  0.00    +0.187 A 
ATOM      4  N   UNL     1      -0.069  -4.389  -2.456  0.00  0.00    -0.125 NA
ATOM      5  N   UNL     1      -0.176  -5.259  -3.517  0.00  0.00    -0.133 NA
ATOM      6  C   UNL     1      -0.252  -6.557  -3.296  0.00  0.00    +0.160 A 
ATOM      7  S   UNL     1      -0.167  -6.616  -1.513  0.00  0.00    -0.024 S 
ATOM      8  H   UNL     1       0.149  -4.656   0.812  0.00  0.00    +0.154 HD
BRANCH   2  13
ATOM      9  C   UNL     1      -0.061   1.502   0.015  0.00  0.00    +0.044 C 
ATOM     10  C   UNL     1      -0.029  -0.005   0.005  0.00  0.00    -0.047 A 
ATOM     11  C   UNL     1      -0.622  -0.701  -1.032  0.00  0.00    +0.005 A 
ATOM     12  C   UNL     1      -0.595  -2.081  -1.044  0.00  0.00    +0.023 A 
ATOM     13  C   UNL     1       0.029  -2.771  -0.012  0.00  0.00    +0.033 A 
ATOM     14  C   UNL     1       0.624  -2.069   1.028  0.00  0.00    +0.027 A 
ATOM     15  C   UNL     1       0.598  -0.688   1.031  0.00  0.00    -0.046 A 
ATOM     16  C   UNL     1       1.248   0.075   2.156  0.00  0.00    +0.044 C 
ENDBRANCH   2  13
ENDBRANCH   1   6
BRANCH   1  17
ATOM     17  C   UNL     1      -0.412  -7.053  -6.066  0.00  0.00    +0.172 C 
BRANCH  17  18
ATOM     18  C   UNL     1      -0.531  -8.084  -7.158  0.00  0.00    +0.229 C 
ATOM     19  O   UNL     1      -0.597  -9.262  -6.875  0.00  0.00    -0.275 OA
ATOM     20  N   UNL     1      -0.564  -7.699  -8.449  0.00  0.00    -0.264 N 
ATOM     21  C   UNL     1      -0.673  -8.650  -9.456  0.00  0.00    +0.165 A 
ATOM     22  N   UNL     1      -0.715  -8.462 -10.757  0.00  0.00    -0.229 NA
ATOM     23  C   UNL     1      -0.822  -9.480 -11.591  0.00  0.00    +0.061 A 
ATOM     24  C   UNL     1      -0.887 -10.719 -11.045  0.00  0.00    +0.072 A 
ATOM     25  S   UNL     1      -0.778 -10.323  -9.307  0.00  0.00    -0.060 S 
ATOM     26  H   UNL     1      -0.511  -6.757  -8.675  0.00  0.00    +0.157 HD
BRANCH  23  27
ATOM     27  C   UNL     1      -0.871  -9.274 -13.083  0.00  0.00    +0.176 C 
BRANCH  27  28
ATOM     28  C   UNL     1      -1.985  -8.318 -13.422  0.00  0.00    +0.313 C 
ATOM     29  O   UNL     1      -2.669  -7.851 -12.542  0.00  0.00    -0.250 OA
BRANCH  28  30
ATOM     30  O   UNL     1      -2.217  -7.984 -14.701  0.00  0.00    -0.468 OA
ATOM     31  C   UNL     1      -3.289  -7.072 -14.950  0.00  0.00    +0.280 C 
ENDBRANCH  28  30
ENDBRANCH  27  28
ENDBRANCH  23  27
ENDBRANCH  17  18
ENDBRANCH   1  17
TORSDOF 7
