REMARK  Name = ZINC46781612
REMARK  10 active torsions:
REMARK  status: ('A' for Active; 'I' for Inactive)
REMARK    1  A    between atoms: C_1  and  C_2
REMARK    2  A    between atoms: C_5  and  N_23
REMARK    3  A    between atoms: C_7  and  N_8
REMARK    4  A    between atoms: C_9  and  C_11
REMARK    5  A    between atoms: C_11  and  C_12
REMARK    6  A    between atoms: C_15  and  C_17
REMARK    7  A    between atoms: C_20  and  C_22
REMARK    8  A    between atoms: C_24  and  C_26
REMARK    9  A    between atoms: C_26  and  C_27
REMARK   10  A    between atoms: C_26  and  C_28
REMARK                            x       y       z     vdW  Elec       q    Type
REMARK                         _______ _______ _______ _____ _____    ______ ____
ROOT
ATOM      1  N   UNL     1       0.301  -0.388   2.442  0.00  0.00    -0.285 N 
ATOM      2  C   UNL     1       0.059  -1.121   3.547  0.00  0.00    +0.223 C 
ATOM      3  O   UNL     1      -0.212  -2.299   3.447  0.00  0.00    -0.275 OA
ATOM      4  H   UNL     1       0.578   0.538   2.525  0.00  0.00    +0.155 HD
ENDROOT
BRANCH   1  11
ATOM      5  C   UNL     1      -0.380   1.315   0.269  0.00  0.00    +0.045 C 
ATOM      6  C   UNL     1      -0.180  -0.168   0.086  0.00  0.00    -0.029 A 
ATOM      7  C   UNL     1      -0.322  -0.734  -1.167  0.00  0.00    +0.007 A 
ATOM      8  C   UNL     1      -0.139  -2.092  -1.339  0.00  0.00    +0.024 A 
ATOM      9  C   UNL     1       0.187  -2.894  -0.252  0.00  0.00    +0.035 A 
ATOM     10  C   UNL     1       0.330  -2.329   1.007  0.00  0.00    +0.047 A 
ATOM     11  C   UNL     1       0.152  -0.963   1.175  0.00  0.00    +0.038 A 
BRANCH   9  12
ATOM     12  N   UNL     1       0.371  -4.270  -0.427  0.00  0.00    -0.285 N 
ATOM     13  C   UNL     1       0.939  -4.736  -1.557  0.00  0.00    +0.220 C 
ATOM     14  O   UNL     1       1.216  -3.970  -2.456  0.00  0.00    -0.275 OA
ATOM     15  H   UNL     1       0.089  -4.889   0.265  0.00  0.00    +0.155 HD
BRANCH  13  16
ATOM     16  C   UNL     1       1.230  -6.207  -1.703  0.00  0.00    +0.069 C 
ATOM     17  C   UNL     1      -0.075  -6.998  -1.592  0.00  0.00    +0.017 C 
ATOM     18  C   UNL     1       1.870  -6.467  -3.068  0.00  0.00    +0.017 C 
ENDBRANCH  13  16
ENDBRANCH   9  12
ENDBRANCH   1  11
BRANCH   2  19
ATOM     19  C   UNL     1       0.125  -0.476   4.908  0.00  0.00    +0.152 C 
BRANCH  19  20
ATOM     20  C   UNL     1      -0.184  -1.504   5.966  0.00  0.00    +0.058 A 
ATOM     21  C   UNL     1       0.691  -1.716   6.984  0.00  0.00    +0.071 A 
ATOM     22  S   UNL     1      -0.165  -2.994   7.897  0.00  0.00    -0.072 S 
ATOM     23  C   UNL     1      -1.593  -3.107   6.826  0.00  0.00    +0.144 A 
ATOM     24  N   UNL     1      -1.300  -2.192   5.908  0.00  0.00    -0.240 NA
BRANCH  23  25
ATOM     25  C   UNL     1      -2.775  -3.976   6.934  0.00  0.00    +0.160 A 
ATOM     26  C   UNL     1      -3.009  -4.889   7.918  0.00  0.00    +0.052 A 
ATOM     27  C   UNL     1      -4.249  -5.489   7.627  0.00  0.00    +0.045 A 
ATOM     28  C   UNL     1      -4.707  -4.920   6.493  0.00  0.00    +0.103 A 
ATOM     29  O   UNL     1      -3.817  -4.003   6.081  0.00  0.00    -0.458 OA
ATOM     30  C   UNL     1      -6.006  -5.255   5.806  0.00  0.00    +0.086 C 
ENDBRANCH  23  25
ENDBRANCH  19  20
ENDBRANCH   2  19
TORSDOF 6
