REMARK  Name = ZINC00855613
REMARK  7 active torsions:
REMARK  status: ('A' for Active; 'I' for Inactive)
REMARK    1  A    between atoms: C_1  and  C_2
REMARK    2  A    between atoms: C_2  and  O_3
REMARK    3  A    between atoms: O_3  and  C_4
REMARK    4  A    between atoms: C_4  and  C_6
REMARK    5  A    between atoms: C_10  and  N_11
REMARK    6  A    between atoms: C_12  and  C_14
REMARK    7  A    between atoms: C_17  and  N_20
REMARK                            x       y       z     vdW  Elec       q    Type
REMARK                         _______ _______ _______ _____ _____    ______ ____
ROOT
ATOM      1  C   UNL     1      -0.558   0.998   2.576  0.00  0.00    +0.091 A 
ATOM      2  C   UNL     1      -0.732   1.580   1.257  0.00  0.00    -0.021 A 
ATOM      3  C   UNL     1      -1.601   2.614   1.194  0.00  0.00    -0.004 A 
ATOM      4  S   UNL     1      -2.178   2.821   2.855  0.00  0.00    -0.077 S 
ATOM      5  C   UNL     1      -1.283   1.553   3.623  0.00  0.00    +0.087 A 
ATOM      6  C   UNL     1      -1.979   3.405  -0.021  0.00  0.00    +0.043 C 
ATOM      7  C   UNL     1      -0.956   3.111  -1.127  0.00  0.00    +0.005 C 
ATOM      8  C   UNL     1      -0.758   1.595  -1.227  0.00  0.00    +0.005 C 
ATOM      9  C   UNL     1      -0.013   1.086   0.008  0.00  0.00    +0.037 C 
ENDROOT
BRANCH   5  10
ATOM     10  N   UNL     1      -1.289   1.181   4.957  0.00  0.00    -0.275 N 
ATOM     11  C   UNL     1      -2.065   1.843   5.838  0.00  0.00    +0.249 C 
ATOM     12  O   UNL     1      -2.760   2.766   5.461  0.00  0.00    -0.270 OA
ATOM     13  H   UNL     1      -0.734   0.444   5.258  0.00  0.00    +0.156 HD
BRANCH  11  14
ATOM     14  C   UNL     1      -2.071   1.446   7.261  0.00  0.00    +0.037 A 
ATOM     15  C   UNL     1      -1.278   0.383   7.696  0.00  0.00    +0.015 A 
ATOM     16  C   UNL     1      -1.284   0.022   9.028  0.00  0.00    +0.033 A 
ATOM     17  C   UNL     1      -2.083   0.703   9.929  0.00  0.00    +0.126 A 
ATOM     18  C   UNL     1      -2.876   1.755   9.503  0.00  0.00    +0.033 A 
ATOM     19  C   UNL     1      -2.874   2.130   8.176  0.00  0.00    +0.015 A 
BRANCH  17  20
ATOM     20  N   UNL     1      -2.089   0.306  11.355  0.00  0.00    +0.056 N 
ATOM     21  O   UNL     1      -2.791   0.904  12.150  0.00  0.00    -0.126 OA
ATOM     22  O   UNL     1      -1.393  -0.619  11.732  0.00  0.00    -0.126 OA
ENDBRANCH  17  20
ENDBRANCH  11  14
ENDBRANCH   5  10
BRANCH   1  23
ATOM     23  C   UNL     1       0.350  -0.130   2.793  0.00  0.00    +0.342 C 
ATOM     24  O   UNL     1      -0.062  -1.270   2.694  0.00  0.00    -0.245 OA
BRANCH  23  25
ATOM     25  O   UNL     1       1.643   0.096   3.104  0.00  0.00    -0.461 OA
BRANCH  25  27
ATOM     26  C   UNL     1       3.907  -0.619   3.648  0.00  0.00    +0.048 C 
ATOM     27  C   UNL     1       2.485  -1.070   3.306  0.00  0.00    +0.229 C 
ENDBRANCH  25  27
ENDBRANCH  23  25
ENDBRANCH   1  23
TORSDOF 6
