REMARK  Name = ZINC43746609
REMARK  10 active torsions:
REMARK  status: ('A' for Active; 'I' for Inactive)
REMARK    1  A    between atoms: C_1  and  C_2
REMARK    2  A    between atoms: C_2  and  C_3
REMARK    3  A    between atoms: C_3  and  C_5
REMARK    4  A    between atoms: C_3  and  C_6
REMARK    5  A    between atoms: C_6  and  C_8
REMARK    6  A    between atoms: C_6  and  N_14
REMARK    7  A    between atoms: N_10  and  C_11
REMARK    8  A    between atoms: C_11  and  C_12
REMARK    9  A    between atoms: C_11  and  C_13
REMARK   10  A    between atoms: C_15  and  C_17
REMARK                            x       y       z     vdW  Elec       q    Type
REMARK                         _______ _______ _______ _____ _____    ______ ____
ROOT
ATOM      1  C   UNL     1       4.694  -2.886   2.559  0.00  0.00    +0.167 C 
ATOM      2  C   UNL     1       4.159  -3.000   3.994  0.00  0.00    +0.069 C 
ATOM      3  C   UNL     1       3.173  -4.135   4.095  0.00  0.00    -0.015 A 
ATOM      4  C   UNL     1       2.217  -4.376   5.160  0.00  0.00    +0.003 A 
ATOM      5  C   UNL     1       1.918  -3.679   6.335  0.00  0.00    +0.010 A 
ATOM      6  C   UNL     1       0.932  -4.205   7.133  0.00  0.00    +0.001 A 
ATOM      7  C   UNL     1       0.259  -5.370   6.802  0.00  0.00    +0.002 A 
ATOM      8  C   UNL     1       0.535  -6.078   5.645  0.00  0.00    +0.026 A 
ATOM      9  C   UNL     1       1.530  -5.567   4.814  0.00  0.00    +0.047 A 
ATOM     10  N   UNL     1       2.040  -5.998   3.624  0.00  0.00    -0.356 N 
ATOM     11  H   UNL     1       1.757  -6.797   3.152  0.00  0.00    +0.166 HD
ATOM     12  C   UNL     1       3.011  -5.134   3.198  0.00  0.00    +0.046 A 
ATOM     13  C   UNL     1       3.799  -5.220   1.913  0.00  0.00    +0.155 C 
ATOM     14  N   UNL     1       4.907  -4.244   2.049  0.00  0.00    -0.273 N 
ATOM     15  C   UNL     1       6.047  -4.838   1.672  0.00  0.00    +0.248 C 
ATOM     16  O   UNL     1       7.096  -4.266   1.450  0.00  0.00    -0.270 OA
ATOM     17  C   UNL     1       5.834  -6.286   1.570  0.00  0.00    +0.042 A 
ATOM     18  C   UNL     1       4.435  -6.553   1.718  0.00  0.00    -0.009 A 
ATOM     19  C   UNL     1       3.915  -7.828   1.674  0.00  0.00    +0.006 A 
ATOM     20  C   UNL     1       4.811  -8.870   1.454  0.00  0.00    +0.000 A 
ATOM     21  C   UNL     1       6.162  -8.644   1.283  0.00  0.00    +0.001 A 
ATOM     22  C   UNL     1       6.737  -7.327   1.345  0.00  0.00    +0.013 A 
ENDROOT
BRANCH   1  24
ATOM     23  N   UNL     1       3.328  -0.903   1.992  0.00  0.00    -0.302 N 
ATOM     24  C   UNL     1       3.689  -2.168   1.696  0.00  0.00    +0.235 C 
ATOM     25  O   UNL     1       3.205  -2.728   0.735  0.00  0.00    -0.274 OA
ATOM     26  H   UNL     1       3.715  -0.455   2.760  0.00  0.00    +0.150 HD
BRANCH  23  27
ATOM     27  C   UNL     1       2.351  -0.205   1.152  0.00  0.00    +0.162 C 
BRANCH  27  28
ATOM     28  C   UNL     1       2.559   1.283   1.271  0.00  0.00    +0.234 C 
ATOM     29  O   UNL     1       3.183   1.735   2.208  0.00  0.00    -0.274 OA
ATOM     30  N   UNL     1       2.050   2.111   0.338  0.00  0.00    -0.311 N 
ATOM     31  H   UNL     1       1.488   1.758  -0.369  0.00  0.00    +0.149 HD
BRANCH  30  32
ATOM     32  C   UNL     1       2.347   3.545   0.390  0.00  0.00    +0.067 C 
ATOM     33  C   UNL     1       3.681   3.815  -0.307  0.00  0.00    +0.027 C 
ATOM     34  C   UNL     1       1.235   4.322  -0.317  0.00  0.00    +0.027 C 
ENDBRANCH  30  32
ENDBRANCH  27  28
BRANCH  27  35
ATOM     35  C   UNL     1       0.936  -0.561   1.613  0.00  0.00    +0.015 C 
ATOM     36  C   UNL     1       0.807  -0.296   3.114  0.00  0.00    +0.010 C 
BRANCH  35  38
ATOM     37  C   UNL     1       0.650  -2.277  -0.180  0.00  0.00    +0.004 C 
ATOM     38  C   UNL     1       0.665  -2.040   1.331  0.00  0.00    +0.002 C 
ENDBRANCH  35  38
ENDBRANCH  27  35
ENDBRANCH  23  27
ENDBRANCH   1  24
TORSDOF 6
