REMARK  Name = ZINC64802086
REMARK  6 active torsions:
REMARK  status: ('A' for Active; 'I' for Inactive)
REMARK    1  A    between atoms: C_1  and  C_2
REMARK    2  A    between atoms: C_4  and  N_13
REMARK    3  A    between atoms: N_13  and  C_14
REMARK    4  A    between atoms: C_17  and  N_20
REMARK    5  A    between atoms: N_20  and  S_21
REMARK    6  A    between atoms: S_21  and  C_24
REMARK                            x       y       z     vdW  Elec       q    Type
REMARK                         _______ _______ _______ _____ _____    ______ ____
ROOT
ATOM      1  C   UNL     1      -0.091  -2.175  -3.565  0.00  0.00    +0.032 A 
ATOM      2  C   UNL     1       0.487  -0.927  -3.751  0.00  0.00    +0.025 A 
ATOM      3  C   UNL     1       0.367  -0.285  -4.967  0.00  0.00    +0.028 A 
ATOM      4  C   UNL     1      -0.331  -0.888  -6.005  0.00  0.00    +0.074 A 
ATOM      5  C   UNL     1      -0.909  -2.137  -5.819  0.00  0.00    +0.028 A 
ATOM      6  C   UNL     1      -0.785  -2.781  -4.604  0.00  0.00    +0.025 A 
ENDROOT
BRANCH   1   7
ATOM      7  N   UNL     1       0.030  -2.827  -2.331  0.00  0.00    -0.299 N 
ATOM      8  H   UNL     1       0.126  -3.791  -2.299  0.00  0.00    +0.154 HD
BRANCH   7  12
ATOM      9  C   UNL     1       0.488  -2.570   2.563  0.00  0.00    +0.063 C 
ATOM     10  C   UNL     1       0.230  -1.943   1.217  0.00  0.00    +0.019 A 
ATOM     11  C   UNL     1       0.257  -2.714   0.071  0.00  0.00    +0.064 A 
ATOM     12  C   UNL     1       0.013  -2.093  -1.155  0.00  0.00    +0.128 A 
ATOM     13  N   UNL     1      -0.236  -0.787  -1.179  0.00  0.00    -0.201 NA
ATOM     14  C   UNL     1      -0.253  -0.083  -0.057  0.00  0.00    +0.197 A 
ATOM     15  N   UNL     1      -0.029  -0.647   1.121  0.00  0.00    -0.331 N 
ATOM     16  N   UNL     1      -0.515   1.275  -0.117  0.00  0.00    -0.301 N 
ATOM     17  C   UNL     1      -0.562   2.189   1.034  0.00  0.00    +0.108 C 
ATOM     18  C   UNL     1      -0.912   3.591   0.491  0.00  0.00    +0.020 C 
ATOM     19  C   UNL     1      -1.599   3.276  -0.865  0.00  0.00    +0.020 C 
ATOM     20  C   UNL     1      -0.788   2.044  -1.344  0.00  0.00    +0.108 C 
ATOM     21  H   UNL     1      -0.053  -0.103   1.923  0.00  0.00    +0.168 HD
ENDBRANCH   7  12
ENDBRANCH   1   7
BRANCH   4  22
ATOM     22  N   UNL     1      -0.452  -0.237  -7.238  0.00  0.00    -0.098 NA
BRANCH  22  23
ATOM     23  S   UNL     1      -1.285  -0.956  -8.476  0.00  0.00    +0.093 S 
ATOM     24  O   UNL     1      -0.544  -2.110  -8.847  0.00  0.00    -0.148 OA
ATOM     25  O   UNL     1      -2.644  -1.023  -8.066  0.00  0.00    -0.148 OA
BRANCH  23  26
ATOM     26  C   UNL     1      -1.227   0.144  -9.851  0.00  0.00    +0.130 A 
ATOM     27  C   UNL     1      -0.566  -0.229 -11.006  0.00  0.00    +0.050 A 
ATOM     28  C   UNL     1      -0.520   0.635 -12.086  0.00  0.00    +0.043 A 
ATOM     29  C   UNL     1      -1.137   1.871 -12.010  0.00  0.00    +0.021 A 
ATOM     30  C   UNL     1      -1.798   2.243 -10.855  0.00  0.00    +0.023 A 
ATOM     31  C   UNL     1      -1.848   1.377  -9.777  0.00  0.00    +0.068 A 
ATOM     32 CL   UNL     1      -2.685   1.842  -8.329  0.00  0.00    -0.082 Cl
ATOM     33 CL   UNL     1       0.311   0.167 -13.537  0.00  0.00    -0.083 Cl
ENDBRANCH  23  26
ENDBRANCH  22  23
ENDBRANCH   4  22
TORSDOF 5
