REMARK  Name = ZINC64695114
REMARK  7 active torsions:
REMARK  status: ('A' for Active; 'I' for Inactive)
REMARK    1  A    between atoms: C_1  and  C_2
REMARK    2  A    between atoms: C_2  and  C_3
REMARK    3  A    between atoms: C_6  and  N_9
REMARK    4  A    between atoms: N_12  and  C_13
REMARK    5  A    between atoms: C_13  and  C_14
REMARK    6  A    between atoms: C_13  and  C_15
REMARK    7  A    between atoms: C_17  and  C_20
REMARK                            x       y       z     vdW  Elec       q    Type
REMARK                         _______ _______ _______ _____ _____    ______ ____
ROOT
ATOM      1  N   UNL     1       2.658  -1.834  -4.666  0.00  0.00    -0.269 N 
ATOM      2  C   UNL     1       4.000  -1.950  -4.675  0.00  0.00    +0.304 C 
ATOM      3  O   UNL     1       4.635  -1.750  -3.658  0.00  0.00    -0.252 OA
ATOM      4  N   UNL     1       4.639  -2.288  -5.813  0.00  0.00    -0.288 N 
ATOM      5  H   UNL     1       2.146  -2.059  -5.458  0.00  0.00    +0.156 HD
ATOM      6  H   UNL     1       4.133  -2.447  -6.625  0.00  0.00    +0.151 HD
ENDROOT
BRANCH   1  10
ATOM      7  C   UNL     1       0.706  -0.511  -1.230  0.00  0.00    -0.048 A 
ATOM      8  C   UNL     1       1.838  -1.298  -1.121  0.00  0.00    +0.005 A 
ATOM      9  C   UNL     1       2.487  -1.739  -2.258  0.00  0.00    +0.023 A 
ATOM     10  C   UNL     1       2.002  -1.390  -3.512  0.00  0.00    +0.035 A 
ATOM     11  C   UNL     1       0.866  -0.599  -3.618  0.00  0.00    +0.023 A 
ATOM     12  C   UNL     1       0.218  -0.166  -2.477  0.00  0.00    +0.005 A 
BRANCH   7  14
ATOM     13  C   UNL     1      -1.057  -1.058   0.425  0.00  0.00    +0.009 C 
ATOM     14  C   UNL     1       0.001  -0.032   0.012  0.00  0.00    +0.032 C 
ENDBRANCH   7  14
ENDBRANCH   1  10
BRANCH   4  15
ATOM     15  C   UNL     1       6.099  -2.413  -5.824  0.00  0.00    +0.160 C 
ATOM     16  C   UNL     1       6.728  -1.037  -6.052  0.00  0.00    +0.038 C 
BRANCH  15  17
ATOM     17  C   UNL     1       6.514  -3.346  -6.932  0.00  0.00    +0.248 A 
ATOM     18  N   UNL     1       7.391  -4.304  -6.832  0.00  0.00    -0.190 NA
ATOM     19  C   UNL     1       7.518  -4.937  -8.012  0.00  0.00    +0.202 A 
ATOM     20  N   UNL     1       6.711  -4.375  -8.878  0.00  0.00    -0.056 NA
ATOM     21  O   UNL     1       6.041  -3.333  -8.185  0.00  0.00    -0.336 OA
BRANCH  19  22
ATOM     22  C   UNL     1       8.422  -6.082  -8.287  0.00  0.00    +0.023 A 
ATOM     23  C   UNL     1       9.230  -6.593  -7.274  0.00  0.00    +0.014 A 
ATOM     24  C   UNL     1      10.069  -7.657  -7.534  0.00  0.00    +0.039 A 
ATOM     25  C   UNL     1      10.107  -8.218  -8.801  0.00  0.00    +0.123 A 
ATOM     26  C   UNL     1       9.306  -7.712  -9.812  0.00  0.00    +0.039 A 
ATOM     27  C   UNL     1       8.460  -6.651  -9.558  0.00  0.00    +0.014 A 
ATOM     28  F   UNL     1      10.930  -9.260  -9.051  0.00  0.00    -0.205 F 
ENDBRANCH  19  22
ENDBRANCH  15  17
ENDBRANCH   4  15
TORSDOF 5
