REMARK  Name = ZINC39793755
REMARK  9 active torsions:
REMARK  status: ('A' for Active; 'I' for Inactive)
REMARK    1  A    between atoms: C_4  and  O_28
REMARK    2  A    between atoms: C_5  and  C_7
REMARK    3  A    between atoms: N_11  and  C_15
REMARK    4  A    between atoms: C_15  and  C_16
REMARK    5  A    between atoms: C_16  and  C_17
REMARK    6  A    between atoms: C_17  and  C_18
REMARK    7  A    between atoms: C_18  and  C_19
REMARK    8  A    between atoms: C_19  and  C_20
REMARK    9  A    between atoms: O_28  and  C_29
REMARK                            x       y       z     vdW  Elec       q    Type
REMARK                         _______ _______ _______ _____ _____    ______ ____
ROOT
ATOM      1  C   UNL     1       1.080  -1.990  -0.063  0.00  0.00    +0.031 C 
ATOM      2  C   UNL     1      -0.140  -2.576  -0.161  0.00  0.00    +0.077 C 
ATOM      3  C   UNL     1      -0.504  -4.007  -0.121  0.00  0.00    +0.258 C 
ATOM      4  O   UNL     1       0.337  -4.876   0.016  0.00  0.00    -0.269 OA
ATOM      5  N   UNL     1      -1.788  -4.295  -0.242  0.00  0.00    -0.255 N 
ATOM      6  C   UNL     1      -2.717  -3.329  -0.394  0.00  0.00    +0.121 C 
ATOM      7  S   UNL     1      -4.411  -3.500  -0.565  0.00  0.00    -0.027 S 
ATOM      8  S   UNL     1      -1.751  -1.827  -0.366  0.00  0.00    -0.061 S 
ENDROOT
BRANCH   1  13
ATOM      9  C   UNL     1       0.185   1.575   0.668  0.00  0.00    +0.001 A 
ATOM     10  C   UNL     1       1.382   2.216   0.395  0.00  0.00    +0.004 A 
ATOM     11  C   UNL     1       2.483   1.495  -0.026  0.00  0.00    +0.046 A 
ATOM     12  C   UNL     1       2.397   0.121  -0.179  0.00  0.00    +0.128 A 
ATOM     13  C   UNL     1       1.185  -0.535   0.096  0.00  0.00    +0.018 A 
ATOM     14  C   UNL     1       0.079   0.209   0.522  0.00  0.00    +0.011 A 
BRANCH  12  15
ATOM     15  O   UNL     1       3.477  -0.588  -0.594  0.00  0.00    -0.488 OA
BRANCH  15  16
ATOM     16  C   UNL     1       4.622   0.158  -1.012  0.00  0.00    +0.173 C 
ATOM     17  C   UNL     1       5.469   0.520   0.209  0.00  0.00    +0.044 C 
ATOM     18  C   UNL     1       6.694   1.319  -0.239  0.00  0.00    +0.004 C 
ATOM     19  C   UNL     1       7.527   0.476  -1.206  0.00  0.00    +0.000 C 
ATOM     20  C   UNL     1       6.680   0.114  -2.427  0.00  0.00    +0.004 C 
ATOM     21  C   UNL     1       5.455  -0.685  -1.979  0.00  0.00    +0.044 C 
ENDBRANCH  15  16
ENDBRANCH  12  15
ENDBRANCH   1  13
BRANCH   5  22
ATOM     22  C   UNL     1      -2.213  -5.697  -0.210  0.00  0.00    +0.115 C 
BRANCH  22  23
ATOM     23  C   UNL     1      -2.513  -6.107   1.233  0.00  0.00    +0.019 C 
BRANCH  23  24
ATOM     24  C   UNL     1      -2.957  -7.571   1.266  0.00  0.00    +0.002 C 
BRANCH  24  25
ATOM     25  C   UNL     1      -3.257  -7.980   2.710  0.00  0.00    +0.009 C 
BRANCH  25  26
ATOM     26  C   UNL     1      -3.700  -9.444   2.743  0.00  0.00    +0.096 C 
BRANCH  26  27
ATOM     27  C   UNL     1      -3.996  -9.847   4.164  0.00  0.00    +0.219 C 
ATOM     28  O   UNL     1      -3.865  -9.043   5.063  0.00  0.00    -0.275 OA
ATOM     29  N   UNL     1      -4.406 -11.102   4.437  0.00  0.00    -0.265 N 
ATOM     30  C   UNL     1      -4.679 -11.474   5.749  0.00  0.00    +0.164 A 
ATOM     31  N   UNL     1      -4.599 -10.743   6.839  0.00  0.00    -0.233 NA
ATOM     32  C   UNL     1      -4.895 -11.248   8.023  0.00  0.00    +0.120 A 
ATOM     33  C   UNL     1      -5.282 -12.546   8.059  0.00  0.00    +0.068 A 
ATOM     34  S   UNL     1      -5.198 -12.967   6.326  0.00  0.00    -0.061 S 
ATOM     35  H   UNL     1      -4.511 -11.745   3.719  0.00  0.00    +0.157 HD
ENDBRANCH  26  27
ENDBRANCH  25  26
ENDBRANCH  24  25
ENDBRANCH  23  24
ENDBRANCH  22  23
ENDBRANCH   5  22
TORSDOF 9
