REMARK  Name = ZINC19274458
REMARK  5 active torsions:
REMARK  status: ('A' for Active; 'I' for Inactive)
REMARK    1  A    between atoms: C_1  and  C_2
REMARK    2  A    between atoms: C_5  and  N_22
REMARK    3  A    between atoms: C_7  and  N_8
REMARK    4  A    between atoms: C_9  and  C_11
REMARK    5  A    between atoms: C_11  and  C_12
REMARK                            x       y       z     vdW  Elec       q    Type
REMARK                         _______ _______ _______ _____ _____    ______ ____
ROOT
ATOM      1  N   UNL     1      -4.418  -1.927  -1.050  0.00  0.00    -0.285 N 
ATOM      2  C   UNL     1      -4.078  -0.824  -0.353  0.00  0.00    +0.217 C 
ATOM      3  O   UNL     1      -4.503  -0.662   0.771  0.00  0.00    -0.275 OA
ATOM      4  H   UNL     1      -3.980  -2.107  -2.042  0.00  0.00    +0.155 HD
ENDROOT
BRANCH   1  11
ATOM      5  C   UNL     1      -5.931  -3.530  -2.846  0.00  0.00    +0.045 C 
ATOM      6  C   UNL     1      -6.088  -3.645  -1.352  0.00  0.00    -0.029 A 
ATOM      7  C   UNL     1      -6.988  -4.549  -0.820  0.00  0.00    +0.007 A 
ATOM      8  C   UNL     1      -7.135  -4.658   0.549  0.00  0.00    +0.023 A 
ATOM      9  C   UNL     1      -6.379  -3.857   1.396  0.00  0.00    +0.026 A 
ATOM     10  C   UNL     1      -5.471  -2.952   0.865  0.00  0.00    +0.046 A 
ATOM     11  C   UNL     1      -5.329  -2.842  -0.511  0.00  0.00    +0.038 A 
BRANCH   9  12
ATOM     12  N   UNL     1      -6.528  -3.967   2.781  0.00  0.00    -0.358 N 
ATOM     13  H   UNL     1      -5.929  -3.333   3.451  0.00  0.00    +0.142 HD
ATOM     14  H   UNL     1      -7.245  -4.687   3.201  0.00  0.00    +0.142 HD
ENDBRANCH   9  12
ENDBRANCH   1  11
BRANCH   2  15
ATOM     15  C   UNL     1      -3.170   0.207  -0.972  0.00  0.00    +0.100 C 
BRANCH  15  16
ATOM     16  C   UNL     1      -2.945   1.349   0.022  0.00  0.00    +0.001 C 
ATOM     17  C   UNL     1      -2.039   0.881   1.184  0.00  0.00    +0.007 C 
ATOM     18  C   UNL     1      -0.781   1.802   1.102  0.00  0.00    -0.010 C 
ATOM     19  C   UNL     1      -0.042   1.336  -0.190  0.00  0.00    +0.004 C 
ATOM     20  C   UNL     1      -0.948   1.804  -1.352  0.00  0.00    +0.004 C 
ATOM     21  C   UNL     1      -2.151   2.509  -0.654  0.00  0.00    -0.007 C 
ATOM     22  C   UNL     1      -1.436   3.137   0.594  0.00  0.00    +0.007 C 
ENDBRANCH  15  16
ENDBRANCH   2  15
TORSDOF 4
