REMARK  Name = ZINC04814963
REMARK  8 active torsions:
REMARK  status: ('A' for Active; 'I' for Inactive)
REMARK    1  A    between atoms: C_1  and  C_2
REMARK    2  A    between atoms: C_2  and  C_31
REMARK    3  A    between atoms: C_3  and  N_28
REMARK    4  A    between atoms: C_5  and  C_21
REMARK    5  A    between atoms: C_7  and  C_14
REMARK    6  A    between atoms: C_9  and  N_11
REMARK    7  A    between atoms: C_19  and  O_20
REMARK    8  A    between atoms: C_26  and  O_27
REMARK                            x       y       z     vdW  Elec       q    Type
REMARK                         _______ _______ _______ _____ _____    ______ ____
ROOT
ATOM      1  C   UNL     1      -4.174  -1.343   0.285  0.00  0.00    +0.015 C 
ATOM      2  C   UNL     1      -3.061  -1.544   1.315  0.00  0.00    +0.017 C 
ATOM      3  C   UNL     1      -2.555  -2.987   1.247  0.00  0.00    +0.168 C 
ATOM      4  C   UNL     1      -1.401  -3.165   2.237  0.00  0.00    -0.006 C 
ATOM      5  C   UNL     1      -0.768  -0.837   2.005  0.00  0.00    -0.006 C 
ATOM      6  C   UNL     1      -1.903  -0.590   1.008  0.00  0.00    +0.168 C 
ATOM      7  C   UNL     1      -3.604  -1.257   2.716  0.00  0.00    +0.015 C 
ATOM      8  N   UNL     1      -0.307  -2.235   1.897  0.00  0.00    +0.391 N 
ATOM      9  H   UNL     1       0.004  -2.415   0.936  0.00  0.00    -0.084 HD
ATOM     10  H   UNL     1       0.476  -2.383   2.545  0.00  0.00    -0.084 HD
ENDROOT
BRANCH   5  11
ATOM     11  C   UNL     1      -1.261  -0.572   3.404  0.00  0.00    -0.018 A 
ATOM     12  C   UNL     1      -2.428   0.140   3.602  0.00  0.00    +0.005 A 
ATOM     13  C   UNL     1      -2.881   0.385   4.885  0.00  0.00    +0.000 A 
ATOM     14  C   UNL     1      -2.167  -0.083   5.973  0.00  0.00    +0.004 A 
ATOM     15  C   UNL     1      -1.000  -0.795   5.781  0.00  0.00    +0.045 A 
ATOM     16  C   UNL     1      -0.543  -1.042   4.494  0.00  0.00    +0.119 A 
BRANCH  16  17
ATOM     17  O   UNL     1       0.602  -1.747   4.301  0.00  0.00    -0.507 OA
ATOM     18  H   UNL     1       1.382  -1.196   4.147  0.00  0.00    +0.292 HD
ENDBRANCH  16  17
ENDBRANCH   5  11
BRANCH   4  19
ATOM     19  C   UNL     1      -0.886  -4.579   2.159  0.00  0.00    -0.018 A 
ATOM     20  C   UNL     1       0.254  -4.861   1.431  0.00  0.00    +0.005 A 
ATOM     21  C   UNL     1       0.729  -6.157   1.364  0.00  0.00    +0.000 A 
ATOM     22  C   UNL     1       0.059  -7.177   2.015  0.00  0.00    +0.004 A 
ATOM     23  C   UNL     1      -1.084  -6.901   2.740  0.00  0.00    +0.045 A 
ATOM     24  C   UNL     1      -1.560  -5.600   2.814  0.00  0.00    +0.119 A 
BRANCH  24  25
ATOM     25  O   UNL     1      -2.685  -5.326   3.526  0.00  0.00    -0.507 OA
ATOM     26  H   UNL     1      -3.501  -5.385   3.010  0.00  0.00    +0.292 HD
ENDBRANCH  24  25
ENDBRANCH   4  19
BRANCH   6  27
ATOM     27  N   UNL     1      -2.365   0.795   1.127  0.00  0.00    +0.025 N 
ATOM     28  O   UNL     1      -3.558   1.037   1.172  0.00  0.00    -0.131 OA
ATOM     29  O   UNL     1      -1.557   1.704   1.181  0.00  0.00    -0.131 OA
ENDBRANCH   6  27
BRANCH   3  30
ATOM     30  N   UNL     1      -2.085  -3.277  -0.110  0.00  0.00    +0.025 N 
ATOM     31  O   UNL     1      -2.599  -4.174  -0.754  0.00  0.00    -0.131 OA
ATOM     32  O   UNL     1      -1.179  -2.623  -0.594  0.00  0.00    -0.131 OA
ENDBRANCH   3  30
TORSDOF 6
