REMARK  Name = ZINC09042811
REMARK  4 active torsions:
REMARK  status: ('A' for Active; 'I' for Inactive)
REMARK    1  A    between atoms: C_1  and  C_2
REMARK    2  A    between atoms: C_2  and  C_3
REMARK    3  A    between atoms: C_23  and  C_30
REMARK    4  A    between atoms: C_30  and  C_32
REMARK                            x       y       z     vdW  Elec       q    Type
REMARK                         _______ _______ _______ _____ _____    ______ ____
ROOT
ATOM      1  C   UNL     1      -5.987   1.372   3.379  0.00  0.00    -0.026 A 
ATOM      2  C   UNL     1      -6.936   1.018   2.442  0.00  0.00    +0.005 A 
ATOM      3  C   UNL     1      -6.657   1.121   1.091  0.00  0.00    +0.001 A 
ATOM      4  C   UNL     1      -5.418   1.580   0.677  0.00  0.00    +0.004 A 
ATOM      5  C   UNL     1      -4.469   1.933   1.609  0.00  0.00    -0.026 A 
ATOM      6  C   UNL     1      -4.739   1.835   2.971  0.00  0.00    +0.039 A 
ATOM      7  N   UNL     1      -3.631   2.247   3.713  0.00  0.00    -0.286 N 
ATOM      8  C   UNL     1      -2.605   2.625   2.928  0.00  0.00    +0.212 C 
ATOM      9  O   UNL     1      -1.522   3.027   3.298  0.00  0.00    -0.277 OA
ATOM     10  C   UNL     1      -3.060   2.454   1.502  0.00  0.00    +0.060 C 
ATOM     11  C   UNL     1      -3.009   3.772   0.739  0.00  0.00    +0.085 C 
ATOM     12  C   UNL     1      -2.143   4.786   1.436  0.00  0.00    -0.011 A 
ATOM     13  C   UNL     1      -0.819   4.799   1.813  0.00  0.00    +0.006 A 
ATOM     14  C   UNL     1      -0.293   5.905   2.457  0.00  0.00    +0.000 A 
ATOM     15  C   UNL     1      -1.101   6.996   2.720  0.00  0.00    +0.002 A 
ATOM     16  C   UNL     1      -2.428   6.987   2.345  0.00  0.00    +0.023 A 
ATOM     17  C   UNL     1      -2.966   5.877   1.696  0.00  0.00    +0.038 A 
ATOM     18  N   UNL     1      -4.257   5.632   1.225  0.00  0.00    -0.285 N 
ATOM     19  C   UNL     1      -4.366   4.418   0.651  0.00  0.00    +0.228 C 
ATOM     20  O   UNL     1      -5.365   3.939   0.158  0.00  0.00    -0.275 OA
ATOM     21  C   UNL     1      -2.463   3.440  -0.654  0.00  0.00    +0.066 C 
ATOM     22  C   UNL     1      -2.216   1.918  -0.648  0.00  0.00    -0.055 C 
ATOM     23  C   UNL     1      -0.790   1.615   1.222  0.00  0.00    -0.076 C 
ATOM     24  C   UNL     1       0.006   1.102  -0.004  0.00  0.00    -0.020 C 
ATOM     25  C   UNL     1      -0.804   1.647  -1.202  0.00  0.00    -0.016 C 
ATOM     26  H   UNL     1      -3.603   2.260   4.683  0.00  0.00    +0.155 HD
ATOM     27  H   UNL     1      -4.990   6.262   1.302  0.00  0.00    +0.155 HD
ATOM     28  N   UNL     1      -2.192   1.522   0.750  0.00  0.00    +0.395 N 
ATOM     29  H   UNL     1      -2.535   0.560   0.858  0.00  0.00    -0.079 HD
ENDROOT
BRANCH   1  31
ATOM     30  C   UNL     1      -6.795   2.609   5.371  0.00  0.00    +0.009 C 
ATOM     31  C   UNL     1      -6.303   1.258   4.848  0.00  0.00    +0.033 C 
ENDBRANCH   1  31
BRANCH  21  32
ATOM     32  C   UNL     1      -3.474   3.800  -1.712  0.00  0.00    +0.166 C 
ATOM     33  O   UNL     1      -4.290   2.979  -2.075  0.00  0.00    -0.292 OA
BRANCH  32  34
ATOM     34  C   UNL     1      -3.472   5.147  -2.304  0.00  0.00    +0.018 A 
ATOM     35  C   UNL     1      -2.537   6.098  -1.884  0.00  0.00    +0.011 A 
ATOM     36  C   UNL     1      -2.537   7.356  -2.448  0.00  0.00    +0.001 A 
ATOM     37  C   UNL     1      -3.467   7.683  -3.419  0.00  0.00    +0.000 A 
ATOM     38  C   UNL     1      -4.400   6.749  -3.836  0.00  0.00    +0.001 A 
ATOM     39  C   UNL     1      -4.409   5.485  -3.286  0.00  0.00    +0.011 A 
ENDBRANCH  32  34
ENDBRANCH  21  32
TORSDOF 3
