REMARK  Name = ZINC09113422
REMARK  12 active torsions:
REMARK  status: ('A' for Active; 'I' for Inactive)
REMARK    1  A    between atoms: C_1  and  C_2
REMARK    2  A    between atoms: C_2  and  O_3
REMARK    3  A    between atoms: O_3  and  C_4
REMARK    4  A    between atoms: C_7  and  C_12
REMARK    5  A    between atoms: C_9  and  O_10
REMARK    6  A    between atoms: O_10  and  C_11
REMARK    7  A    between atoms: C_17  and  C_27
REMARK    8  A    between atoms: C_19  and  C_23
REMARK    9  A    between atoms: C_20  and  C_22
REMARK   10  A    between atoms: C_23  and  O_25
REMARK   11  A    between atoms: O_25  and  C_26
REMARK   12  A    between atoms: C_33  and  C_38
REMARK                            x       y       z     vdW  Elec       q    Type
REMARK                         _______ _______ _______ _____ _____    ______ ____
ROOT
ATOM      1  C   UNL     1       3.763   3.128   0.779  0.00  0.00    +0.032 C 
ATOM      2  C   UNL     1       3.727   2.062  -0.319  0.00  0.00    +0.059 C 
ATOM      3  C   UNL     1       2.375   1.392  -0.329  0.00  0.00    +0.016 C 
ATOM      4  C   UNL     1       1.262   2.065   0.032  0.00  0.00    +0.024 C 
ATOM      5  C   UNL     1      -0.088   1.395  -0.000  0.00  0.00    +0.099 C 
ATOM      6  C   UNL     1       0.053  -0.099  -0.036  0.00  0.00    +0.065 C 
ATOM      7  C   UNL     1       1.213  -0.681  -0.387  0.00  0.00    +0.016 C 
ATOM      8  N   UNL     1       2.299   0.081  -0.716  0.00  0.00    -0.321 N 
ATOM      9  C   UNL     1       1.316  -2.184  -0.418  0.00  0.00    +0.061 C 
ATOM     10  C   UNL     1       1.329   3.407   0.447  0.00  0.00    +0.162 C 
ATOM     11  O   UNL     1       0.307   3.986   0.758  0.00  0.00    -0.292 OA
ATOM     12  C   UNL     1       2.642   4.138   0.513  0.00  0.00    +0.088 C 
ATOM     13  H   UNL     1       3.117  -0.369  -1.298  0.00  0.00    +0.152 HD
ENDROOT
BRANCH   5  14
ATOM     14  C   UNL     1      -0.838   1.850  -1.226  0.00  0.00    +0.047 A 
ATOM     15  C   UNL     1      -0.344   1.602  -2.452  0.00  0.00    +0.204 A 
ATOM     16  O   UNL     1      -0.967   1.977  -3.575  0.00  0.00    -0.462 OA
ATOM     17  C   UNL     1      -2.139   2.645  -3.562  0.00  0.00    +0.138 A 
ATOM     18  C   UNL     1      -2.758   3.026  -4.747  0.00  0.00    +0.047 A 
ATOM     19  C   UNL     1      -3.955   3.708  -4.708  0.00  0.00    +0.007 A 
ATOM     20  C   UNL     1      -4.553   4.022  -3.496  0.00  0.00    -0.050 A 
ATOM     21  C   UNL     1      -3.955   3.654  -2.310  0.00  0.00    +0.018 A 
ATOM     22  C   UNL     1      -2.745   2.963  -2.336  0.00  0.00    +0.064 A 
ATOM     23  C   UNL     1      -2.067   2.549  -1.093  0.00  0.00    +0.197 A 
ATOM     24  O   UNL     1      -2.542   2.795   0.003  0.00  0.00    -0.287 OA
ATOM     25  C   UNL     1      -5.862   4.769  -3.476  0.00  0.00    +0.044 C 
ENDBRANCH   5  14
BRANCH   1  29
ATOM     26  C   UNL     1       7.542   5.128   0.710  0.00  0.00    +0.162 A 
ATOM     27  C   UNL     1       6.719   5.158  -0.404  0.00  0.00    +0.050 A 
ATOM     28  C   UNL     1       5.500   4.505  -0.381  0.00  0.00    +0.008 A 
ATOM     29  C   UNL     1       5.095   3.832   0.756  0.00  0.00    -0.040 A 
ATOM     30  C   UNL     1       5.912   3.799   1.872  0.00  0.00    +0.053 A 
ATOM     31  C   UNL     1       7.137   4.446   1.853  0.00  0.00    +0.162 A 
BRANCH  31  32
ATOM     32  O   UNL     1       7.941   4.414   2.949  0.00  0.00    -0.491 OA
ATOM     33  C   UNL     1       7.459   3.695   4.086  0.00  0.00    +0.277 C 
ENDBRANCH  31  32
BRANCH  26  34
ATOM     34  O   UNL     1       8.744   5.765   0.687  0.00  0.00    -0.489 OA
BRANCH  34  36
ATOM     35  C   UNL     1      10.470   7.095  -0.358  0.00  0.00    +0.048 C 
ATOM     36  C   UNL     1       9.094   6.445  -0.520  0.00  0.00    +0.226 C 
ENDBRANCH  34  36
ENDBRANCH  26  34
ENDBRANCH   1  29
BRANCH   6  37
ATOM     37  C   UNL     1      -1.054  -0.909   0.307  0.00  0.00    +0.337 C 
ATOM     38  O   UNL     1      -0.986  -2.117   0.180  0.00  0.00    -0.245 OA
BRANCH  37  39
ATOM     39  O   UNL     1      -2.186  -0.342   0.774  0.00  0.00    -0.465 OA
ATOM     40  C   UNL     1      -3.265  -1.220   1.100  0.00  0.00    +0.280 C 
ENDBRANCH  37  39
ENDBRANCH   6  37
TORSDOF 7
