REMARK  Name = ZINC14961691
REMARK  9 active torsions:
REMARK  status: ('A' for Active; 'I' for Inactive)
REMARK    1  A    between atoms: C_1  and  C_2
REMARK    2  A    between atoms: C_7  and  C_8
REMARK    3  A    between atoms: C_8  and  C_9
REMARK    4  A    between atoms: C_9  and  C_11
REMARK    5  A    between atoms: C_9  and  N_52
REMARK    6  A    between atoms: C_11  and  O_12
REMARK    7  A    between atoms: O_12  and  C_13
REMARK    8  A    between atoms: C_15  and  C_19
REMARK    9  A    between atoms: C_25  and  C_29
REMARK                            x       y       z     vdW  Elec       q    Type
REMARK                         _______ _______ _______ _____ _____    ______ ____
ROOT
ATOM      1  C   UNL     1      -8.018   2.909  -0.582  0.00  0.00    +0.139 A 
ATOM      2  C   UNL     1      -6.963   3.185   0.279  0.00  0.00    +0.057 A 
ATOM      3  C   UNL     1      -5.661   3.026  -0.199  0.00  0.00    +0.004 A 
ATOM      4  C   UNL     1      -5.471   2.589  -1.509  0.00  0.00    +0.119 A 
ATOM      5  N   UNL     1      -6.501   2.334  -2.289  0.00  0.00    -0.259 NA
ATOM      6  C   UNL     1      -7.744   2.479  -1.873  0.00  0.00    +0.156 A 
ENDROOT
BRANCH   3   7
ATOM      7  C   UNL     1      -4.497   3.311   0.676  0.00  0.00    -0.016 A 
ATOM      8  C   UNL     1      -4.703   3.749   1.990  0.00  0.00    +0.010 A 
ATOM      9  C   UNL     1      -3.646   4.016   2.808  0.00  0.00    +0.028 A 
ATOM     10  C   UNL     1      -2.342   3.854   2.343  0.00  0.00    +0.066 A 
ATOM     11  C   UNL     1      -2.121   3.419   1.021  0.00  0.00    +0.023 A 
ATOM     12  C   UNL     1      -3.210   3.143   0.190  0.00  0.00    +0.020 A 
ATOM     13  C   UNL     1      -0.673   3.349   0.849  0.00  0.00    +0.067 A 
ATOM     14  N   UNL     1      -0.121   3.719   1.969  0.00  0.00    -0.178 NA
ATOM     15  N   UNL     1      -1.107   4.036   2.909  0.00  0.00    -0.277 N 
ATOM     16  H   UNL     1      -0.938   4.347   3.845  0.00  0.00    +0.189 HD
ATOM     17  C   UNL     1       0.053   2.929  -0.403  0.00  0.00    +0.068 C 
ENDBRANCH   3   7
BRANCH   1  18
ATOM     18  O   UNL     1      -9.304   3.054  -0.164  0.00  0.00    -0.492 OA
BRANCH  18  19
ATOM     19  C   UNL     1     -10.332   2.745  -1.107  0.00  0.00    +0.213 C 
BRANCH  19  20
ATOM     20  C   UNL     1     -11.700   2.966  -0.460  0.00  0.00    -0.033 C 
BRANCH  20  23
ATOM     21  H   UNL     1     -11.153   4.714   0.479  0.00  0.00    -0.089 HD
ATOM     22  H   UNL     1     -11.887   4.945  -0.996  0.00  0.00    -0.089 HD
ATOM     23  N   UNL     1     -11.895   4.391  -0.141  0.00  0.00    +0.382 N 
ATOM     24  H   UNL     1     -12.800   4.511   0.329  0.00  0.00    -0.089 HD
ENDBRANCH  20  23
BRANCH  20  25
ATOM     25  C   UNL     1     -12.799   2.517  -1.426  0.00  0.00    +0.022 C 
BRANCH  25  32
ATOM     26  C   UNL     1     -13.724   0.433   0.347  0.00  0.00    +0.044 C 
ATOM     27  C   UNL     1     -14.584   1.645   0.096  0.00  0.00    -0.047 A 
ATOM     28  C   UNL     1     -15.814   1.760   0.718  0.00  0.00    +0.006 A 
ATOM     29  C   UNL     1     -16.605   2.868   0.484  0.00  0.00    +0.038 A 
ATOM     30  C   UNL     1     -16.165   3.865  -0.370  0.00  0.00    +0.124 A 
ATOM     31  C   UNL     1     -14.932   3.751  -0.988  0.00  0.00    +0.042 A 
ATOM     32  C   UNL     1     -14.142   2.642  -0.752  0.00  0.00    -0.043 A 
ATOM     33  F   UNL     1     -16.939   4.949  -0.599  0.00  0.00    -0.205 F 
ENDBRANCH  25  32
ENDBRANCH  20  25
ENDBRANCH  19  20
ENDBRANCH  18  19
ENDBRANCH   1  18
TORSDOF 7
