REMARK  Name = ZINC63893067
REMARK  10 active torsions:
REMARK  status: ('A' for Active; 'I' for Inactive)
REMARK    1  A    between atoms: C_1  and  C_2
REMARK    2  A    between atoms: C_5  and  N_13
REMARK    3  A    between atoms: C_7  and  S_8
REMARK    4  A    between atoms: S_8  and  N_11
REMARK    5  A    between atoms: N_11  and  C_12
REMARK    6  A    between atoms: C_14  and  C_16
REMARK    7  A    between atoms: C_16  and  S_17
REMARK    8  A    between atoms: S_17  and  C_18
REMARK    9  A    between atoms: C_21  and  C_26
REMARK   10  A    between atoms: N_22  and  C_23
REMARK                            x       y       z     vdW  Elec       q    Type
REMARK                         _______ _______ _______ _____ _____    ______ ____
ROOT
ATOM      1  S   UNL     1       0.111  -6.938  -3.093  0.00  0.00    -0.077 S 
ENDROOT
BRANCH   1   2
ATOM      2  C   UNL     1       0.152  -8.699  -3.106  0.00  0.00    +0.193 A 
ATOM      3  N   UNL     1       0.065  -9.493  -2.049  0.00  0.00    -0.122 NA
ATOM      4  N   UNL     1       0.128 -10.724  -2.414  0.00  0.00    -0.129 NA
ATOM      5  C   UNL     1       0.260 -10.794  -3.730  0.00  0.00    +0.163 A 
ATOM      6  N   UNL     1       0.272  -9.494  -4.204  0.00  0.00    -0.299 N 
BRANCH   5   7
ATOM      7  C   UNL     1       0.362 -11.964  -4.499  0.00  0.00    +0.025 C 
ATOM      8  C   UNL     1       0.340 -13.280  -4.037  0.00  0.00    +0.006 A 
ATOM      9  C   UNL     1       0.217 -13.836  -2.746  0.00  0.00    +0.010 A 
ATOM     10  C   UNL     1       0.227 -15.184  -2.589  0.00  0.00    +0.001 A 
ATOM     11  C   UNL     1       0.357 -16.047  -3.680  0.00  0.00    +0.002 A 
ATOM     12  C   UNL     1       0.480 -15.583  -4.948  0.00  0.00    +0.026 A 
ATOM     13  C   UNL     1       0.477 -14.185  -5.191  0.00  0.00    +0.043 A 
ATOM     14  N   UNL     1       0.579 -13.494  -6.309  0.00  0.00    -0.380 N 
ATOM     15  C   UNL     1       0.512 -12.062  -6.001  0.00  0.00    +0.152 C 
ATOM     16  H   UNL     1       0.678 -13.873  -7.196  0.00  0.00    +0.160 HD
ENDBRANCH   5   7
BRANCH   6  17
ATOM     17  C   UNL     1       0.394  -9.062  -5.599  0.00  0.00    +0.091 C 
ATOM     18  C   UNL     1       0.782  -7.605  -5.856  0.00  0.00    +0.027 C 
ATOM     19  C   UNL     1      -0.649  -8.074  -6.126  0.00  0.00    +0.027 C 
ENDBRANCH   6  17
ENDBRANCH   1   2
BRANCH   1  20
ATOM     20  C   UNL     1      -0.062  -6.515  -1.337  0.00  0.00    +0.173 C 
BRANCH  20  22
ATOM     21  N   UNL     1      -0.237  -4.469   0.042  0.00  0.00    -0.285 N 
ATOM     22  C   UNL     1      -0.110  -5.017  -1.183  0.00  0.00    +0.227 C 
ATOM     23  O   UNL     1      -0.035  -4.304  -2.162  0.00  0.00    -0.275 OA
ATOM     24  H   UNL     1      -0.221  -5.034   0.830  0.00  0.00    +0.155 HD
BRANCH  21  29
ATOM     25  C   UNL     1      -0.863   1.143   0.589  0.00  0.00    +0.046 C 
ATOM     26  C   UNL     1      -0.696  -0.348   0.443  0.00  0.00    -0.024 A 
ATOM     27  C   UNL     1      -1.247  -1.001  -0.644  0.00  0.00    +0.007 A 
ATOM     28  C   UNL     1      -1.097  -2.367  -0.780  0.00  0.00    +0.023 A 
ATOM     29  C   UNL     1      -0.391  -3.085   0.176  0.00  0.00    +0.035 A 
ATOM     30  C   UNL     1       0.162  -2.426   1.267  0.00  0.00    +0.052 A 
ATOM     31  C   UNL     1       0.012  -1.059   1.395  0.00  0.00    +0.110 A 
BRANCH  31  32
ATOM     32  S   UNL     1       0.718  -0.222   2.774  0.00  0.00    +0.058 S 
ATOM     33  O   UNL     1       1.348  -1.214   3.573  0.00  0.00    -0.153 OA
ATOM     34  O   UNL     1       1.423   0.897   2.253  0.00  0.00    -0.153 OA
BRANCH  32  35
ATOM     35  N   UNL     1      -0.534   0.385   3.673  0.00  0.00    -0.193 NA
ATOM     36  C   UNL     1      -1.509  -0.526   4.278  0.00  0.00    +0.127 C 
ATOM     37  H   UNL     1      -0.622   1.342   3.798  0.00  0.00    +0.148 HD
ENDBRANCH  32  35
ENDBRANCH  31  32
ENDBRANCH  21  29
ENDBRANCH  20  22
ENDBRANCH   1  20
TORSDOF 8
