REMARK  Name = ZINC00255862
REMARK  4 active torsions:
REMARK  status: ('A' for Active; 'I' for Inactive)
REMARK    1  A    between atoms: C_3  and  C_7
REMARK    2  A    between atoms: N_8  and  N_9
REMARK    3  A    between atoms: C_10  and  C_12
REMARK    4  A    between atoms: C_14  and  N_19
REMARK                            x       y       z     vdW  Elec       q    Type
REMARK                         _______ _______ _______ _____ _____    ______ ____
ROOT
ATOM      1  C   UNL     1       1.257   1.969   0.001  0.00  0.00    +0.125 A 
ATOM      2  C   UNL     1       2.468   1.282  -0.009  0.00  0.00    +0.091 A 
ATOM      3  C   UNL     1       3.658   2.011  -0.021  0.00  0.00    +0.067 A 
ATOM      4  C   UNL     1       3.581   3.403  -0.013  0.00  0.00    +0.098 A 
ATOM      5  C   UNL     1       2.337   4.013   0.002  0.00  0.00    +0.128 A 
ATOM      6 CL   UNL     1       2.235   5.746   0.011  0.00  0.00    -0.062 Cl
ATOM      7 CL   UNL     1       5.029   4.362  -0.021  0.00  0.00    -0.079 Cl
ATOM      8 CL   UNL     1       2.498  -0.453  -0.012  0.00  0.00    -0.079 Cl
ATOM      9  N   UNL     1       1.161   3.336   0.009  0.00  0.00    -0.339 N 
ATOM     10  H   UNL     1       0.254   3.818   0.020  0.00  0.00    +0.167 HD
ENDROOT
BRANCH   1  12
ATOM     11  N   UNL     1      -1.191   1.869   0.018  0.00  0.00    -0.202 N 
ATOM     12  C   UNL     1      -0.014   1.212   0.009  0.00  0.00    +0.281 C 
ATOM     13  O   UNL     1       0.002  -0.004   0.002  0.00  0.00    -0.267 OA
ATOM     14  H   UNL     1      -1.204   2.839   0.023  0.00  0.00    +0.178 HD
BRANCH  11  16
ATOM     15  C   UNL     1      -3.527   1.786   0.029  0.00  0.00    +0.139 C 
ATOM     16  N   UNL     1      -2.394   1.153   0.020  0.00  0.00    -0.187 NA
BRANCH  15  19
ATOM     17  C   UNL     1      -7.183   0.948   0.041  0.00  0.00    +0.020 A 
ATOM     18  C   UNL     1      -6.023   1.703   0.046  0.00  0.00    +0.012 A 
ATOM     19  C   UNL     1      -4.794   1.032   0.030  0.00  0.00    +0.013 A 
ATOM     20  C   UNL     1      -4.789  -0.365   0.023  0.00  0.00    +0.120 A 
ATOM     21  N   UNL     1      -5.921  -1.039   0.024  0.00  0.00    -0.263 NA
ATOM     22  C   UNL     1      -7.092  -0.432   0.033  0.00  0.00    +0.111 A 
ENDBRANCH  15  19
ENDBRANCH  11  16
ENDBRANCH   1  12
BRANCH   3  23
ATOM     23  N   UNL     1       4.892   1.364  -0.036  0.00  0.00    -0.356 N 
ATOM     24  H   UNL     1       5.711   1.883  -0.041  0.00  0.00    +0.142 HD
ATOM     25  H   UNL     1       4.931   0.395  -0.042  0.00  0.00    +0.142 HD
ENDBRANCH   3  23
TORSDOF 4
