REMARK  Name = ZINC36347273
REMARK  5 active torsions:
REMARK  status: ('A' for Active; 'I' for Inactive)
REMARK    1  A    between atoms: C_1  and  C_2
REMARK    2  A    between atoms: C_5  and  C_8
REMARK    3  A    between atoms: N_18  and  C_19
REMARK    4  A    between atoms: C_19  and  C_20
REMARK    5  A    between atoms: C_25  and  O_26
REMARK                            x       y       z     vdW  Elec       q    Type
REMARK                         _______ _______ _______ _____ _____    ______ ____
ROOT
ATOM      1  C   UNL     1      -0.041  -4.357  -0.116  0.00  0.00    +0.011 C 
ATOM      2  C   UNL     1       1.401  -4.800  -0.068  0.00  0.00    +0.009 A 
ATOM      3  C   UNL     1       2.438  -4.204  -0.689  0.00  0.00    +0.021 A 
ATOM      4  C   UNL     1       3.595  -4.952  -0.390  0.00  0.00    +0.019 A 
ATOM      5  C   UNL     1       3.221  -5.974   0.406  0.00  0.00    +0.086 A 
ATOM      6  N   UNL     1       1.878  -5.883   0.615  0.00  0.00    -0.352 N 
ATOM      7  C   UNL     1       1.062  -6.778   1.443  0.00  0.00    +0.119 C 
ATOM      8  C   UNL     1      -0.207  -7.151   0.670  0.00  0.00    +0.003 C 
ATOM      9  C   UNL     1      -1.294  -6.117   0.937  0.00  0.00    -0.075 C 
ATOM     10  N   UNL     1      -0.721  -4.782   1.116  0.00  0.00    +0.391 N 
ATOM     11  H   UNL     1      -0.056  -4.803   1.875  0.00  0.00    -0.080 HD
ENDROOT
BRANCH   1  16
ATOM     12  C   UNL     1      -0.273   1.400  -0.560  0.00  0.00    +0.044 C 
ATOM     13  C   UNL     1      -0.213  -0.101  -0.444  0.00  0.00    -0.050 A 
ATOM     14  C   UNL     1       0.379  -0.686   0.660  0.00  0.00    +0.003 A 
ATOM     15  C   UNL     1       0.435  -2.063   0.766  0.00  0.00    +0.002 A 
ATOM     16  C   UNL     1      -0.102  -2.856  -0.231  0.00  0.00    -0.055 A 
ATOM     17  C   UNL     1      -0.695  -2.271  -1.335  0.00  0.00    +0.002 A 
ATOM     18  C   UNL     1      -0.754  -0.894  -1.439  0.00  0.00    +0.003 A 
ENDBRANCH   1  16
BRANCH  10  19
ATOM     19  C   UNL     1      -1.792  -3.830   1.435  0.00  0.00    -0.038 C 
BRANCH  19  20
ATOM     20  C   UNL     1      -2.437  -4.217   2.741  0.00  0.00    -0.021 A 
ATOM     21  C   UNL     1      -3.631  -4.912   2.744  0.00  0.00    +0.025 A 
ATOM     22  C   UNL     1      -4.222  -5.268   3.942  0.00  0.00    +0.041 A 
ATOM     23  C   UNL     1      -3.620  -4.929   5.141  0.00  0.00    +0.023 A 
ATOM     24  C   UNL     1      -2.426  -4.234   5.143  0.00  0.00    +0.047 A 
ATOM     25  C   UNL     1      -1.828  -3.881   3.941  0.00  0.00    +0.118 A 
ATOM     26 CL   UNL     1      -5.723  -6.141   3.943  0.00  0.00    -0.084 Cl
BRANCH  25  27
ATOM     27  O   UNL     1      -0.650  -3.203   3.941  0.00  0.00    -0.507 OA
ATOM     28  H   UNL     1      -0.750  -2.241   3.950  0.00  0.00    +0.292 HD
ENDBRANCH  25  27
ENDBRANCH  19  20
ENDBRANCH  10  19
TORSDOF 4
