REMARK  Name = ZINC67042111
REMARK  14 active torsions:
REMARK  status: ('A' for Active; 'I' for Inactive)
REMARK    1  A    between atoms: C_1  and  C_2
REMARK    2  A    between atoms: C_2  and  C_27
REMARK    3  A    between atoms: C_4  and  N_10
REMARK    4  A    between atoms: C_6  and  C_8
REMARK    5  A    between atoms: C_6  and  C_9
REMARK    6  A    between atoms: N_13  and  C_14
REMARK    7  A    between atoms: C_14  and  C_15
REMARK    8  A    between atoms: C_15  and  N_16
REMARK    9  A    between atoms: N_16  and  C_17
REMARK   10  A    between atoms: C_20  and  O_22
REMARK   11  A    between atoms: O_22  and  C_23
REMARK   12  A    between atoms: C_23  and  C_24
REMARK   13  A    between atoms: C_23  and  C_25
REMARK   14  A    between atoms: C_23  and  C_26
REMARK                            x       y       z     vdW  Elec       q    Type
REMARK                         _______ _______ _______ _____ _____    ______ ____
ROOT
ATOM      1  N   UNL     1      -2.996  -2.349   0.158  0.00  0.00    -0.297 N 
ATOM      2  C   UNL     1      -3.292  -3.631  -0.138  0.00  0.00    +0.300 C 
ATOM      3  O   UNL     1      -2.399  -4.419  -0.383  0.00  0.00    -0.253 OA
ATOM      4  N   UNL     1      -4.576  -4.037  -0.163  0.00  0.00    -0.298 N 
ATOM      5  H   UNL     1      -3.708  -1.720   0.353  0.00  0.00    +0.151 HD
ATOM      6  H   UNL     1      -5.288  -3.408   0.032  0.00  0.00    +0.150 HD
ENDROOT
BRANCH   1  10
ATOM      7  C   UNL     1      -0.139   1.639  -0.034  0.00  0.00    -0.010 C 
ATOM      8  C   UNL     1      -0.097   0.093  -0.026  0.00  0.00    -0.072 C 
ATOM      9  C   UNL     1      -1.539  -0.402  -0.080  0.00  0.00    +0.009 C 
ATOM     10  C   UNL     1      -1.596  -1.906   0.184  0.00  0.00    +0.072 C 
ATOM     11  C   UNL     1      -1.011  -2.169   1.572  0.00  0.00    +0.009 C 
ATOM     12  C   UNL     1       0.435  -1.688   1.638  0.00  0.00    -0.072 C 
ATOM     13  N   UNL     1       0.609  -0.324   1.173  0.00  0.00    +0.386 N 
ATOM     14  C   UNL     1       1.339  -2.659   0.871  0.00  0.00    -0.010 C 
ATOM     15  C   UNL     1       0.871  -1.739   3.121  0.00  0.00    -0.010 C 
ATOM     16  C   UNL     1       0.648  -0.343  -1.292  0.00  0.00    -0.010 C 
ATOM     17  H   UNL     1       1.610  -0.159   1.029  0.00  0.00    -0.084 HD
ATOM     18  H   UNL     1       0.348   0.310   1.935  0.00  0.00    -0.084 HD
ENDBRANCH   1  10
BRANCH   4  19
ATOM     19  C   UNL     1      -4.898  -5.430  -0.485  0.00  0.00    +0.125 C 
BRANCH  19  20
ATOM     20  C   UNL     1      -6.415  -5.626  -0.444  0.00  0.00    +0.130 C 
BRANCH  20  21
ATOM     21  N   UNL     1      -6.736  -7.018  -0.766  0.00  0.00    -0.263 N 
ATOM     22  C   UNL     1      -6.950  -7.382  -2.046  0.00  0.00    +0.404 C 
ATOM     23  O   UNL     1      -6.787  -6.577  -2.941  0.00  0.00    -0.226 OA
BRANCH  21  24
ATOM     24  C   UNL     1      -6.825  -8.015   0.304  0.00  0.00    +0.079 C 
ATOM     25  C   UNL     1      -6.636  -7.528   1.742  0.00  0.00    +0.024 C 
ATOM     26  C   UNL     1      -5.541  -8.353   1.064  0.00  0.00    +0.024 C 
ENDBRANCH  21  24
BRANCH  22  27
ATOM     27  O   UNL     1      -7.345  -8.637  -2.332  0.00  0.00    -0.445 OA
BRANCH  27  28
ATOM     28  C   UNL     1      -7.553  -8.954  -3.709  0.00  0.00    +0.107 C 
ATOM     29  C   UNL     1      -6.249  -8.746  -4.483  0.00  0.00    +0.055 C 
ATOM     30  C   UNL     1      -7.995 -10.413  -3.837  0.00  0.00    +0.055 C 
ATOM     31  C   UNL     1      -8.637  -8.040  -4.285  0.00  0.00    +0.055 C 
ENDBRANCH  27  28
ENDBRANCH  22  27
ENDBRANCH  20  21
ENDBRANCH  19  20
ENDBRANCH   4  19
TORSDOF 7
