REMARK  Name = ZINC64230175
REMARK  4 active torsions:
REMARK  status: ('A' for Active; 'I' for Inactive)
REMARK    1  A    between atoms: C_1  and  C_2
REMARK    2  A    between atoms: C_4  and  C_7
REMARK    3  A    between atoms: C_7  and  N_8
REMARK    4  A    between atoms: C_24  and  C_25
REMARK                            x       y       z     vdW  Elec       q    Type
REMARK                         _______ _______ _______ _____ _____    ______ ____
ROOT
ATOM      1  N   UNL     1       0.664  -5.473  -3.234  0.00  0.00    -0.292 N 
ATOM      2  C   UNL     1       1.681  -4.756  -2.717  0.00  0.00    +0.303 C 
ATOM      3  O   UNL     1       1.451  -3.746  -2.080  0.00  0.00    -0.253 OA
ATOM      4  N   UNL     1       2.953  -5.158  -2.906  0.00  0.00    -0.277 N 
ATOM      5  C   UNL     1       4.071  -4.456  -2.257  0.00  0.00    +0.115 C 
ATOM      6  C   UNL     1       4.755  -5.412  -1.274  0.00  0.00    +0.056 C 
ATOM      7  C   UNL     1       4.945  -6.750  -1.942  0.00  0.00    -0.016 A 
ATOM      8  C   UNL     1       5.833  -7.828  -1.557  0.00  0.00    +0.003 A 
ATOM      9  C   UNL     1       6.749  -7.973  -0.510  0.00  0.00    +0.010 A 
ATOM     10  C   UNL     1       7.437  -9.159  -0.448  0.00  0.00    +0.001 A 
ATOM     11  C   UNL     1       7.243 -10.172  -1.373  0.00  0.00    +0.002 A 
ATOM     12  C   UNL     1       6.344 -10.055  -2.418  0.00  0.00    +0.026 A 
ATOM     13  C   UNL     1       5.630  -8.862  -2.506  0.00  0.00    +0.047 A 
ATOM     14  N   UNL     1       4.686  -8.423  -3.389  0.00  0.00    -0.356 N 
ATOM     15  H   UNL     1       4.351  -8.929  -4.146  0.00  0.00    +0.166 HD
ATOM     16  C   UNL     1       4.284  -7.160  -3.046  0.00  0.00    +0.041 A 
ATOM     17  C   UNL     1       3.260  -6.315  -3.764  0.00  0.00    +0.121 C 
ATOM     18  C   UNL     1       3.833  -5.836  -5.099  0.00  0.00    +0.035 C 
ATOM     19  H   UNL     1       0.849  -6.236  -3.804  0.00  0.00    +0.151 HD
ENDROOT
BRANCH   1  20
ATOM     20  C   UNL     1      -0.721  -5.100  -2.935  0.00  0.00    +0.183 C 
BRANCH  20  24
ATOM     21  C   UNL     1      -3.723  -9.095  -3.929  0.00  0.00    +0.069 C 
ATOM     22  C   UNL     1      -2.977  -7.795  -4.082  0.00  0.00    +0.081 A 
ATOM     23  C   UNL     1      -2.138  -7.205  -3.120  0.00  0.00    +0.072 A 
ATOM     24  C   UNL     1      -1.659  -6.054  -3.630  0.00  0.00    +0.154 A 
ATOM     25  O   UNL     1      -2.164  -5.906  -4.864  0.00  0.00    -0.358 OA
ATOM     26  N   UNL     1      -2.992  -7.023  -5.132  0.00  0.00    -0.083 NA
ENDBRANCH  20  24
ENDBRANCH   1  20
TORSDOF 2
