REMARK  Name = ZINC06273665
REMARK  12 active torsions:
REMARK  status: ('A' for Active; 'I' for Inactive)
REMARK    1  A    between atoms: C_1  and  C_2
REMARK    2  A    between atoms: C_2  and  C_3
REMARK    3  A    between atoms: C_3  and  C_4
REMARK    4  A    between atoms: C_4  and  N_5
REMARK    5  A    between atoms: N_5  and  C_6
REMARK    6  A    between atoms: C_6  and  N_8
REMARK    7  A    between atoms: N_8  and  N_9
REMARK    8  A    between atoms: C_10  and  C_12
REMARK    9  A    between atoms: C_19  and  C_22
REMARK   10  A    between atoms: C_22  and  C_23
REMARK   11  A    between atoms: C_22  and  C_24
REMARK   12  A    between atoms: C_22  and  C_25
REMARK                            x       y       z     vdW  Elec       q    Type
REMARK                         _______ _______ _______ _____ _____    ______ ____
ROOT
ATOM      1  N   UNL     1       2.382   0.055  -0.020  0.00  0.00    -0.231 N 
ATOM      2  C   UNL     1       3.558  -0.603  -0.035  0.00  0.00    +0.261 C 
ATOM      3  O   UNL     1       3.575  -1.819  -0.042  0.00  0.00    -0.269 OA
ATOM      4  H   UNL     1       2.369   1.025  -0.015  0.00  0.00    +0.173 HD
ENDROOT
BRANCH   2   5
ATOM      5  C   UNL     1       4.823   0.150  -0.043  0.00  0.00    +0.049 A 
ATOM      6  C   UNL     1       4.830   1.528  -0.042  0.00  0.00    +0.058 A 
ATOM      7  S   UNL     1       6.519   1.915  -0.050  0.00  0.00    -0.101 S 
ATOM      8  C   UNL     1       7.186   0.276  -0.065  0.00  0.00    -0.006 A 
ATOM      9  C   UNL     1       6.102  -0.534  -0.059  0.00  0.00    -0.025 A 
ATOM     10  C   UNL     1       6.255  -2.050  -0.067  0.00  0.00    +0.037 C 
ATOM     11  C   UNL     1       7.677  -2.402   0.374  0.00  0.00    +0.009 C 
ATOM     12  C   UNL     1       8.693  -1.625  -0.468  0.00  0.00    -0.000 C 
ATOM     13  C   UNL     1       8.624  -0.140  -0.082  0.00  0.00    +0.046 C 
BRANCH  12  14
ATOM     14  C   UNL     1      10.100  -2.161  -0.197  0.00  0.00    -0.035 C 
ATOM     15  C   UNL     1      10.161  -3.644  -0.566  0.00  0.00    +0.011 C 
ATOM     16  C   UNL     1      11.113  -1.383  -1.040  0.00  0.00    +0.011 C 
ATOM     17  C   UNL     1      10.433  -1.990   1.287  0.00  0.00    +0.011 C 
ENDBRANCH  12  14
ENDBRANCH   2   5
BRANCH   1  18
ATOM     18  N   UNL     1       1.178  -0.662  -0.013  0.00  0.00    -0.246 N 
ATOM     19  H   UNL     1       1.191  -1.632  -0.018  0.00  0.00    +0.172 HD
BRANCH  18  20
ATOM     20  C   UNL     1       0.002  -0.004   0.002  0.00  0.00    +0.147 C 
ATOM     21  S   UNL     1      -1.469  -0.880   0.011  0.00  0.00    -0.017 S 
BRANCH  20  22
ATOM     22  N   UNL     1      -0.016   1.344   0.009  0.00  0.00    -0.325 N 
ATOM     23  H   UNL     1       0.817   1.840   0.004  0.00  0.00    +0.148 HD
BRANCH  22  24
ATOM     24  C   UNL     1      -1.295   2.059   0.019  0.00  0.00    +0.103 C 
BRANCH  24  25
ATOM     25  C   UNL     1      -1.036   3.567   0.026  0.00  0.00    +0.018 C 
BRANCH  25  27
ATOM     26  C   UNL     1      -2.112   5.821   0.044  0.00  0.00    +0.004 C 
ATOM     27  C   UNL     1      -2.371   4.314   0.037  0.00  0.00    -0.002 C 
ENDBRANCH  25  27
ENDBRANCH  24  25
ENDBRANCH  22  24
ENDBRANCH  20  22
ENDBRANCH  18  20
ENDBRANCH   1  18
TORSDOF 8
