REMARK  Name = ZINC27550443
REMARK  8 active torsions:
REMARK  status: ('A' for Active; 'I' for Inactive)
REMARK    1  A    between atoms: C_1  and  C_2
REMARK    2  A    between atoms: C_2  and  S_3
REMARK    3  A    between atoms: S_3  and  C_4
REMARK    4  A    between atoms: C_5  and  C_9
REMARK    5  A    between atoms: C_11  and  C_32
REMARK    6  A    between atoms: C_12  and  N_31
REMARK    7  A    between atoms: N_13  and  C_21
REMARK    8  A    between atoms: C_25  and  N_27
REMARK                            x       y       z     vdW  Elec       q    Type
REMARK                         _______ _______ _______ _____ _____    ______ ____
ROOT
ATOM      1  C   UNL     1      -3.230   2.248  -2.655  0.00  0.00    +0.099 C 
ATOM      2  C   UNL     1      -4.412   1.386  -2.324  0.00  0.00    +0.077 C 
ATOM      3  C   UNL     1      -4.846   1.251  -1.044  0.00  0.00    +0.107 C 
ATOM      4  N   UNL     1      -4.195   1.905  -0.022  0.00  0.00    -0.260 N 
ATOM      5  C   UNL     1      -2.911   2.353  -0.190  0.00  0.00    +0.024 C 
ATOM      6  C   UNL     1      -2.402   2.532  -1.428  0.00  0.00    +0.025 C 
ATOM      7  C   UNL     1      -1.085   2.991  -1.610  0.00  0.00    +0.162 C 
ATOM      8  O   UNL     1      -0.652   3.127  -2.737  0.00  0.00    -0.292 OA
ATOM      9  C   UNL     1      -0.203   3.316  -0.436  0.00  0.00    +0.080 C 
ATOM     10  C   UNL     1      -1.080   3.754   0.742  0.00  0.00    +0.014 C 
ATOM     11  C   UNL     1      -2.083   2.634   1.040  0.00  0.00    +0.052 C 
ENDROOT
BRANCH   4  12
ATOM     12  C   UNL     1      -4.849   2.112   1.198  0.00  0.00    +0.042 A 
ATOM     13  C   UNL     1      -5.592   3.268   1.402  0.00  0.00    +0.025 A 
ATOM     14  C   UNL     1      -6.236   3.470   2.606  0.00  0.00    +0.024 A 
ATOM     15  C   UNL     1      -6.143   2.521   3.610  0.00  0.00    +0.071 A 
ATOM     16  C   UNL     1      -5.404   1.369   3.409  0.00  0.00    +0.146 A 
ATOM     17  C   UNL     1      -4.762   1.159   2.205  0.00  0.00    +0.058 A 
ATOM     18 CL   UNL     1      -6.954   2.779   5.123  0.00  0.00    -0.081 Cl
BRANCH  16  19
ATOM     19  N   UNL     1      -5.307   0.357   4.485  0.00  0.00    +0.058 N 
ATOM     20  O   UNL     1      -4.657  -0.658   4.309  0.00  0.00    -0.126 OA
ATOM     21  O   UNL     1      -5.876   0.539   5.546  0.00  0.00    -0.126 OA
ENDBRANCH  16  19
ENDBRANCH   4  12
BRANCH   1  23
ATOM     22  C   UNL     1      -3.381   3.914  -4.506  0.00  0.00    +0.049 A 
ATOM     23  C   UNL     1      -3.716   3.551  -3.236  0.00  0.00    -0.014 A 
ATOM     24  C   UNL     1      -4.516   4.400  -2.491  0.00  0.00    +0.013 A 
ATOM     25  C   UNL     1      -4.931   5.565  -3.041  0.00  0.00    +0.046 A 
ATOM     26  S   UNL     1      -4.200   5.492  -4.668  0.00  0.00    -0.090 S 
BRANCH  22  27
ATOM     27  S   UNL     1      -2.395   3.049  -5.683  0.00  0.00    -0.118 S 
BRANCH  27  29
ATOM     28  C   UNL     1      -1.558   3.498  -8.248  0.00  0.00    +0.015 C 
ATOM     29  C   UNL     1      -2.390   4.137  -7.135  0.00  0.00    +0.071 C 
ENDBRANCH  27  29
ENDBRANCH  22  27
ENDBRANCH   1  23
BRANCH   3  30
ATOM     30  N   UNL     1      -5.937   0.462  -0.769  0.00  0.00    -0.345 N 
ATOM     31  H   UNL     1      -6.288   0.352   0.268  0.00  0.00    +0.144 HD
ATOM     32  H   UNL     1      -6.458  -0.061  -1.585  0.00  0.00    +0.144 HD
ENDBRANCH   3  30
BRANCH   2  33
ATOM     33  C   UNL     1      -5.095   0.693  -3.376  0.00  0.00    +0.099 C 
ATOM     34  N   UNL     1      -5.636   0.144  -4.209  0.00  0.00    -0.191 NA
ENDBRANCH   2  33
TORSDOF 7
