REMARK  Name = ZINC35695285
REMARK  12 active torsions:
REMARK  status: ('A' for Active; 'I' for Inactive)
REMARK    1  A    between atoms: C_1  and  C_2
REMARK    2  A    between atoms: C_2  and  C_3
REMARK    3  A    between atoms: C_2  and  C_4
REMARK    4  A    between atoms: N_6  and  C_7
REMARK    5  A    between atoms: N_6  and  C_13
REMARK    6  A    between atoms: C_7  and  C_8
REMARK    7  A    between atoms: C_13  and  C_14
REMARK    8  A    between atoms: C_14  and  N_16
REMARK    9  A    between atoms: C_19  and  C_29
REMARK   10  A    between atoms: N_21  and  C_22
REMARK   11  A    between atoms: C_32  and  O_35
REMARK   12  A    between atoms: O_35  and  C_36
REMARK                            x       y       z     vdW  Elec       q    Type
REMARK                         _______ _______ _______ _____ _____    ______ ____
ROOT
ATOM      1  N   UNL     1       1.288  -3.722  -1.996  0.00  0.00    -0.145 NA
ATOM      2  C   UNL     1       2.163  -3.807  -2.998  0.00  0.00    +0.205 A 
ATOM      3  N   UNL     1       3.361  -3.170  -3.068  0.00  0.00    -0.326 N 
ATOM      4  C   UNL     1       3.963  -3.525  -4.268  0.00  0.00    +0.066 A 
ATOM      5  C   UNL     1       3.136  -4.367  -4.912  0.00  0.00    +0.120 A 
ATOM      6  N   UNL     1       2.016  -4.551  -4.126  0.00  0.00    -0.287 N 
ATOM      7  H   UNL     1       3.730  -2.572  -2.398  0.00  0.00    +0.169 HD
ENDROOT
BRANCH   6   8
ATOM      8  C   UNL     1       0.917  -5.363  -4.438  0.00  0.00    +0.049 A 
ATOM      9  C   UNL     1      -0.153  -5.453  -3.557  0.00  0.00    +0.029 A 
ATOM     10  C   UNL     1      -1.235  -6.254  -3.866  0.00  0.00    +0.040 A 
ATOM     11  C   UNL     1      -1.254  -6.966  -5.054  0.00  0.00    +0.124 A 
ATOM     12  C   UNL     1      -0.188  -6.878  -5.933  0.00  0.00    +0.040 A 
ATOM     13  C   UNL     1       0.894  -6.074  -5.630  0.00  0.00    +0.029 A 
ATOM     14  F   UNL     1      -2.313  -7.749  -5.354  0.00  0.00    -0.205 F 
ENDBRANCH   6   8
BRANCH   4  15
ATOM     15  C   UNL     1       5.281  -3.059  -4.753  0.00  0.00    +0.000 A 
ATOM     16  C   UNL     1       5.766  -3.492  -5.987  0.00  0.00    +0.013 A 
ATOM     17  C   UNL     1       6.995  -3.056  -6.435  0.00  0.00    +0.046 A 
ATOM     18  C   UNL     1       7.750  -2.186  -5.660  0.00  0.00    +0.120 A 
ATOM     19  C   UNL     1       7.271  -1.753  -4.431  0.00  0.00    +0.046 A 
ATOM     20  C   UNL     1       6.040  -2.180  -3.979  0.00  0.00    +0.013 A 
BRANCH  18  21
ATOM     21  O   UNL     1       8.960  -1.758  -6.104  0.00  0.00    -0.495 OA
ATOM     22  C   UNL     1       9.684  -0.865  -5.256  0.00  0.00    +0.277 C 
ENDBRANCH  18  21
ENDBRANCH   4  15
BRANCH   1  23
ATOM     23  C   UNL     1       1.554  -2.955  -0.945  0.00  0.00    +0.256 C 
ATOM     24  O   UNL     1       2.597  -2.330  -0.897  0.00  0.00    -0.272 OA
BRANCH  23  25
ATOM     25  C   UNL     1       0.565  -2.859   0.188  0.00  0.00    +0.206 C 
BRANCH  25  28
ATOM     26  C   UNL     1       0.727  -0.659   1.223  0.00  0.00    +0.219 C 
ATOM     27  O   UNL     1       1.235   0.108   2.012  0.00  0.00    -0.275 OA
ATOM     28  N   UNL     1       1.088  -1.958   1.217  0.00  0.00    -0.285 N 
BRANCH  26  30
ATOM     29  C   UNL     1      -0.984   1.089   0.814  0.00  0.00    +0.017 C 
ATOM     30  C   UNL     1      -0.308  -0.161   0.247  0.00  0.00    +0.069 C 
ATOM     31  C   UNL     1       0.367   0.182  -1.082  0.00  0.00    +0.017 C 
ENDBRANCH  26  30
BRANCH  28  32
ATOM     32  C   UNL     1       2.003  -2.467   2.241  0.00  0.00    +0.182 C 
BRANCH  32  33
ATOM     33  C   UNL     1       1.211  -2.954   3.427  0.00  0.00    +0.122 A 
ATOM     34  C   UNL     1       0.745  -4.203   3.603  0.00  0.00    +0.046 A 
ATOM     35  C   UNL     1       0.063  -4.216   4.842  0.00  0.00    +0.041 A 
ATOM     36  C   UNL     1       0.152  -2.973   5.348  0.00  0.00    +0.195 A 
ATOM     37  O   UNL     1       0.854  -2.214   4.490  0.00  0.00    -0.466 OA
ENDBRANCH  32  33
ENDBRANCH  28  32
ENDBRANCH  25  28
ENDBRANCH  23  25
ENDBRANCH   1  23
TORSDOF 9
