REMARK  Name = ZINC46784384
REMARK  3 active torsions:
REMARK  status: ('A' for Active; 'I' for Inactive)
REMARK    1  A    between atoms: C_1  and  C_2
REMARK    2  A    between atoms: C_2  and  C_3
REMARK    3  A    between atoms: C_13  and  C_15
REMARK                            x       y       z     vdW  Elec       q    Type
REMARK                         _______ _______ _______ _____ _____    ______ ____
ROOT
ATOM      1  C   UNL     1       0.742  -0.511   1.242  0.00  0.00    -0.006 C 
ATOM      2  C   UNL     1       0.662  -2.039   1.298  0.00  0.00    +0.010 C 
ATOM      3  C   UNL     1       1.179  -2.544   2.646  0.00  0.00    +0.056 C 
ATOM      4  C   UNL     1       2.558  -1.948   2.894  0.00  0.00    +0.054 A 
ATOM      5  C   UNL     1       2.972  -0.854   2.204  0.00  0.00    +0.015 A 
ATOM      6  S   UNL     1       4.597  -0.581   2.852  0.00  0.00    -0.057 S 
ATOM      7  C   UNL     1       4.619  -1.868   3.940  0.00  0.00    +0.165 A 
ATOM      8  N   UNL     1       3.440  -2.425   3.768  0.00  0.00    -0.229 NA
ATOM      9  N   UNL     1       5.636  -2.249   4.806  0.00  0.00    -0.258 N 
ATOM     10  C   UNL     1       5.471  -3.318   5.610  0.00  0.00    +0.285 C 
ATOM     11  O   UNL     1       4.431  -3.950   5.577  0.00  0.00    -0.266 OA
ATOM     12  C   UNL     1       2.219  -0.091   1.167  0.00  0.00    +0.048 C 
ATOM     13  H   UNL     1       6.464  -1.746   4.833  0.00  0.00    +0.157 HD
ENDROOT
BRANCH  10  14
ATOM     14  C   UNL     1       6.543  -3.720   6.525  0.00  0.00    +0.189 A 
ATOM     15  C   UNL     1       6.510  -4.780   7.385  0.00  0.00    +0.054 A 
ATOM     16  C   UNL     1       7.740  -4.791   8.060  0.00  0.00    +0.042 A 
ATOM     17  C   UNL     1       8.462  -3.751   7.589  0.00  0.00    +0.196 A 
ATOM     18  O   UNL     1       7.739  -3.111   6.660  0.00  0.00    -0.458 OA
ENDBRANCH  10  14
BRANCH   1  20
ATOM     19  C   UNL     1      -0.019   1.526   0.010  0.00  0.00    +0.004 C 
ATOM     20  C   UNL     1       0.002  -0.004   0.002  0.00  0.00    +0.000 C 
ENDBRANCH   1  20
TORSDOF 2
