REMARK  Name = ZINC24141777
REMARK  7 active torsions:
REMARK  status: ('A' for Active; 'I' for Inactive)
REMARK    1  A    between atoms: C_1  and  C_2
REMARK    2  A    between atoms: C_2  and  C_3
REMARK    3  A    between atoms: C_3  and  C_26
REMARK    4  A    between atoms: N_6  and  N_10
REMARK    5  A    between atoms: C_11  and  C_13
REMARK    6  A    between atoms: C_13  and  S_14
REMARK    7  A    between atoms: S_14  and  C_15
REMARK                            x       y       z     vdW  Elec       q    Type
REMARK                         _______ _______ _______ _____ _____    ______ ____
ROOT
ATOM      1  N   UNL     1       3.240   4.076  -0.007  0.00  0.00    -0.223 N 
ATOM      2  C   UNL     1       1.984   3.586   0.002  0.00  0.00    +0.240 C 
ATOM      3  O   UNL     1       1.037   4.344   0.015  0.00  0.00    -0.273 OA
ATOM      4  H   UNL     1       4.098   3.388  -0.019  0.00  0.00    +0.174 HD
ENDROOT
BRANCH   1   8
ATOM      5  C   UNL     1       3.941   7.608  -0.607  0.00  0.00    +0.139 C 
ATOM      6  C   UNL     1       3.846   6.170  -1.077  0.00  0.00    +0.268 C 
ATOM      7  O   UNL     1       4.076   5.747  -2.190  0.00  0.00    -0.271 OA
ATOM      8  N   UNL     1       3.451   5.461  -0.002  0.00  0.00    -0.137 N 
ATOM      9  C   UNL     1       3.292   6.241   1.073  0.00  0.00    +0.327 C 
ATOM     10  O   UNL     1       2.946   5.828   2.163  0.00  0.00    -0.251 OA
ATOM     11  N   UNL     1       3.560   7.534   0.814  0.00  0.00    -0.280 N 
ATOM     12  H   UNL     1       3.541   8.447   1.427  0.00  0.00    +0.152 HD
BRANCH   5  13
ATOM     13  C   UNL     1       5.352   8.117  -0.752  0.00  0.00    -0.015 A 
ATOM     14  C   UNL     1       5.720   8.820  -1.884  0.00  0.00    +0.006 A 
ATOM     15  C   UNL     1       7.013   9.290  -2.014  0.00  0.00    +0.000 A 
ATOM     16  C   UNL     1       7.941   9.050  -1.017  0.00  0.00    +0.000 A 
ATOM     17  C   UNL     1       7.573   8.344   0.113  0.00  0.00    +0.000 A 
ATOM     18  C   UNL     1       6.279   7.877   0.245  0.00  0.00    +0.006 A 
ENDBRANCH   5  13
BRANCH   5  20
ATOM     19  C   UNL     1       1.536   8.005  -1.158  0.00  0.00    +0.007 C 
ATOM     20  C   UNL     1       2.966   8.500  -1.379  0.00  0.00    +0.037 C 
ENDBRANCH   5  20
ENDBRANCH   1   8
BRANCH   2  21
ATOM     21  C   UNL     1       1.756   2.096  -0.004  0.00  0.00    +0.174 C 
BRANCH  21  22
ATOM     22  S   UNL     1      -0.022   1.758   0.012  0.00  0.00    -0.078 S 
BRANCH  22  23
ATOM     23  C   UNL     1       0.002  -0.004   0.002  0.00  0.00    +0.168 A 
ATOM     24  N   UNL     1      -1.105  -0.804   0.008  0.00  0.00    -0.333 N 
ATOM     25  H   UNL     1      -2.109  -0.355   0.021  0.00  0.00    +0.168 HD
ATOM     26  C   UNL     1      -0.663  -2.117  -0.004  0.00  0.00    +0.068 A 
ATOM     27  C   UNL     1      -1.304  -3.347  -0.005  0.00  0.00    +0.047 A 
ATOM     28  C   UNL     1      -0.559  -4.510  -0.020  0.00  0.00    +0.043 A 
ATOM     29  C   UNL     1       0.828  -4.455  -0.033  0.00  0.00    +0.022 A 
ATOM     30  C   UNL     1       1.480  -3.243  -0.031  0.00  0.00    +0.031 A 
ATOM     31  C   UNL     1       0.740  -2.057  -0.017  0.00  0.00    +0.090 A 
ATOM     32  N   UNL     1       1.084  -0.742  -0.018  0.00  0.00    -0.222 NA
ATOM     33 CL   UNL     1      -1.362  -6.049  -0.021  0.00  0.00    -0.083 Cl
ENDBRANCH  22  23
ENDBRANCH  21  22
ENDBRANCH   2  21
TORSDOF 6
