REMARK  Name = ZINC16433958
REMARK  14 active torsions:
REMARK  status: ('A' for Active; 'I' for Inactive)
REMARK    1  A    between atoms: C_1  and  C_2
REMARK    2  A    between atoms: C_2  and  C_3
REMARK    3  A    between atoms: C_2  and  C_4
REMARK    4  A    between atoms: C_4  and  N_5
REMARK    5  A    between atoms: N_5  and  C_6
REMARK    6  A    between atoms: C_6  and  C_7
REMARK    7  A    between atoms: N_9  and  C_10
REMARK    8  A    between atoms: C_12  and  C_23
REMARK    9  A    between atoms: N_14  and  C_15
REMARK   10  A    between atoms: C_23  and  C_24
REMARK   11  A    between atoms: C_23  and  C_25
REMARK   12  A    between atoms: C_23  and  C_26
REMARK   13  A    between atoms: C_27  and  C_29
REMARK   14  A    between atoms: C_29  and  C_30
REMARK                            x       y       z     vdW  Elec       q    Type
REMARK                         _______ _______ _______ _____ _____    ______ ____
ROOT
ATOM      1  C   UNL     1      -1.672   7.578  -3.432  0.00  0.00    +0.236 C 
ATOM      2  O   UNL     1      -2.567   7.319  -2.654  0.00  0.00    -0.274 OA
ATOM      3  N   UNL     1      -1.962   7.929  -4.700  0.00  0.00    -0.269 N 
ATOM      4  H   UNL     1      -1.247   8.136  -5.322  0.00  0.00    +0.156 HD
ENDROOT
BRANCH   3   5
ATOM      5  C   UNL     1      -3.290   7.994  -5.119  0.00  0.00    +0.129 A 
ATOM      6  C   UNL     1      -4.388   7.726  -4.361  0.00  0.00    +0.069 A 
ATOM      7  C   UNL     1      -5.519   7.913  -5.161  0.00  0.00    +0.071 A 
ATOM      8  N   UNL     1      -5.126   8.272  -6.357  0.00  0.00    -0.169 NA
ATOM      9  N   UNL     1      -3.727   8.332  -6.363  0.00  0.00    -0.218 N 
BRANCH   9  10
ATOM     10  C   UNL     1      -2.920   8.678  -7.456  0.00  0.00    +0.069 A 
ATOM     11  C   UNL     1      -3.296   8.313  -8.742  0.00  0.00    +0.029 A 
ATOM     12  C   UNL     1      -2.500   8.655  -9.817  0.00  0.00    +0.023 A 
ATOM     13  C   UNL     1      -1.328   9.362  -9.615  0.00  0.00    +0.059 A 
ATOM     14  C   UNL     1      -0.950   9.728  -8.334  0.00  0.00    +0.061 A 
ATOM     15  C   UNL     1      -1.746   9.392  -7.255  0.00  0.00    +0.049 A 
ATOM     16 CL   UNL     1       0.522  10.614  -8.083  0.00  0.00    -0.082 Cl
ATOM     17 CL   UNL     1      -0.329   9.790 -10.969  0.00  0.00    -0.082 Cl
ENDBRANCH   9  10
BRANCH   7  18
ATOM     18  C   UNL     1      -6.949   7.728  -4.722  0.00  0.00    +0.006 C 
ATOM     19  C   UNL     1      -7.371   8.910  -3.848  0.00  0.00    +0.017 C 
ATOM     20  C   UNL     1      -7.854   7.654  -5.953  0.00  0.00    +0.017 C 
ATOM     21  C   UNL     1      -7.072   6.430  -3.920  0.00  0.00    +0.017 C 
ENDBRANCH   7  18
ENDBRANCH   3   5
BRANCH   1  22
ATOM     22  C   UNL     1      -0.236   7.508  -2.979  0.00  0.00    +0.203 C 
BRANCH  22  23
ATOM     23  N   UNL     1      -0.188   7.107  -1.570  0.00  0.00    -0.292 N 
ATOM     24  C   UNL     1      -0.119   5.801  -1.243  0.00  0.00    +0.220 C 
ATOM     25  O   UNL     1       0.001   4.964  -2.112  0.00  0.00    -0.275 OA
BRANCH  23  26
ATOM     26  C   UNL     1      -0.214   8.125  -0.517  0.00  0.00    +0.111 C 
BRANCH  26  28
ATOM     27  C   UNL     1       1.151   9.832   0.694  0.00  0.00    +0.009 C 
ATOM     28  C   UNL     1       1.200   8.668  -0.298  0.00  0.00    +0.000 C 
ATOM     29  C   UNL     1       2.091   7.557   0.262  0.00  0.00    +0.009 C 
ENDBRANCH  26  28
ENDBRANCH  23  26
BRANCH  24  30
ATOM     30  C   UNL     1      -0.192   5.382   0.202  0.00  0.00    +0.131 C 
BRANCH  30  31
ATOM     31  C   UNL     1      -0.224   3.877   0.288  0.00  0.00    -0.039 A 
ATOM     32  C   UNL     1       0.957   3.165   0.380  0.00  0.00    +0.004 A 
ATOM     33  C   UNL     1       0.927   1.785   0.459  0.00  0.00    +0.000 A 
ATOM     34  C   UNL     1      -0.284   1.118   0.445  0.00  0.00    +0.000 A 
ATOM     35  C   UNL     1      -1.464   1.830   0.346  0.00  0.00    +0.000 A 
ATOM     36  C   UNL     1      -1.435   3.210   0.273  0.00  0.00    +0.004 A 
ENDBRANCH  30  31
ENDBRANCH  24  30
ENDBRANCH  22  23
ENDBRANCH   1  22
TORSDOF 9
