REMARK  Name = ZINC38556362
REMARK  7 active torsions:
REMARK  status: ('A' for Active; 'I' for Inactive)
REMARK    1  A    between atoms: C_4  and  C_7
REMARK    2  A    between atoms: C_7  and  C_9
REMARK    3  A    between atoms: C_9  and  S_10
REMARK    4  A    between atoms: S_10  and  C_11
REMARK    5  A    between atoms: C_15  and  C_19
REMARK    6  A    between atoms: N_17  and  N_18
REMARK    7  A    between atoms: C_22  and  C_25
REMARK                            x       y       z     vdW  Elec       q    Type
REMARK                         _______ _______ _______ _____ _____    ______ ____
ROOT
ATOM      1  C   UNL     1       5.293  -4.571  -0.075  0.00  0.00    +0.272 C 
ATOM      2  N   UNL     1       4.518  -5.028   1.085  0.00  0.00    -0.159 NA
ATOM      3  N   UNL     1       3.688  -5.882   0.760  0.00  0.00    -0.167 NA
ATOM      4  C   UNL     1       3.748  -6.160  -0.681  0.00  0.00    +0.244 C 
ATOM      5  N   UNL     1       4.514  -5.022  -1.256  0.00  0.00    -0.183 NA
ENDROOT
BRANCH   4   6
ATOM      6  C   UNL     1       2.339  -6.211  -1.274  0.00  0.00    +0.195 C 
ATOM      7  C   UNL     1       1.508  -7.282  -0.589  0.00  0.00    +0.035 C 
ATOM      8  C   UNL     1       1.201  -8.137  -1.583  0.00  0.00    +0.091 C 
ATOM      9  N   UNL     1       1.740  -7.713  -2.757  0.00  0.00    -0.154 NA
ATOM     10  N   UNL     1       2.380  -6.659  -2.676  0.00  0.00    -0.176 NA
BRANCH   8  11
ATOM     11  C   UNL     1       0.391  -9.369  -1.420  0.00  0.00    +0.002 A 
ATOM     12  C   UNL     1      -0.119  -9.710  -0.169  0.00  0.00    +0.011 A 
ATOM     13  C   UNL     1      -0.873 -10.857  -0.022  0.00  0.00    +0.020 A 
ATOM     14  C   UNL     1      -1.121 -11.669  -1.115  0.00  0.00    +0.041 A 
ATOM     15  C   UNL     1      -0.617 -11.335  -2.361  0.00  0.00    +0.020 A 
ATOM     16  C   UNL     1       0.132 -10.187  -2.519  0.00  0.00    +0.011 A 
ATOM     17 CL   UNL     1      -2.069 -13.111  -0.924  0.00  0.00    -0.084 Cl
ENDBRANCH   8  11
ENDBRANCH   4   6
BRANCH   5  18
ATOM     18  N   UNL     1       5.396  -5.470  -2.322  0.00  0.00    -0.263 NA
ATOM     19  H   UNL     1       6.010  -4.727  -2.619  0.00  0.00    +0.137 HD
ATOM     20  H   UNL     1       5.922  -6.283  -2.038  0.00  0.00    +0.137 HD
ENDBRANCH   5  18
BRANCH   1  21
ATOM     21  S   UNL     1       5.436  -2.762  -0.067  0.00  0.00    -0.108 S 
BRANCH  21  22
ATOM     22  C   UNL     1       3.716  -2.186  -0.046  0.00  0.00    +0.152 C 
BRANCH  22  23
ATOM     23  C   UNL     1       3.691  -0.679  -0.038  0.00  0.00    +0.173 C 
ATOM     24  O   UNL     1       4.731  -0.056  -0.045  0.00  0.00    -0.291 OA
BRANCH  23  28
ATOM     25  C   UNL     1      -0.017   1.380   0.010  0.00  0.00    +0.000 A 
ATOM     26  C   UNL     1       1.168   2.095   0.002  0.00  0.00    +0.001 A 
ATOM     27  C   UNL     1       2.377   1.433  -0.013  0.00  0.00    +0.011 A 
ATOM     28  C   UNL     1       2.405   0.035  -0.021  0.00  0.00    +0.018 A 
ATOM     29  C   UNL     1       1.203  -0.681  -0.013  0.00  0.00    +0.011 A 
ATOM     30  C   UNL     1       0.002  -0.004   0.002  0.00  0.00    +0.001 A 
ENDBRANCH  23  28
ENDBRANCH  22  23
ENDBRANCH  21  22
ENDBRANCH   1  21
TORSDOF 7
