REMARK  Name = ZINC62669114
REMARK  6 active torsions:
REMARK  status: ('A' for Active; 'I' for Inactive)
REMARK    1  A    between atoms: C_1  and  C_2
REMARK    2  A    between atoms: C_2  and  C_3
REMARK    3  A    between atoms: C_2  and  C_4
REMARK    4  A    between atoms: C_2  and  N_5
REMARK    5  A    between atoms: N_5  and  C_6
REMARK    6  A    between atoms: C_8  and  C_12
REMARK                            x       y       z     vdW  Elec       q    Type
REMARK                         _______ _______ _______ _____ _____    ______ ____
ROOT
ATOM      1  C   UNL     1       2.014  -0.121  -1.434  0.00  0.00    +0.115 A 
ATOM      2  C   UNL     1       2.790   0.650  -0.627  0.00  0.00    +0.073 A 
ATOM      3  C   UNL     1       4.057   0.762  -1.228  0.00  0.00    +0.094 A 
ATOM      4  N   UNL     1       4.038   0.082  -2.355  0.00  0.00    -0.172 NA
ATOM      5  N   UNL     1       2.767  -0.487  -2.504  0.00  0.00    -0.264 N 
ATOM      6  H   UNL     1       2.475  -1.043  -3.243  0.00  0.00    +0.190 HD
ENDROOT
BRANCH   3   7
ATOM      7  C   UNL     1       5.215   1.517  -0.687  0.00  0.00    +0.006 A 
ATOM      8  C   UNL     1       5.100   2.193   0.526  0.00  0.00    +0.014 A 
ATOM      9  C   UNL     1       6.176   2.895   1.032  0.00  0.00    +0.050 A 
ATOM     10  C   UNL     1       7.371   2.927   0.331  0.00  0.00    +0.162 A 
ATOM     11  C   UNL     1       7.490   2.256  -0.879  0.00  0.00    +0.163 A 
ATOM     12  C   UNL     1       6.419   1.546  -1.389  0.00  0.00    +0.059 A 
ATOM     13  O   UNL     1       8.674   2.295  -1.558  0.00  0.00    -0.488 OA
ATOM     14  C   UNL     1       9.038   3.563  -2.106  0.00  0.00    +0.232 C 
ATOM     15  C   UNL     1       9.737   4.421  -1.062  0.00  0.00    +0.082 C 
ATOM     16  C   UNL     1       8.821   4.785   0.095  0.00  0.00    +0.232 C 
ATOM     17  O   UNL     1       8.439   3.618   0.826  0.00  0.00    -0.488 OA
ENDBRANCH   3   7
BRANCH   1  18
ATOM     18  N   UNL     1       0.688  -0.476  -1.203  0.00  0.00    -0.325 N 
ATOM     19  H   UNL     1       0.218  -1.037  -1.840  0.00  0.00    +0.148 HD
BRANCH  18  21
ATOM     20  C   UNL     1      -0.019   1.526   0.010  0.00  0.00    +0.031 C 
ATOM     21  C   UNL     1       0.002  -0.004   0.002  0.00  0.00    +0.025 C 
ATOM     22  C   UNL     1       0.742  -0.511   1.242  0.00  0.00    +0.031 C 
ATOM     23  C   UNL     1      -1.433  -0.534   0.013  0.00  0.00    +0.031 C 
ENDBRANCH  18  21
ENDBRANCH   1  18
TORSDOF 3
