REMARK  Name = ZINC11900644
REMARK  11 active torsions:
REMARK  status: ('A' for Active; 'I' for Inactive)
REMARK    1  A    between atoms: C_1  and  C_2
REMARK    2  A    between atoms: C_3  and  C_29
REMARK    3  A    between atoms: C_4  and  C_28
REMARK    4  A    between atoms: C_5  and  S_10
REMARK    5  A    between atoms: C_6  and  C_9
REMARK    6  A    between atoms: C_7  and  C_8
REMARK    7  A    between atoms: S_10  and  N_13
REMARK    8  A    between atoms: N_13  and  C_14
REMARK    9  A    between atoms: C_14  and  C_15
REMARK   10  A    between atoms: C_15  and  N_62
REMARK   11  A    between atoms: N_18  and  C_21
REMARK                            x       y       z     vdW  Elec       q    Type
REMARK                         _______ _______ _______ _____ _____    ______ ____
ROOT
ATOM      1  N   UNL     1      -0.917  -0.476   1.385  0.00  0.00    -0.192 NA
ATOM      2  H   UNL     1      -0.313  -1.102   1.815  0.00  0.00    +0.148 HD
ENDROOT
BRANCH   1   3
ATOM      3  S   UNL     1      -0.606   0.052  -0.153  0.00  0.00    +0.059 S 
ATOM      4  O   UNL     1      -1.814  -0.100  -0.886  0.00  0.00    -0.153 OA
ATOM      5  O   UNL     1       0.611  -0.562  -0.555  0.00  0.00    -0.153 OA
BRANCH   3  10
ATOM      6  C   UNL     1       0.479   5.978   0.179  0.00  0.00    +0.044 C 
ATOM      7  C   UNL     1       0.208   4.497   0.096  0.00  0.00    -0.044 A 
ATOM      8  C   UNL     1      -1.094   4.035   0.056  0.00  0.00    -0.043 A 
ATOM      9  C   UNL     1      -1.342   2.677  -0.019  0.00  0.00    -0.021 A 
ATOM     10  C   UNL     1      -0.289   1.782  -0.057  0.00  0.00    +0.112 A 
ATOM     11  C   UNL     1       1.013   2.245  -0.012  0.00  0.00    -0.021 A 
ATOM     12  C   UNL     1       1.261   3.603   0.059  0.00  0.00    -0.043 A 
ATOM     13  C   UNL     1       2.681   4.108   0.102  0.00  0.00    +0.044 C 
ATOM     14  C   UNL     1       2.161   1.269  -0.046  0.00  0.00    +0.046 C 
ATOM     15  C   UNL     1      -2.762   2.172  -0.062  0.00  0.00    +0.046 C 
ATOM     16  C   UNL     1      -2.242   5.010   0.096  0.00  0.00    +0.044 C 
ENDBRANCH   3  10
ENDBRANCH   1   3
BRANCH   1  17
ATOM     17  C   UNL     1      -2.104   0.003   2.098  0.00  0.00    +0.087 C 
BRANCH  17  18
ATOM     18  C   UNL     1      -2.365  -0.891   3.312  0.00  0.00    -0.062 C 
BRANCH  18  24
ATOM     19  C   UNL     1      -3.317   0.913   4.617  0.00  0.00    -0.060 C 
ATOM     20  C   UNL     1      -4.602   1.411   5.282  0.00  0.00    +0.086 C 
ATOM     21  N   UNL     1      -5.024   0.449   6.309  0.00  0.00    -0.333 N 
ATOM     22  C   UNL     1      -5.262  -0.876   5.719  0.00  0.00    +0.086 C 
ATOM     23  C   UNL     1      -3.977  -1.374   5.054  0.00  0.00    -0.060 C 
ATOM     24  N   UNL     1      -3.577  -0.408   4.009  0.00  0.00    +0.383 N 
ATOM     25  H   UNL     1      -4.340  -0.318   3.328  0.00  0.00    -0.082 HD
BRANCH  21  26
ATOM     26  C   UNL     1      -6.157   0.905   6.989  0.00  0.00    +0.030 A 
ATOM     27  C   UNL     1      -7.305   0.125   7.030  0.00  0.00    +0.026 A 
ATOM     28  C   UNL     1      -8.421   0.577   7.707  0.00  0.00    +0.040 A 
ATOM     29  C   UNL     1      -8.400   1.810   8.335  0.00  0.00    +0.124 A 
ATOM     30  C   UNL     1      -7.258   2.592   8.291  0.00  0.00    +0.040 A 
ATOM     31  C   UNL     1      -6.137   2.143   7.620  0.00  0.00    +0.026 A 
ATOM     32  F   UNL     1      -9.495   2.252   8.992  0.00  0.00    -0.205 F 
ENDBRANCH  21  26
ENDBRANCH  18  24
ENDBRANCH  17  18
ENDBRANCH   1  17
TORSDOF 6
