REMARK  Name = ZINC16788589
REMARK  8 active torsions:
REMARK  status: ('A' for Active; 'I' for Inactive)
REMARK    1  A    between atoms: C_1  and  C_2
REMARK    2  A    between atoms: C_7  and  C_8
REMARK    3  A    between atoms: C_8  and  S_9
REMARK    4  A    between atoms: S_9  and  C_10
REMARK    5  A    between atoms: C_13  and  C_19
REMARK    6  A    between atoms: N_14  and  C_15
REMARK    7  A    between atoms: C_15  and  C_16
REMARK    8  A    between atoms: C_16  and  C_18
REMARK                            x       y       z     vdW  Elec       q    Type
REMARK                         _______ _______ _______ _____ _____    ______ ____
ROOT
ATOM      1  C   UNL     1      -1.305   1.127   4.574  0.00  0.00    +0.192 A 
ATOM      2  N   UNL     1      -0.262   1.848   4.925  0.00  0.00    -0.122 NA
ATOM      3  N   UNL     1      -0.479   2.414   6.058  0.00  0.00    -0.128 NA
ATOM      4  C   UNL     1      -1.668   2.082   6.504  0.00  0.00    +0.165 A 
ATOM      5  N   UNL     1      -2.233   1.248   5.567  0.00  0.00    -0.298 N 
ENDROOT
BRANCH   4   6
ATOM      6  C   UNL     1      -2.284   2.522   7.774  0.00  0.00    +0.022 A 
ATOM      7  C   UNL     1      -3.665   2.739   7.867  0.00  0.00    +0.031 A 
ATOM      8  C   UNL     1      -4.198   3.143   9.072  0.00  0.00    +0.111 A 
ATOM      9  N   UNL     1      -3.425   3.337  10.124  0.00  0.00    -0.263 NA
ATOM     10  C   UNL     1      -2.120   3.149  10.079  0.00  0.00    +0.111 A 
ATOM     11  C   UNL     1      -1.503   2.739   8.915  0.00  0.00    +0.031 A 
ENDBRANCH   4   6
BRANCH   1  12
ATOM     12  S   UNL     1      -1.470   0.176   3.099  0.00  0.00    -0.081 S 
BRANCH  12  13
ATOM     13  C   UNL     1       0.129   0.519   2.324  0.00  0.00    +0.112 C 
BRANCH  13  20
ATOM     14  C   UNL     1      -0.776   1.799  -0.103  0.00  0.00    +0.044 C 
ATOM     15  C   UNL     1      -0.216   0.400  -0.152  0.00  0.00    -0.046 A 
ATOM     16  C   UNL     1      -0.141  -0.272  -1.357  0.00  0.00    +0.003 A 
ATOM     17  C   UNL     1       0.377  -1.553  -1.403  0.00  0.00    +0.000 A 
ATOM     18  C   UNL     1       0.810  -2.165  -0.242  0.00  0.00    +0.000 A 
ATOM     19  C   UNL     1       0.730  -1.495   0.964  0.00  0.00    +0.005 A 
ATOM     20  C   UNL     1       0.217  -0.212   1.009  0.00  0.00    -0.034 A 
ENDBRANCH  13  20
ENDBRANCH  12  13
ENDBRANCH   1  12
BRANCH   5  21
ATOM     21  C   UNL     1      -3.556   0.621   5.623  0.00  0.00    +0.155 C 
BRANCH  21  22
ATOM     22  C   UNL     1      -3.471  -0.663   6.407  0.00  0.00    -0.060 C 
ATOM     23  C   UNL     1      -3.759  -0.670   7.685  0.00  0.00    +0.009 C 
ATOM     24  C   UNL     1      -3.055  -1.939   5.721  0.00  0.00    +0.040 C 
ENDBRANCH  21  22
ENDBRANCH   5  21
TORSDOF 6
