REMARK  Name = ZINC12637611
REMARK  9 active torsions:
REMARK  status: ('A' for Active; 'I' for Inactive)
REMARK    1  A    between atoms: C_1  and  C_2
REMARK    2  A    between atoms: C_7  and  C_15
REMARK    3  A    between atoms: C_13  and  C_14
REMARK    4  A    between atoms: C_15  and  C_17
REMARK    5  A    between atoms: C_15  and  N_66
REMARK    6  A    between atoms: N_21  and  C_22
REMARK    7  A    between atoms: C_22  and  C_23
REMARK    8  A    between atoms: C_23  and  C_24
REMARK    9  A    between atoms: C_32  and  C_35
REMARK                            x       y       z     vdW  Elec       q    Type
REMARK                         _______ _______ _______ _____ _____    ______ ____
ROOT
ATOM      1  C   UNL     1       6.968   0.364  -1.521  0.00  0.00    +0.039 C 
ENDROOT
BRANCH   1   8
ATOM      2  C   UNL     1       9.463   0.638   6.050  0.00  0.00    +0.044 C 
ATOM      3  C   UNL     1       8.925   0.368   4.668  0.00  0.00    -0.046 A 
ATOM      4  C   UNL     1       8.367  -0.870   4.378  0.00  0.00    +0.004 A 
ATOM      5  C   UNL     1       7.874  -1.136   3.133  0.00  0.00    +0.010 A 
ATOM      6  C   UNL     1       7.932  -0.152   2.140  0.00  0.00    -0.001 A 
ATOM      7  C   UNL     1       7.407  -0.401   0.796  0.00  0.00    +0.017 A 
ATOM      8  C   UNL     1       7.494   0.589  -0.127  0.00  0.00    +0.011 A 
ATOM      9  C   UNL     1       8.070   1.831   0.215  0.00  0.00    +0.251 A 
ATOM     10  O   UNL     1       8.135   2.709  -0.628  0.00  0.00    -0.268 OA
ATOM     11  N   UNL     1       8.551   2.070   1.448  0.00  0.00    -0.322 N 
ATOM     12  H   UNL     1       8.940   2.936   1.650  0.00  0.00    +0.169 HD
ATOM     13  C   UNL     1       8.497   1.104   2.430  0.00  0.00    +0.052 A 
ATOM     14  C   UNL     1       8.993   1.351   3.706  0.00  0.00    -0.024 A 
ATOM     15  C   UNL     1       9.602   2.690   4.034  0.00  0.00    +0.046 C 
ENDBRANCH   1   8
BRANCH   1  22
ATOM     16  C   UNL     1       9.210  -0.306  -2.139  0.00  0.00    -0.077 C 
ATOM     17  C   UNL     1      10.376   0.004  -3.081  0.00  0.00    -0.015 C 
ATOM     18  C   UNL     1       9.944  -0.265  -4.526  0.00  0.00    -0.018 C 
ATOM     19  C   UNL     1       8.714   0.587  -4.850  0.00  0.00    -0.015 C 
ATOM     20  C   UNL     1       7.597   0.260  -3.857  0.00  0.00    -0.077 C 
ATOM     21  C   UNL     1      11.085   0.101  -5.477  0.00  0.00    +0.007 C 
ATOM     22  N   UNL     1       8.067   0.564  -2.488  0.00  0.00    +0.389 N 
ATOM     23  H   UNL     1       8.370   1.544  -2.450  0.00  0.00    -0.080 HD
ENDBRANCH   1  22
BRANCH   1  24
ATOM     24  C   UNL     1       6.414  -1.033  -1.630  0.00  0.00    +0.142 A 
ATOM     25  N   UNL     1       7.104  -2.144  -1.712  0.00  0.00    -0.115 NA
ATOM     26  N   UNL     1       6.272  -3.124  -1.795  0.00  0.00    -0.023 NA
ATOM     27  N   UNL     1       5.069  -2.668  -1.762  0.00  0.00    -0.044 NA
ATOM     28  N   UNL     1       5.114  -1.383  -1.657  0.00  0.00    -0.230 N 
BRANCH  28  29
ATOM     29  C   UNL     1       3.967  -0.474  -1.587  0.00  0.00    +0.152 C 
BRANCH  29  30
ATOM     30  C   UNL     1       3.563  -0.274  -0.125  0.00  0.00    +0.058 C 
BRANCH  30  31
ATOM     31  C   UNL     1       2.383   0.660  -0.053  0.00  0.00    -0.046 A 
ATOM     32  C   UNL     1       1.097   0.155  -0.099  0.00  0.00    +0.004 A 
ATOM     33  C   UNL     1       0.015   1.013  -0.033  0.00  0.00    +0.000 A 
ATOM     34  C   UNL     1       0.218   2.376   0.077  0.00  0.00    +0.000 A 
ATOM     35  C   UNL     1       1.504   2.881   0.123  0.00  0.00    +0.000 A 
ATOM     36  C   UNL     1       2.587   2.023   0.058  0.00  0.00    +0.004 A 
ENDBRANCH  30  31
ENDBRANCH  29  30
ENDBRANCH  28  29
ENDBRANCH   1  24
TORSDOF 6
