REMARK  Name = ZINC35742880
REMARK  12 active torsions:
REMARK  status: ('A' for Active; 'I' for Inactive)
REMARK    1  A    between atoms: C_1  and  C_2
REMARK    2  A    between atoms: C_2  and  O_3
REMARK    3  A    between atoms: O_3  and  C_4
REMARK    4  A    between atoms: C_6  and  C_27
REMARK    5  A    between atoms: N_7  and  C_9
REMARK    6  A    between atoms: C_12  and  N_15
REMARK    7  A    between atoms: N_15  and  C_16
REMARK    8  A    between atoms: C_16  and  C_17
REMARK    9  A    between atoms: C_17  and  C_19
REMARK   10  A    between atoms: C_17  and  O_26
REMARK   11  A    between atoms: C_19  and  C_20
REMARK   12  A    between atoms: C_30  and  C_33
REMARK                            x       y       z     vdW  Elec       q    Type
REMARK                         _______ _______ _______ _____ _____    ______ ____
ROOT
ATOM      1  C   UNL     1      -1.367  -5.513  -0.146  0.00  0.00    +0.068 A 
ATOM      2  C   UNL     1      -2.233  -6.354   0.540  0.00  0.00    +0.029 A 
ATOM      3  C   UNL     1      -2.074  -7.723   0.460  0.00  0.00    +0.025 A 
ATOM      4  C   UNL     1      -1.047  -8.259  -0.308  0.00  0.00    +0.027 A 
ATOM      5  C   UNL     1      -0.181  -7.418  -0.995  0.00  0.00    +0.025 A 
ATOM      6  C   UNL     1      -0.344  -6.049  -0.918  0.00  0.00    +0.029 A 
ENDROOT
BRANCH   1  10
ATOM      7  C   UNL     1      -1.675  -2.014  -0.614  0.00  0.00    +0.337 A 
ATOM      8  N   UNL     1      -1.856  -2.130   0.702  0.00  0.00    -0.174 NA
ATOM      9  C   UNL     1      -1.771  -3.398   1.053  0.00  0.00    +0.167 A 
ATOM     10  N   UNL     1      -1.528  -4.123  -0.065  0.00  0.00    -0.209 N 
ATOM     11  N   UNL     1      -1.477  -3.206  -1.127  0.00  0.00    -0.108 NA
BRANCH   9  12
ATOM     12  C   UNL     1      -1.915  -3.934   2.424  0.00  0.00    +0.019 A 
ATOM     13  C   UNL     1      -1.206  -5.071   2.810  0.00  0.00    +0.012 A 
ATOM     14  C   UNL     1      -1.345  -5.566   4.091  0.00  0.00    +0.013 A 
ATOM     15  C   UNL     1      -2.186  -4.936   4.991  0.00  0.00    +0.055 A 
ATOM     16  C   UNL     1      -2.893  -3.808   4.614  0.00  0.00    +0.013 A 
ATOM     17  C   UNL     1      -2.757  -3.300   3.339  0.00  0.00    +0.012 A 
BRANCH  15  18
ATOM     18  C   UNL     1      -2.333  -5.482   6.388  0.00  0.00    +0.417 C 
ATOM     19  F   UNL     1      -1.379  -4.891   7.223  0.00  0.00    -0.166 F 
ATOM     20  F   UNL     1      -3.615  -5.194   6.869  0.00  0.00    -0.166 F 
ATOM     21  F   UNL     1      -2.142  -6.868   6.370  0.00  0.00    -0.166 F 
ENDBRANCH  15  18
ENDBRANCH   9  12
BRANCH   7  22
ATOM     22  O   UNL     1      -1.698  -0.850  -1.313  0.00  0.00    -0.462 OA
BRANCH  22  24
ATOM     23  C   UNL     1      -1.547   0.466  -3.334  0.00  0.00    +0.048 C 
ATOM     24  C   UNL     1      -1.487  -0.936  -2.724  0.00  0.00    +0.229 C 
ENDBRANCH  22  24
ENDBRANCH   7  22
ENDBRANCH   1  10
BRANCH   4  25
ATOM     25  N   UNL     1      -0.886  -9.645  -0.389  0.00  0.00    -0.341 N 
ATOM     26  H   UNL     1      -1.490 -10.233   0.091  0.00  0.00    +0.146 HD
BRANCH  25  27
ATOM     27  C   UNL     1       0.196 -10.211  -1.199  0.00  0.00    +0.133 C 
BRANCH  27  28
ATOM     28  C   UNL     1       0.150 -11.738  -1.117  0.00  0.00    +0.136 C 
BRANCH  28  29
ATOM     29  O   UNL     1       0.309 -12.147   0.243  0.00  0.00    -0.390 OA
ATOM     30  H   UNL     1       1.142 -11.865   0.644  0.00  0.00    +0.210 HD
ENDBRANCH  28  29
BRANCH  28  31
ATOM     31  C   UNL     1       1.280 -12.328  -1.963  0.00  0.00    +0.068 C 
BRANCH  31  32
ATOM     32  C   UNL     1       1.161 -13.830  -1.982  0.00  0.00    -0.045 A 
ATOM     33  C   UNL     1       1.795 -14.586  -1.014  0.00  0.00    +0.004 A 
ATOM     34  C   UNL     1       1.686 -15.964  -1.032  0.00  0.00    +0.000 A 
ATOM     35  C   UNL     1       0.943 -16.586  -2.017  0.00  0.00    +0.000 A 
ATOM     36  C   UNL     1       0.308 -15.830  -2.985  0.00  0.00    +0.000 A 
ATOM     37  C   UNL     1       0.414 -14.452  -2.965  0.00  0.00    +0.004 A 
ENDBRANCH  31  32
ENDBRANCH  28  31
ENDBRANCH  27  28
ENDBRANCH  25  27
ENDBRANCH   4  25
TORSDOF 11
