REMARK  Name = ZINC36708627
REMARK  7 active torsions:
REMARK  status: ('A' for Active; 'I' for Inactive)
REMARK    1  A    between atoms: C_1  and  C_2
REMARK    2  A    between atoms: C_5  and  C_25
REMARK    3  A    between atoms: C_10  and  C_12
REMARK    4  A    between atoms: C_13  and  C_14
REMARK    5  A    between atoms: C_17  and  N_20
REMARK    6  A    between atoms: N_20  and  S_21
REMARK    7  A    between atoms: S_21  and  C_24
REMARK                            x       y       z     vdW  Elec       q    Type
REMARK                         _______ _______ _______ _____ _____    ______ ____
ROOT
ATOM      1  C   UNL     1       2.993  -1.791   1.341  0.00  0.00    +0.068 C 
ATOM      2  C   UNL     1       4.059  -2.619   1.293  0.00  0.00    +0.013 C 
ENDROOT
BRANCH   1  10
ATOM      3  C   UNL     1       0.098   2.071   0.194  0.00  0.00    +0.009 C 
ATOM      4  C   UNL     1       0.037   0.544   0.114  0.00  0.00    +0.004 C 
ATOM      5  C   UNL     1      -1.425   0.091   0.113  0.00  0.00    +0.009 C 
ATOM      6  C   UNL     1      -1.488  -1.434  -0.001  0.00  0.00    +0.004 C 
ATOM      7  C   UNL     1      -0.787  -2.062   1.208  0.00  0.00    +0.111 C 
ATOM      8  N   UNL     1       0.575  -1.519   1.300  0.00  0.00    -0.297 N 
ATOM      9  C   UNL     1       0.755  -0.061   1.324  0.00  0.00    +0.111 C 
ATOM     10  C   UNL     1       1.640  -2.343   1.361  0.00  0.00    +0.239 C 
ATOM     11  O   UNL     1       1.474  -3.547   1.433  0.00  0.00    -0.271 OA
ATOM     12  C   UNL     1      -0.787  -1.879  -1.286  0.00  0.00    +0.009 C 
ENDBRANCH   1  10
BRANCH   2  13
ATOM     13  C   UNL     1       5.420  -2.064   1.273  0.00  0.00    -0.025 A 
ATOM     14  C   UNL     1       5.613  -0.678   1.310  0.00  0.00    +0.010 A 
ATOM     15  C   UNL     1       6.884  -0.164   1.291  0.00  0.00    +0.025 A 
ATOM     16  C   UNL     1       7.982  -1.019   1.236  0.00  0.00    +0.048 A 
ATOM     17  C   UNL     1       7.794  -2.398   1.199  0.00  0.00    +0.025 A 
ATOM     18  C   UNL     1       6.526  -2.920   1.223  0.00  0.00    +0.010 A 
BRANCH  16  19
ATOM     19  N   UNL     1       9.270  -0.494   1.218  0.00  0.00    -0.221 N 
ATOM     20  H   UNL     1       9.779  -0.486   0.392  0.00  0.00    +0.173 HD
BRANCH  19  21
ATOM     21  S   UNL     1       9.935   0.118   2.605  0.00  0.00    +0.040 S 
ATOM     22  O   UNL     1      11.234   0.549   2.225  0.00  0.00    -0.155 OA
ATOM     23  O   UNL     1       8.975   1.048   3.088  0.00  0.00    -0.155 OA
ATOM     24  C   UNL     1      10.052  -1.300   3.731  0.00  0.00    +0.218 C 
ENDBRANCH  19  21
ENDBRANCH  16  19
ENDBRANCH   2  13
TORSDOF 4
