REMARK  Name = ZINC15952304
REMARK  11 active torsions:
REMARK  status: ('A' for Active; 'I' for Inactive)
REMARK    1  A    between atoms: C_1  and  O_2
REMARK    2  A    between atoms: O_2  and  C_3
REMARK    3  A    between atoms: C_5  and  C_13
REMARK    4  A    between atoms: C_7  and  O_11
REMARK    5  A    between atoms: C_8  and  O_9
REMARK    6  A    between atoms: O_9  and  C_10
REMARK    7  A    between atoms: O_11  and  C_12
REMARK    8  A    between atoms: C_16  and  C_30
REMARK    9  A    between atoms: N_23  and  C_24
REMARK   10  A    between atoms: C_24  and  C_25
REMARK   11  A    between atoms: C_35  and  O_36
REMARK                            x       y       z     vdW  Elec       q    Type
REMARK                         _______ _______ _______ _____ _____    ______ ____
ROOT
ATOM      1  C   UNL     1       2.463  -0.054  -3.989  0.00  0.00    +0.142 C 
ATOM      2  C   UNL     1       3.901   0.371  -3.879  0.00  0.00    +0.035 A 
ATOM      3  C   UNL     1       4.880   1.038  -3.135  0.00  0.00    +0.102 A 
ATOM      4  N   UNL     1       6.014   0.947  -3.802  0.00  0.00    -0.173 NA
ATOM      5  N   UNL     1       5.847   0.288  -4.894  0.00  0.00    -0.272 N 
ATOM      6  H   UNL     1       6.544   0.098  -5.541  0.00  0.00    +0.189 HD
ATOM      7  C   UNL     1       4.544  -0.104  -5.006  0.00  0.00    +0.126 A 
ATOM      8  C   UNL     1       3.566  -0.818  -5.835  0.00  0.00    +0.266 C 
ATOM      9  O   UNL     1       3.816  -1.355  -6.897  0.00  0.00    -0.268 OA
ATOM     10  N   UNL     1       2.352  -0.795  -5.253  0.00  0.00    -0.278 N 
ENDROOT
BRANCH   1  13
ATOM     11  C   UNL     1       2.303  -3.038  -1.675  0.00  0.00    +0.165 A 
ATOM     12  C   UNL     1       2.638  -2.214  -2.739  0.00  0.00    +0.055 A 
ATOM     13  C   UNL     1       2.095  -0.946  -2.832  0.00  0.00    -0.015 A 
ATOM     14  C   UNL     1       1.216  -0.494  -1.865  0.00  0.00    +0.055 A 
ATOM     15  C   UNL     1       0.876  -1.312  -0.798  0.00  0.00    +0.165 A 
ATOM     16  C   UNL     1       1.415  -2.589  -0.704  0.00  0.00    +0.204 A 
BRANCH  11  18
ATOM     17  C   UNL     1       3.743  -4.679  -2.618  0.00  0.00    +0.277 C 
ATOM     18  O   UNL     1       2.837  -4.285  -1.584  0.00  0.00    -0.491 OA
ENDBRANCH  11  18
BRANCH  16  19
ATOM     19  O   UNL     1       1.079  -3.397   0.339  0.00  0.00    -0.488 OA
ATOM     20  C   UNL     1       1.893  -3.315   1.511  0.00  0.00    +0.277 C 
ENDBRANCH  16  19
BRANCH  15  21
ATOM     21  O   UNL     1       0.011  -0.866   0.152  0.00  0.00    -0.491 OA
ATOM     22  C   UNL     1      -0.508   0.455  -0.011  0.00  0.00    +0.277 C 
ENDBRANCH  15  21
ENDBRANCH   1  13
BRANCH   3  23
ATOM     23  C   UNL     1       4.680   1.722  -1.833  0.00  0.00    +0.044 A 
ATOM     24  C   UNL     1       3.400   1.845  -1.297  0.00  0.00    +0.014 A 
ATOM     25  C   UNL     1       3.219   2.482  -0.086  0.00  0.00    +0.001 A 
ATOM     26  C   UNL     1       4.305   3.001   0.597  0.00  0.00    +0.004 A 
ATOM     27  C   UNL     1       5.578   2.885   0.074  0.00  0.00    +0.046 A 
ATOM     28  C   UNL     1       5.775   2.242  -1.137  0.00  0.00    +0.126 A 
BRANCH  28  29
ATOM     29  O   UNL     1       7.028   2.121  -1.650  0.00  0.00    -0.506 OA
ATOM     30  H   UNL     1       7.292   2.857  -2.219  0.00  0.00    +0.292 HD
ENDBRANCH  28  29
ENDBRANCH   3  23
BRANCH  10  31
ATOM     31  C   UNL     1       1.130  -1.403  -5.787  0.00  0.00    +0.183 C 
BRANCH  31  32
ATOM     32  C   UNL     1       0.407  -0.403  -6.651  0.00  0.00    +0.122 A 
ATOM     33  C   UNL     1       0.581  -0.235  -7.974  0.00  0.00    +0.046 A 
ATOM     34  C   UNL     1      -0.293   0.801  -8.374  0.00  0.00    +0.041 A 
ATOM     35  C   UNL     1      -0.949   1.206  -7.272  0.00  0.00    +0.195 A 
ATOM     36  O   UNL     1      -0.525   0.469  -6.232  0.00  0.00    -0.466 OA
ENDBRANCH  31  32
ENDBRANCH  10  31
TORSDOF 8
