REMARK  Name = ZINC07822497
REMARK  10 active torsions:
REMARK  status: ('A' for Active; 'I' for Inactive)
REMARK    1  A    between atoms: C_1  and  C_2
REMARK    2  A    between atoms: C_3  and  C_27
REMARK    3  A    between atoms: C_4  and  C_26
REMARK    4  A    between atoms: C_7  and  C_8
REMARK    5  A    between atoms: C_8  and  C_10
REMARK    6  A    between atoms: C_10  and  C_12
REMARK    7  A    between atoms: C_10  and  O_13
REMARK    8  A    between atoms: O_13  and  C_14
REMARK    9  A    between atoms: C_14  and  C_16
REMARK   10  A    between atoms: C_27  and  C_29
REMARK                            x       y       z     vdW  Elec       q    Type
REMARK                         _______ _______ _______ _____ _____    ______ ____
ROOT
ATOM      1  C   UNL     1      -0.443   1.378   0.934  0.00  0.00    +0.246 C 
ATOM      2  C   UNL     1       0.381   0.739  -0.185  0.00  0.00    +0.061 C 
ENDROOT
BRANCH   1   3
ATOM      3  C   UNL     1       0.126   0.974   2.270  0.00  0.00    +0.219 C 
ATOM      4  O   UNL     1       0.774   1.770   2.919  0.00  0.00    -0.287 OA
BRANCH   3  11
ATOM      5  C   UNL     1       1.192  -0.091   4.987  0.00  0.00    +0.047 C 
ATOM      6  C   UNL     1       0.365  -0.830   3.967  0.00  0.00    -0.012 A 
ATOM      7  C   UNL     1      -0.087  -2.166   4.056  0.00  0.00    +0.041 A 
ATOM      8  C   UNL     1      -0.808  -2.430   2.901  0.00  0.00    +0.024 A 
ATOM      9  N   UNL     1      -0.815  -1.328   2.138  0.00  0.00    -0.355 N 
ATOM     10  H   UNL     1      -1.254  -1.244   1.277  0.00  0.00    +0.166 HD
ATOM     11  C   UNL     1      -0.095  -0.333   2.768  0.00  0.00    +0.090 A 
ATOM     12  C   UNL     1      -1.480  -3.736   2.563  0.00  0.00    +0.064 C 
BRANCH   7  13
ATOM     13  C   UNL     1       0.160  -3.098   5.161  0.00  0.00    +0.162 C 
ATOM     14  O   UNL     1       1.144  -3.807   5.149  0.00  0.00    -0.292 OA
ATOM     15  C   UNL     1      -0.809  -3.174   6.313  0.00  0.00    +0.091 C 
ENDBRANCH   7  13
ENDBRANCH   3  11
ENDBRANCH   1   3
BRANCH   1  16
ATOM     16  O   UNL     1      -0.395   2.824   0.805  0.00  0.00    -0.450 OA
BRANCH  16  17
ATOM     17  C   UNL     1      -1.350   3.402   0.051  0.00  0.00    +0.340 C 
ATOM     18  O   UNL     1      -2.199   2.718  -0.484  0.00  0.00    -0.245 OA
BRANCH  17  19
ATOM     19  C   UNL     1      -1.364   4.867  -0.125  0.00  0.00    +0.064 A 
ATOM     20  C   UNL     1      -2.351   5.468  -0.912  0.00  0.00    +0.064 A 
ATOM     21  C   UNL     1      -2.364   6.840  -1.071  0.00  0.00    +0.168 A 
ATOM     22  C   UNL     1      -1.387   7.623  -0.455  0.00  0.00    +0.184 A 
ATOM     23  C   UNL     1      -0.404   7.024   0.323  0.00  0.00    +0.087 A 
ATOM     24  C   UNL     1      -0.389   5.655   0.489  0.00  0.00    +0.039 A 
ATOM     25 CL   UNL     1       0.809   8.002   1.088  0.00  0.00    -0.080 Cl
ATOM     26  O   UNL     1      -1.615   8.930  -0.769  0.00  0.00    -0.451 OA
ATOM     27  C   UNL     1      -2.974   8.981  -1.243  0.00  0.00    +0.466 C 
ATOM     28  O   UNL     1      -3.203   7.660  -1.770  0.00  0.00    -0.453 OA
ENDBRANCH  17  19
ENDBRANCH  16  17
ENDBRANCH   1  16
TORSDOF 6
