REMARK  Name = ZINC39379444
REMARK  10 active torsions:
REMARK  status: ('A' for Active; 'I' for Inactive)
REMARK    1  A    between atoms: C_1  and  S_2
REMARK    2  A    between atoms: S_2  and  C_3
REMARK    3  A    between atoms: C_3  and  C_4
REMARK    4  A    between atoms: C_4  and  C_5
REMARK    5  A    between atoms: C_5  and  N_6
REMARK    6  A    between atoms: C_7  and  C_9
REMARK    7  A    between atoms: C_9  and  C_10
REMARK    8  A    between atoms: N_17  and  C_18
REMARK    9  A    between atoms: C_18  and  C_19
REMARK   10  A    between atoms: C_22  and  C_25
REMARK                            x       y       z     vdW  Elec       q    Type
REMARK                         _______ _______ _______ _____ _____    ______ ____
ROOT
ATOM      1  C   UNL     1       3.361  -6.248  -5.577  0.00  0.00    +0.028 C 
ATOM      2  C   UNL     1       3.459  -7.747  -5.600  0.00  0.00    +0.200 C 
ATOM      3  O   UNL     1       3.750  -8.327  -4.575  0.00  0.00    -0.278 OA
ATOM      4  N   UNL     1       3.239  -8.468  -6.705  0.00  0.00    -0.318 N 
ATOM      5  C   UNL     1       2.857  -7.862  -7.978  0.00  0.00    +0.085 C 
ATOM      6  C   UNL     1       3.178  -6.366  -7.958  0.00  0.00    -0.058 C 
ATOM      7  N   UNL     1       2.601  -5.776  -6.741  0.00  0.00    +0.391 N 
ATOM      8  H   UNL     1       3.337  -9.432  -6.659  0.00  0.00    +0.149 HD
ATOM      9  H   UNL     1       1.636  -6.058  -6.651  0.00  0.00    -0.080 HD
ENDROOT
BRANCH   1  10
ATOM     10  C   UNL     1       2.653  -5.806  -4.295  0.00  0.00    +0.089 C 
BRANCH  10  12
ATOM     11  N   UNL     1       0.445  -6.133  -3.228  0.00  0.00    -0.315 N 
ATOM     12  C   UNL     1       1.299  -6.464  -4.217  0.00  0.00    +0.212 C 
ATOM     13  O   UNL     1       0.978  -7.292  -5.043  0.00  0.00    -0.276 OA
ATOM     14  H   UNL     1       0.701  -5.471  -2.567  0.00  0.00    +0.149 HD
BRANCH  11  15
ATOM     15  C   UNL     1      -0.871  -6.772  -3.152  0.00  0.00    +0.105 C 
BRANCH  15  16
ATOM     16  C   UNL     1      -1.637  -6.221  -1.948  0.00  0.00    +0.029 C 
BRANCH  16  17
ATOM     17  C   UNL     1      -3.011  -6.889  -1.868  0.00  0.00    +0.070 C 
BRANCH  17  19
ATOM     18  C   UNL     1      -5.504  -7.117  -0.487  0.00  0.00    +0.084 C 
ATOM     19  S   UNL     1      -3.919  -6.236  -0.440  0.00  0.00    -0.164 S 
ENDBRANCH  17  19
ENDBRANCH  16  17
ENDBRANCH  15  16
ENDBRANCH  11  15
ENDBRANCH  10  12
ENDBRANCH   1  10
BRANCH   7  20
ATOM     20  C   UNL     1       2.683  -4.312  -6.820  0.00  0.00    -0.042 C 
BRANCH  20  21
ATOM     21  C   UNL     1       1.781  -3.818  -7.922  0.00  0.00    -0.064 A 
ATOM     22  C   UNL     1       2.271  -3.690  -9.209  0.00  0.00    +0.002 A 
ATOM     23  C   UNL     1       1.450  -3.238 -10.222  0.00  0.00    +0.009 A 
ATOM     24  C   UNL     1       0.124  -2.910  -9.946  0.00  0.00    -0.018 A 
ATOM     25  C   UNL     1      -0.365  -3.041  -8.648  0.00  0.00    +0.009 A 
ATOM     26  C   UNL     1       0.464  -3.499  -7.644  0.00  0.00    +0.002 A 
BRANCH  24  27
ATOM     27  C   UNL     1      -0.764  -2.423 -11.030  0.00  0.00    -0.018 A 
ATOM     28  C   UNL     1      -0.276  -2.297 -12.330  0.00  0.00    +0.008 A 
ATOM     29  C   UNL     1      -1.107  -1.845 -13.335  0.00  0.00    +0.001 A 
ATOM     30  C   UNL     1      -2.421  -1.515 -13.054  0.00  0.00    +0.000 A 
ATOM     31  C   UNL     1      -2.909  -1.637 -11.766  0.00  0.00    +0.001 A 
ATOM     32  C   UNL     1      -2.090  -2.095 -10.755  0.00  0.00    +0.008 A 
ENDBRANCH  24  27
ENDBRANCH  20  21
ENDBRANCH   7  20
TORSDOF 9
