REMARK  Name = ZINC08088423
REMARK  7 active torsions:
REMARK  status: ('A' for Active; 'I' for Inactive)
REMARK    1  A    between atoms: C_1  and  C_2
REMARK    2  A    between atoms: C_2  and  C_4
REMARK    3  A    between atoms: C_2  and  N_11
REMARK    4  A    between atoms: C_12  and  C_14
REMARK    5  A    between atoms: C_14  and  N_15
REMARK    6  A    between atoms: C_16  and  C_18
REMARK    7  A    between atoms: C_22  and  N_24
REMARK                            x       y       z     vdW  Elec       q    Type
REMARK                         _______ _______ _______ _____ _____    ______ ____
ROOT
ATOM      1  C   UNL     1       1.068   7.478   0.030  0.00  0.00    +0.200 C 
ENDROOT
BRANCH   1   3
ATOM      2  N   UNL     1       2.710   9.328   0.024  0.00  0.00    -0.307 N 
ATOM      3  C   UNL     1       2.482   7.999   0.019  0.00  0.00    +0.231 C 
ATOM      4  O   UNL     1       3.414   7.224   0.006  0.00  0.00    -0.274 OA
ATOM      5  H   UNL     1       1.964   9.948   0.034  0.00  0.00    +0.149 HD
BRANCH   2   7
ATOM      6  C   UNL     1       4.620   9.886   1.446  0.00  0.00    +0.033 C 
ATOM      7  C   UNL     1       4.084   9.835   0.013  0.00  0.00    +0.101 C 
BRANCH   7   8
ATOM      8  C   UNL     1       4.104  11.220  -0.580  0.00  0.00    -0.014 A 
ATOM      9  C   UNL     1       2.969  12.007  -0.535  0.00  0.00    +0.006 A 
ATOM     10  C   UNL     1       2.988  13.278  -1.080  0.00  0.00    +0.000 A 
ATOM     11  C   UNL     1       4.141  13.761  -1.669  0.00  0.00    +0.001 A 
ATOM     12  C   UNL     1       5.277  12.975  -1.714  0.00  0.00    +0.015 A 
ATOM     13  C   UNL     1       5.260  11.705  -1.165  0.00  0.00    +0.023 A 
ATOM     14 BR   UNL     1       6.815  10.630  -1.220  0.00  0.00    -0.050 Br
ENDBRANCH   7   8
ENDBRANCH   2   7
ENDBRANCH   1   3
BRANCH   1  15
ATOM     15  N   UNL     1       1.088   6.013   0.022  0.00  0.00    -0.303 N 
ATOM     16  C   UNL     1      -0.070   5.323   0.029  0.00  0.00    +0.245 C 
ATOM     17  O   UNL     1      -1.131   5.916   0.042  0.00  0.00    -0.270 OA
ATOM     18  H   UNL     1       1.934   5.539   0.012  0.00  0.00    +0.150 HD
BRANCH  16  19
ATOM     19  C   UNL     1      -0.050   3.845   0.022  0.00  0.00    +0.039 A 
ATOM     20  C   UNL     1       1.166   3.160   0.007  0.00  0.00    +0.013 A 
ATOM     21  C   UNL     1       1.178   1.781   0.000  0.00  0.00    +0.003 A 
ATOM     22  C   UNL     1      -0.013   1.076   0.008  0.00  0.00    +0.033 A 
ATOM     23  C   UNL     1      -1.222   1.748   0.017  0.00  0.00    +0.127 A 
ATOM     24  C   UNL     1      -1.247   3.128   0.030  0.00  0.00    +0.045 A 
BRANCH  23  25
ATOM     25  N   UNL     1      -2.490   0.986   0.020  0.00  0.00    +0.056 N 
ATOM     26  O   UNL     1      -2.469  -0.232   0.013  0.00  0.00    -0.126 OA
ATOM     27  O   UNL     1      -3.556   1.576   0.028  0.00  0.00    -0.126 OA
ENDBRANCH  23  25
ENDBRANCH  16  19
ENDBRANCH   1  15
TORSDOF 6
