REMARK  Name = ZINC55108846
REMARK  8 active torsions:
REMARK  status: ('A' for Active; 'I' for Inactive)
REMARK    1  A    between atoms: C_1  and  C_2
REMARK    2  A    between atoms: C_10  and  C_11
REMARK    3  A    between atoms: C_11  and  N_12
REMARK    4  A    between atoms: C_13  and  C_15
REMARK    5  A    between atoms: C_16  and  C_24
REMARK    6  A    between atoms: C_17  and  C_23
REMARK    7  A    between atoms: C_19  and  C_22
REMARK    8  A    between atoms: C_20  and  C_21
REMARK                            x       y       z     vdW  Elec       q    Type
REMARK                         _______ _______ _______ _____ _____    ______ ____
ROOT
ATOM      1  N   UNL     1      -1.302  -4.465   3.013  0.00  0.00    -0.306 N 
ATOM      2  C   UNL     1      -1.529  -5.733   3.411  0.00  0.00    +0.245 C 
ATOM      3  O   UNL     1      -0.598  -6.444   3.733  0.00  0.00    -0.270 OA
ATOM      4  H   UNL     1      -2.045  -3.897   2.756  0.00  0.00    +0.149 HD
ENDROOT
BRANCH   2   5
ATOM      5  C   UNL     1      -2.911  -6.257   3.457  0.00  0.00    +0.043 A 
ATOM      6  C   UNL     1      -3.458  -6.889   2.340  0.00  0.00    -0.035 A 
ATOM      7  C   UNL     1      -4.748  -7.376   2.389  0.00  0.00    -0.047 A 
ATOM      8  C   UNL     1      -5.498  -7.239   3.543  0.00  0.00    +0.007 A 
ATOM      9  C   UNL     1      -4.962  -6.614   4.655  0.00  0.00    -0.047 A 
ATOM     10  C   UNL     1      -3.671  -6.127   4.620  0.00  0.00    -0.035 A 
ATOM     11  C   UNL     1      -3.086  -5.452   5.834  0.00  0.00    +0.045 C 
ATOM     12  C   UNL     1      -5.787  -6.469   5.907  0.00  0.00    +0.044 C 
ATOM     13  C   UNL     1      -5.341  -8.059   1.183  0.00  0.00    +0.044 C 
ATOM     14  C   UNL     1      -2.643  -7.038   1.081  0.00  0.00    +0.045 C 
ENDBRANCH   2   5
BRANCH   1  15
ATOM     15  C   UNL     1       0.067  -3.946   2.967  0.00  0.00    +0.160 C 
BRANCH  15  25
ATOM     16  C   UNL     1      -0.018   1.503   0.010  0.00  0.00    +0.047 C 
ATOM     17  C   UNL     1       0.002  -0.004   0.002  0.00  0.00    -0.008 A 
ATOM     18  C   UNL     1       0.006  -0.685  -1.176  0.00  0.00    +0.008 A 
ATOM     19  C   UNL     1       0.025  -2.089  -1.168  0.00  0.00    +0.018 A 
ATOM     20  C   UNL     1       0.039  -2.763   0.001  0.00  0.00    +0.093 A 
ATOM     21  N   UNL     1       0.035  -2.093   1.190  0.00  0.00    -0.302 N 
ATOM     22  C   UNL     1       0.023  -0.722   1.214  0.00  0.00    +0.141 A 
ATOM     23  N   UNL     1       0.030  -0.334   2.482  0.00  0.00    -0.236 NA
ATOM     24  C   UNL     1       0.051  -1.412   3.270  0.00  0.00    +0.136 A 
ATOM     25  C   UNL     1       0.046  -2.516   2.491  0.00  0.00    +0.060 A 
ENDBRANCH  15  25
ENDBRANCH   1  15
TORSDOF 3
