REMARK  Name = ZINC36605579
REMARK  16 active torsions:
REMARK  status: ('A' for Active; 'I' for Inactive)
REMARK    1  A    between atoms: C_1  and  C_2
REMARK    2  A    between atoms: C_7  and  C_8
REMARK    3  A    between atoms: C_8  and  C_9
REMARK    4  A    between atoms: N_11  and  C_12
REMARK    5  A    between atoms: N_11  and  C_18
REMARK    6  A    between atoms: C_18  and  C_20
REMARK    7  A    between atoms: C_18  and  C_29
REMARK    8  A    between atoms: C_23  and  N_26
REMARK    9  A    between atoms: N_31  and  C_32
REMARK   10  A    between atoms: C_32  and  C_33
REMARK   11  A    between atoms: C_32  and  C_34
REMARK   12  A    between atoms: C_32  and  C_35
REMARK   13  A    between atoms: C_35  and  C_36
REMARK   14  A    between atoms: C_36  and  C_37
REMARK   15  A    between atoms: C_36  and  C_38
REMARK   16  A    between atoms: C_36  and  C_39
REMARK                            x       y       z     vdW  Elec       q    Type
REMARK                         _______ _______ _______ _____ _____    ______ ____
ROOT
ATOM      1  C   UNL     1      -3.643   1.020   6.452  0.00  0.00    +0.197 C 
ENDROOT
BRANCH   1   2
ATOM      2  C   UNL     1      -2.741   1.865   7.315  0.00  0.00    -0.018 A 
ATOM      3  C   UNL     1      -1.451   1.447   7.583  0.00  0.00    +0.008 A 
ATOM      4  C   UNL     1      -0.624   2.222   8.375  0.00  0.00    +0.033 A 
ATOM      5  C   UNL     1      -1.087   3.414   8.898  0.00  0.00    +0.126 A 
ATOM      6  C   UNL     1      -2.377   3.833   8.629  0.00  0.00    +0.033 A 
ATOM      7  C   UNL     1      -3.203   3.060   7.834  0.00  0.00    +0.008 A 
BRANCH   5   8
ATOM      8  N   UNL     1      -0.202   4.243   9.747  0.00  0.00    +0.056 N 
ATOM      9  O   UNL     1       0.926   3.877   9.982  0.00  0.00    -0.126 OA
ATOM     10  O   UNL     1      -0.607   5.287  10.204  0.00  0.00    -0.126 OA
ENDBRANCH   5   8
ENDBRANCH   1   2
BRANCH   1  11
ATOM     11  C   UNL     1      -3.913  -0.292   7.141  0.00  0.00    +0.239 C 
ATOM     12  O   UNL     1      -3.593  -1.334   6.609  0.00  0.00    -0.273 OA
ATOM     13  N   UNL     1      -4.510  -0.309   8.349  0.00  0.00    -0.308 N 
ATOM     14  H   UNL     1      -4.766   0.525   8.775  0.00  0.00    +0.149 HD
BRANCH  13  15
ATOM     15  C   UNL     1      -4.773  -1.585   9.020  0.00  0.00    +0.030 C 
ATOM     16  C   UNL     1      -5.787  -2.390   8.204  0.00  0.00    +0.031 C 
ATOM     17  C   UNL     1      -3.469  -2.377   9.137  0.00  0.00    +0.031 C 
BRANCH  15  18
ATOM     18  C   UNL     1      -5.337  -1.320  10.417  0.00  0.00    +0.031 C 
BRANCH  18  19
ATOM     19  C   UNL     1      -4.760  -0.011  10.960  0.00  0.00    -0.036 C 
ATOM     20  C   UNL     1      -5.548   1.170  10.390  0.00  0.00    +0.010 C 
ATOM     21  C   UNL     1      -4.864  -0.004  12.487  0.00  0.00    +0.010 C 
ATOM     22  C   UNL     1      -3.292   0.108  10.548  0.00  0.00    +0.010 C 
ENDBRANCH  18  19
ENDBRANCH  15  18
ENDBRANCH  13  15
ENDBRANCH   1  11
BRANCH   1  25
ATOM     23  C   UNL     1      -3.590  -0.017   4.247  0.00  0.00    +0.225 C 
ATOM     24  O   UNL     1      -4.708  -0.441   4.450  0.00  0.00    -0.275 OA
ATOM     25  N   UNL     1      -2.992   0.770   5.164  0.00  0.00    -0.255 N 
BRANCH  25  26
ATOM     26  C   UNL     1      -1.748   1.348   4.885  0.00  0.00    +0.037 A 
ATOM     27  C   UNL     1      -0.629   0.543   4.717  0.00  0.00    +0.023 A 
ATOM     28  C   UNL     1       0.597   1.116   4.442  0.00  0.00    +0.002 A 
ATOM     29  C   UNL     1       0.711   2.490   4.333  0.00  0.00    +0.000 A 
ATOM     30  C   UNL     1      -0.402   3.294   4.500  0.00  0.00    +0.002 A 
ATOM     31  C   UNL     1      -1.632   2.727   4.769  0.00  0.00    +0.023 A 
ENDBRANCH  25  26
BRANCH  23  32
ATOM     32  C   UNL     1      -2.870  -0.368   2.971  0.00  0.00    +0.131 C 
BRANCH  32  39
ATOM     33  C   UNL     1      -4.920   0.651   1.208  0.00  0.00    +0.044 C 
ATOM     34  C   UNL     1      -4.694  -0.835   1.322  0.00  0.00    -0.047 A 
ATOM     35  C   UNL     1      -5.465  -1.710   0.578  0.00  0.00    +0.003 A 
ATOM     36  C   UNL     1      -5.258  -3.072   0.682  0.00  0.00    +0.000 A 
ATOM     37  C   UNL     1      -4.280  -3.560   1.530  0.00  0.00    +0.000 A 
ATOM     38  C   UNL     1      -3.510  -2.686   2.273  0.00  0.00    +0.004 A 
ATOM     39  C   UNL     1      -3.714  -1.323   2.165  0.00  0.00    -0.036 A 
ENDBRANCH  32  39
ENDBRANCH  23  32
ENDBRANCH   1  25
TORSDOF 10
