REMARK  Name = ZINC63216018
REMARK  4 active torsions:
REMARK  status: ('A' for Active; 'I' for Inactive)
REMARK    1  A    between atoms: C_1  and  C_2
REMARK    2  A    between atoms: C_2  and  C_3
REMARK    3  A    between atoms: C_2  and  N_4
REMARK    4  A    between atoms: C_12  and  C_13
REMARK                            x       y       z     vdW  Elec       q    Type
REMARK                         _______ _______ _______ _____ _____    ______ ____
ROOT
ATOM      1  N   UNL     1      -1.366  -0.440  -0.125  0.00  0.00    -0.320 N 
ATOM      2  C   UNL     1      -1.857  -1.257  -1.124  0.00  0.00    +0.072 A 
ATOM      3  C   UNL     1      -1.306  -1.808  -2.273  0.00  0.00    +0.028 A 
ATOM      4  C   UNL     1      -2.078  -2.606  -3.091  0.00  0.00    +0.005 A 
ATOM      5  C   UNL     1      -3.405  -2.864  -2.774  0.00  0.00    +0.040 A 
ATOM      6  C   UNL     1      -3.970  -2.327  -1.639  0.00  0.00    +0.151 A 
ATOM      7  C   UNL     1      -3.200  -1.514  -0.797  0.00  0.00    +0.125 A 
ATOM      8  N   UNL     1      -3.463  -0.858   0.359  0.00  0.00    -0.223 NA
ATOM      9  C   UNL     1      -2.387  -0.228   0.763  0.00  0.00    +0.164 A 
ATOM     10  F   UNL     1      -5.262  -2.583  -1.338  0.00  0.00    -0.203 F 
ENDROOT
BRANCH   9  11
ATOM     11  C   UNL     1      -2.291   0.589   1.990  0.00  0.00    +0.145 A 
ATOM     12  C   UNL     1      -3.439   0.850   2.757  0.00  0.00    +0.145 A 
ATOM     13  N   UNL     1      -3.341   1.584   3.857  0.00  0.00    -0.237 NA
ATOM     14  C   UNL     1      -2.167   2.067   4.227  0.00  0.00    +0.132 A 
ATOM     15  C   UNL     1      -1.036   1.811   3.472  0.00  0.00    +0.131 A 
ATOM     16  N   UNL     1      -1.117   1.077   2.378  0.00  0.00    -0.247 NA
ATOM     17  N   UNL     1      -4.668   0.342   2.366  0.00  0.00    -0.341 N 
ATOM     18  H   UNL     1      -4.725  -0.260   1.608  0.00  0.00    +0.144 HD
ATOM     19  H   UNL     1      -5.471   0.589   2.850  0.00  0.00    +0.144 HD
ENDBRANCH   9  11
BRANCH   1  21
ATOM     20  C   UNL     1       1.000  -1.056  -0.063  0.00  0.00    +0.030 C 
ATOM     21  C   UNL     1      -0.006   0.097  -0.030  0.00  0.00    +0.083 C 
ATOM     22  C   UNL     1       0.256   1.036  -1.208  0.00  0.00    +0.030 C 
ENDBRANCH   1  21
TORSDOF 2
