REMARK  Name = ZINC59303668
REMARK  5 active torsions:
REMARK  status: ('A' for Active; 'I' for Inactive)
REMARK    1  A    between atoms: C_1  and  C_2
REMARK    2  A    between atoms: N_4  and  C_23
REMARK    3  A    between atoms: C_7  and  C_9
REMARK    4  A    between atoms: N_10  and  N_11
REMARK    5  A    between atoms: C_12  and  C_14
REMARK                            x       y       z     vdW  Elec       q    Type
REMARK                         _______ _______ _______ _____ _____    ______ ____
ROOT
ATOM      1  C   UNL     1       1.270  -0.669   2.032  0.00  0.00    +0.122 C 
ATOM      2  N   UNL     1       1.172  -0.285   3.249  0.00  0.00    -0.191 NA
ENDROOT
BRANCH   1   9
ATOM      3  C   UNL     1      -0.018   1.503   0.010  0.00  0.00    +0.063 C 
ATOM      4  C   UNL     1       0.002  -0.004   0.002  0.00  0.00    +0.052 C 
ATOM      5  N   UNL     1       0.008  -0.756  -1.029  0.00  0.00    -0.181 NA
ATOM      6  N   UNL     1       0.029  -2.112  -0.717  0.00  0.00    -0.160 N 
ATOM      7  C   UNL     1       0.037  -2.304   0.619  0.00  0.00    +0.253 C 
ATOM      8  O   UNL     1       0.055  -3.361   1.212  0.00  0.00    -0.272 OA
ATOM      9  C   UNL     1       0.026  -0.910   1.216  0.00  0.00    +0.165 C 
BRANCH   6  10
ATOM     10  C   UNL     1       0.039  -3.142  -1.665  0.00  0.00    +0.060 A 
ATOM     11  C   UNL     1       0.053  -4.468  -1.252  0.00  0.00    +0.025 A 
ATOM     12  C   UNL     1       0.063  -5.481  -2.190  0.00  0.00    +0.002 A 
ATOM     13  C   UNL     1       0.059  -5.178  -3.539  0.00  0.00    +0.000 A 
ATOM     14  C   UNL     1       0.044  -3.858  -3.954  0.00  0.00    +0.002 A 
ATOM     15  C   UNL     1       0.028  -2.840  -3.021  0.00  0.00    +0.025 A 
ENDBRANCH   6  10
ENDBRANCH   1   9
BRANCH   2  16
ATOM     16  N   UNL     1       2.328  -0.062   4.008  0.00  0.00    -0.201 N 
ATOM     17  C   UNL     1       2.225   0.343   5.290  0.00  0.00    +0.299 C 
ATOM     18  O   UNL     1       1.128   0.514   5.788  0.00  0.00    -0.265 OA
ATOM     19  H   UNL     1       3.203  -0.199   3.612  0.00  0.00    +0.178 HD
BRANCH  17  20
ATOM     20  C   UNL     1       3.438   0.577   6.086  0.00  0.00    +0.192 A 
ATOM     21  C   UNL     1       3.455   0.979   7.383  0.00  0.00    +0.063 A 
ATOM     22  C   UNL     1       4.866   1.079   7.757  0.00  0.00    +0.021 A 
ATOM     23  C   UNL     1       5.540   1.435   8.928  0.00  0.00    +0.011 A 
ATOM     24  C   UNL     1       6.906   1.428   8.951  0.00  0.00    +0.001 A 
ATOM     25  C   UNL     1       7.627   1.069   7.820  0.00  0.00    +0.004 A 
ATOM     26  C   UNL     1       6.981   0.715   6.656  0.00  0.00    +0.047 A 
ATOM     27  C   UNL     1       5.592   0.715   6.608  0.00  0.00    +0.136 A 
ATOM     28  O   UNL     1       4.702   0.419   5.641  0.00  0.00    -0.450 OA
ENDBRANCH  17  20
ENDBRANCH   2  16
TORSDOF 4
