REMARK  Name = ZINC59577836
REMARK  15 active torsions:
REMARK  status: ('A' for Active; 'I' for Inactive)
REMARK    1  A    between atoms: C_1  and  C_2
REMARK    2  A    between atoms: C_4  and  C_15
REMARK    3  A    between atoms: C_6  and  C_14
REMARK    4  A    between atoms: C_7  and  O_8
REMARK    5  A    between atoms: O_8  and  C_9
REMARK    6  A    between atoms: C_9  and  C_10
REMARK    7  A    between atoms: C_15  and  N_16
REMARK    8  A    between atoms: N_16  and  C_17
REMARK    9  A    between atoms: N_16  and  C_18
REMARK   10  A    between atoms: C_18  and  C_20
REMARK   11  A    between atoms: C_18  and  C_21
REMARK   12  A    between atoms: C_21  and  C_23
REMARK   13  A    between atoms: C_24  and  N_33
REMARK   14  A    between atoms: N_25  and  C_32
REMARK   15  A    between atoms: N_28  and  C_31
REMARK                            x       y       z     vdW  Elec       q    Type
REMARK                         _______ _______ _______ _____ _____    ______ ____
ROOT
ATOM      1  N   UNL     1       0.875  -3.272  -2.762  0.00  0.00    +0.387 N 
ATOM      2  C   UNL     1       1.588  -4.148  -1.823  0.00  0.00    -0.095 C 
ATOM      3  H   UNL     1       1.228  -2.330  -2.678  0.00  0.00    -0.081 HD
ENDROOT
BRANCH   1   4
ATOM      4  C   UNL     1       1.085  -3.752  -4.135  0.00  0.00    +0.001 C 
ATOM      5  C   UNL     1       2.580  -3.736  -4.458  0.00  0.00    -0.005 C 
BRANCH   4   6
ATOM      6  C   UNL     1       0.354  -2.853  -5.098  0.00  0.00    +0.158 C 
ATOM      7  O   UNL     1       0.032  -1.732  -4.759  0.00  0.00    -0.294 OA
BRANCH   6   8
ATOM      8  C   UNL     1       0.043  -3.314  -6.396  0.00  0.00    +0.118 A 
ATOM      9  C   UNL     1      -0.512  -2.452  -7.358  0.00  0.00    +0.116 A 
ATOM     10  N   UNL     1      -0.796  -2.945  -8.600  0.00  0.00    -0.284 N 
ATOM     11  C   UNL     1      -0.556  -4.227  -8.914  0.00  0.00    +0.333 A 
ATOM     12  O   UNL     1      -0.826  -4.617 -10.033  0.00  0.00    -0.246 OA
ATOM     13  N   UNL     1      -0.027  -5.096  -8.037  0.00  0.00    -0.263 N 
ATOM     14  C   UNL     1       0.294  -4.707  -6.785  0.00  0.00    +0.269 A 
ATOM     15  O   UNL     1       0.778  -5.496  -5.995  0.00  0.00    -0.267 OA
ATOM     16  C   UNL     1       0.209  -6.483  -8.446  0.00  0.00    +0.157 C 
ATOM     17  C   UNL     1      -1.375  -2.055  -9.610  0.00  0.00    +0.155 C 
BRANCH   9  18
ATOM     18  N   UNL     1      -0.763  -1.149  -7.056  0.00  0.00    -0.344 N 
ATOM     19  H   UNL     1      -0.371  -0.751  -6.264  0.00  0.00    +0.144 HD
ATOM     20  H   UNL     1      -1.334  -0.619  -7.634  0.00  0.00    +0.144 HD
ENDBRANCH   9  18
ENDBRANCH   6   8
ENDBRANCH   4   6
ENDBRANCH   1   4
BRANCH   1  21
ATOM     21  C   UNL     1      -0.560  -3.287  -2.452  0.00  0.00    -0.042 C 
BRANCH  21  25
ATOM     22  C   UNL     1      -1.462   0.719   0.408  0.00  0.00    +0.047 C 
ATOM     23  C   UNL     1      -1.219  -0.763   0.276  0.00  0.00    -0.008 A 
ATOM     24  C   UNL     1      -1.010  -1.321  -0.970  0.00  0.00    +0.008 A 
ATOM     25  C   UNL     1      -0.787  -2.680  -1.091  0.00  0.00    -0.063 A 
ATOM     26  C   UNL     1      -0.771  -3.484   0.034  0.00  0.00    +0.008 A 
ATOM     27  C   UNL     1      -0.979  -2.930   1.282  0.00  0.00    -0.008 A 
ATOM     28  C   UNL     1      -1.198  -1.566   1.407  0.00  0.00    +0.127 A 
ATOM     29  C   UNL     1      -0.962  -3.807   2.508  0.00  0.00    +0.047 C 
BRANCH  28  30
ATOM     30  O   UNL     1      -1.397  -1.018   2.635  0.00  0.00    -0.483 OA
BRANCH  30  31
ATOM     31  C   UNL     1      -2.744  -0.952   3.105  0.00  0.00    +0.342 C 
BRANCH  31  32
ATOM     32  C   UNL     1      -2.769  -0.310   4.494  0.00  0.00    +0.424 C 
ATOM     33  F   UNL     1      -2.236   0.982   4.420  0.00  0.00    -0.167 F 
ATOM     34  F   UNL     1      -4.088  -0.245   4.954  0.00  0.00    -0.167 F 
ATOM     35  F   UNL     1      -2.004  -1.079   5.377  0.00  0.00    -0.167 F 
ENDBRANCH  31  32
ENDBRANCH  30  31
ENDBRANCH  28  30
ENDBRANCH  21  25
ENDBRANCH   1  21
TORSDOF 9
