REMARK  Name = ZINC15931340
REMARK  7 active torsions:
REMARK  status: ('A' for Active; 'I' for Inactive)
REMARK    1  A    between atoms: C_1  and  C_2
REMARK    2  A    between atoms: C_2  and  C_3
REMARK    3  A    between atoms: C_2  and  C_4
REMARK    4  A    between atoms: C_2  and  N_5
REMARK    5  A    between atoms: C_6  and  C_8
REMARK    6  A    between atoms: C_13  and  C_26
REMARK    7  A    between atoms: C_16  and  C_19
REMARK                            x       y       z     vdW  Elec       q    Type
REMARK                         _______ _______ _______ _____ _____    ______ ____
ROOT
ATOM      1  C   UNL     1      -4.320   1.059   1.482  0.00  0.00    +0.167 A 
ATOM      2  C   UNL     1      -4.080   0.864   0.105  0.00  0.00    +0.112 A 
ATOM      3  C   UNL     1      -2.753   1.035  -0.111  0.00  0.00    +0.137 A 
ATOM      4  N   UNL     1      -2.173   1.329   1.087  0.00  0.00    -0.237 N 
ATOM      5  N   UNL     1      -3.168   1.339   2.065  0.00  0.00    -0.163 NA
ATOM      6  C   UNL     1      -0.736   1.583   1.268  0.00  0.00    +0.215 C 
ATOM      7  C   UNL     1      -0.013   1.086   0.008  0.00  0.00    +0.063 C 
ATOM      8  C   UNL     1      -0.758   1.595  -1.230  0.00  0.00    +0.104 C 
ATOM      9  N   UNL     1      -2.070   0.938  -1.322  0.00  0.00    -0.321 N 
ATOM     10 CL   UNL     1      -5.270   0.473  -1.097  0.00  0.00    -0.078 Cl
ATOM     11  H   UNL     1      -2.616   1.325  -2.077  0.00  0.00    +0.148 HD
ENDROOT
BRANCH   8  12
ATOM     12  C   UNL     1       0.048   1.283  -2.464  0.00  0.00    -0.027 A 
ATOM     13  C   UNL     1       0.018   0.011  -3.005  0.00  0.00    +0.006 A 
ATOM     14  C   UNL     1       0.753  -0.275  -4.141  0.00  0.00    +0.015 A 
ATOM     15  C   UNL     1       1.527   0.709  -4.729  0.00  0.00    +0.018 A 
ATOM     16  C   UNL     1       1.560   1.980  -4.184  0.00  0.00    +0.015 A 
ATOM     17  C   UNL     1       0.821   2.267  -3.052  0.00  0.00    +0.006 A 
ATOM     18 BR   UNL     1       2.538   0.317  -6.278  0.00  0.00    -0.050 Br
ENDBRANCH   8  12
BRANCH   1  20
ATOM     19  N   UNL     1      -5.724   1.178   3.483  0.00  0.00    -0.305 N 
ATOM     20  C   UNL     1      -5.632   0.968   2.155  0.00  0.00    +0.266 C 
ATOM     21  O   UNL     1      -6.628   0.703   1.511  0.00  0.00    -0.268 OA
ATOM     22  H   UNL     1      -4.929   1.390   3.997  0.00  0.00    +0.150 HD
BRANCH  19  24
ATOM     23  C   UNL     1      -7.600  -0.317   3.958  0.00  0.00    +0.031 C 
ATOM     24  C   UNL     1      -7.025   1.087   4.150  0.00  0.00    +0.027 C 
ATOM     25  C   UNL     1      -6.853   1.368   5.645  0.00  0.00    +0.031 C 
ATOM     26  C   UNL     1      -7.982   2.117   3.546  0.00  0.00    +0.031 C 
ENDBRANCH  19  24
ENDBRANCH   1  20
BRANCH   6  27
ATOM     27  C   UNL     1      -0.222   0.825   2.494  0.00  0.00    +0.412 C 
ATOM     28  F   UNL     1       1.153   1.041   2.634  0.00  0.00    -0.168 F 
ATOM     29  F   UNL     1      -0.885   1.283   3.637  0.00  0.00    -0.168 F 
ATOM     30  F   UNL     1      -0.465  -0.543   2.331  0.00  0.00    -0.168 F 
ENDBRANCH   6  27
TORSDOF 4
