REMARK  Name = ZINC23198052
REMARK  11 active torsions:
REMARK  status: ('A' for Active; 'I' for Inactive)
REMARK    1  A    between atoms: C_1  and  C_2
REMARK    2  A    between atoms: C_2  and  N_3
REMARK    3  A    between atoms: N_3  and  C_4
REMARK    4  A    between atoms: N_3  and  C_6
REMARK    5  A    between atoms: C_4  and  C_5
REMARK    6  A    between atoms: C_6  and  C_8
REMARK    7  A    between atoms: C_6  and  C_15
REMARK    8  A    between atoms: C_8  and  C_9
REMARK    9  A    between atoms: C_15  and  N_16
REMARK   10  A    between atoms: C_17  and  C_19
REMARK   11  A    between atoms: N_24  and  C_26
REMARK                            x       y       z     vdW  Elec       q    Type
REMARK                         _______ _______ _______ _____ _____    ______ ____
ROOT
ATOM      1  N   UNL     1      -2.318   3.626   1.323  0.00  0.00    -0.317 N 
ATOM      2  C   UNL     1      -2.908   4.583   0.580  0.00  0.00    +0.218 C 
ATOM      3  O   UNL     1      -2.239   5.465   0.085  0.00  0.00    -0.275 OA
ATOM      4  H   UNL     1      -2.925   2.826   1.772  0.00  0.00    +0.149 HD
ENDROOT
BRANCH   2   5
ATOM      5  C   UNL     1      -4.399   4.557   0.364  0.00  0.00    +0.101 C 
ATOM      6  C   UNL     1      -5.155   4.835   1.684  0.00  0.00    +0.110 C 
ATOM      7  C   UNL     1      -5.393   6.329   1.667  0.00  0.00    +0.221 C 
ATOM      8  O   UNL     1      -5.703   6.994   2.633  0.00  0.00    -0.275 OA
ATOM      9  N   UNL     1      -5.211   6.812   0.426  0.00  0.00    -0.271 N 
ATOM     10  C   UNL     1      -4.852   5.745  -0.514  0.00  0.00    +0.127 C 
BRANCH   9  11
ATOM     11  C   UNL     1      -5.347   8.162   0.075  0.00  0.00    +0.040 A 
ATOM     12  C   UNL     1      -5.255   8.546  -1.256  0.00  0.00    +0.027 A 
ATOM     13  C   UNL     1      -5.393   9.876  -1.603  0.00  0.00    +0.051 A 
ATOM     14  C   UNL     1      -5.614  10.831  -0.625  0.00  0.00    +0.166 A 
ATOM     15  C   UNL     1      -5.702  10.450   0.712  0.00  0.00    +0.168 A 
ATOM     16  C   UNL     1      -5.569   9.116   1.059  0.00  0.00    +0.073 A 
ATOM     17  O   UNL     1      -5.921  11.563   1.470  0.00  0.00    -0.453 OA
ATOM     18  C   UNL     1      -6.373  12.574   0.549  0.00  0.00    +0.466 C 
ATOM     19  O   UNL     1      -5.778  12.185  -0.703  0.00  0.00    -0.453 OA
ENDBRANCH   9  11
ENDBRANCH   2   5
BRANCH   1  20
ATOM     20  C   UNL     1      -0.868   3.651   1.532  0.00  0.00    +0.089 C 
BRANCH  20  21
ATOM     21  C   UNL     1      -0.432   2.365   2.237  0.00  0.00    -0.047 C 
BRANCH  21  22
ATOM     22  N   UNL     1      -0.686   1.216   1.358  0.00  0.00    +0.382 N 
ATOM     23  H   UNL     1       0.081   0.455   1.566  0.00  0.00    -0.081 HD
BRANCH  22  25
ATOM     24  C   UNL     1      -1.960  -0.093   2.989  0.00  0.00    -0.017 C 
ATOM     25  C   UNL     1      -2.000   0.620   1.636  0.00  0.00    -0.082 C 
ENDBRANCH  22  25
BRANCH  22  26
ATOM     26  C   UNL     1      -0.570   1.598  -0.056  0.00  0.00    -0.082 C 
ATOM     27  C   UNL     1       0.900   1.849  -0.397  0.00  0.00    -0.017 C 
ENDBRANCH  22  26
ENDBRANCH  21  22
BRANCH  21  28
ATOM     28  C   UNL     1       1.062   2.441   2.559  0.00  0.00    +0.021 C 
BRANCH  28  29
ATOM     29  C   UNL     1       1.461   1.241   3.378  0.00  0.00    -0.049 A 
ATOM     30  C   UNL     1       1.297   1.256   4.751  0.00  0.00    +0.003 A 
ATOM     31  C   UNL     1       1.658   0.153   5.502  0.00  0.00    +0.000 A 
ATOM     32  C   UNL     1       2.193  -0.960   4.882  0.00  0.00    +0.000 A 
ATOM     33  C   UNL     1       2.362  -0.973   3.510  0.00  0.00    +0.000 A 
ATOM     34  C   UNL     1       1.996   0.128   2.758  0.00  0.00    +0.003 A 
ENDBRANCH  28  29
ENDBRANCH  21  28
ENDBRANCH  20  21
ENDBRANCH   1  20
TORSDOF 9
