REMARK  Name = ZINC09379431
REMARK  2 active torsions:
REMARK  status: ('A' for Active; 'I' for Inactive)
REMARK    1  A    between atoms: C_10  and  C_13
REMARK    2  A    between atoms: C_16  and  N_19
REMARK                            x       y       z     vdW  Elec       q    Type
REMARK                         _______ _______ _______ _____ _____    ______ ____
ROOT
ATOM      1  C   UNL     1       1.212  -0.667  -0.017  0.00  0.00    +0.001 A 
ATOM      2  C   UNL     1       2.403   0.041  -0.027  0.00  0.00    +0.002 A 
ATOM      3  C   UNL     1       2.399   1.423  -0.018  0.00  0.00    +0.024 A 
ATOM      4  C   UNL     1       1.194   2.104   0.002  0.00  0.00    +0.041 A 
ATOM      5  C   UNL     1      -0.017   1.388   0.010  0.00  0.00    +0.058 A 
ATOM      6  C   UNL     1       0.002  -0.004   0.002  0.00  0.00    +0.015 A 
ATOM      7  C   UNL     1      -1.280   2.147   0.020  0.00  0.00    +0.247 C 
ATOM      8  O   UNL     1      -2.334   1.591  -0.226  0.00  0.00    -0.270 OA
ATOM      9  N   UNL     1      -1.255   3.466   0.306  0.00  0.00    -0.289 N 
ATOM     10  C   UNL     1      -0.009   4.136   0.681  0.00  0.00    +0.190 C 
ATOM     11  N   UNL     1       1.133   3.493   0.021  0.00  0.00    -0.322 N 
ATOM     12  H   UNL     1      -2.077   3.979   0.261  0.00  0.00    +0.151 HD
ATOM     13  H   UNL     1       1.830   4.025  -0.393  0.00  0.00    +0.148 HD
ENDROOT
BRANCH  10  14
ATOM     14  C   UNL     1       0.169   4.057   2.176  0.00  0.00    -0.009 A 
ATOM     15  C   UNL     1       1.440   4.038   2.719  0.00  0.00    +0.009 A 
ATOM     16  C   UNL     1       1.607   3.972   4.088  0.00  0.00    +0.023 A 
ATOM     17  C   UNL     1       0.496   3.912   4.919  0.00  0.00    +0.030 A 
ATOM     18  C   UNL     1      -0.780   3.925   4.370  0.00  0.00    +0.023 A 
ATOM     19  C   UNL     1      -0.940   3.998   3.000  0.00  0.00    +0.009 A 
BRANCH  17  20
ATOM     20  N   UNL     1       0.661   3.839   6.304  0.00  0.00    -0.330 N 
ATOM     21  C   UNL     1      -0.057   4.928   6.979  0.00  0.00    +0.105 C 
ATOM     22  C   UNL     1       0.024   4.733   8.494  0.00  0.00    +0.019 C 
ATOM     23  C   UNL     1       1.494   4.722   8.924  0.00  0.00    +0.003 C 
ATOM     24  C   UNL     1       2.230   3.610   8.172  0.00  0.00    +0.019 C 
ATOM     25  C   UNL     1       2.084   3.838   6.665  0.00  0.00    +0.105 C 
ENDBRANCH  17  20
ENDBRANCH  10  14
TORSDOF 2
