REMARK  Name = ZINC09908872
REMARK  6 active torsions:
REMARK  status: ('A' for Active; 'I' for Inactive)
REMARK    1  A    between atoms: C_1  and  C_2
REMARK    2  A    between atoms: C_7  and  N_8
REMARK    3  A    between atoms: C_11  and  C_16
REMARK    4  A    between atoms: C_16  and  N_52
REMARK    5  A    between atoms: C_20  and  C_22
REMARK    6  A    between atoms: N_26  and  C_27
REMARK                            x       y       z     vdW  Elec       q    Type
REMARK                         _______ _______ _______ _____ _____    ______ ____
ROOT
ATOM      1  N   UNL     1      -3.447   9.741  -0.484  0.00  0.00    -0.283 N 
ATOM      2  C   UNL     1      -2.989   8.815   0.433  0.00  0.00    +0.224 A 
ATOM      3  N   UNL     1      -2.263   7.776   0.026  0.00  0.00    -0.201 NA
ATOM      4  C   UNL     1      -1.825   6.890   0.902  0.00  0.00    +0.120 A 
ATOM      5  N   UNL     1      -2.110   7.027   2.185  0.00  0.00    -0.202 NA
ATOM      6  C   UNL     1      -2.831   8.066   2.601  0.00  0.00    +0.217 A 
ATOM      7  N   UNL     1      -3.273   8.960   1.723  0.00  0.00    -0.181 NA
ATOM      8  N   UNL     1      -3.123   8.211   3.942  0.00  0.00    -0.327 N 
ATOM      9  H   UNL     1      -3.166   9.686  -1.410  0.00  0.00    +0.155 HD
ATOM     10  H   UNL     1      -3.652   8.967   4.244  0.00  0.00    +0.145 HD
ATOM     11  H   UNL     1      -2.800   7.559   4.582  0.00  0.00    +0.145 HD
ENDROOT
BRANCH   1  18
ATOM     12  C   UNL     1      -3.522  12.138  -2.016  0.00  0.00    +0.045 C 
ATOM     13  C   UNL     1      -4.384  11.945  -0.795  0.00  0.00    -0.029 A 
ATOM     14  C   UNL     1      -5.243  12.947  -0.389  0.00  0.00    +0.005 A 
ATOM     15  C   UNL     1      -6.035  12.771   0.731  0.00  0.00    +0.000 A 
ATOM     16  C   UNL     1      -5.969  11.590   1.448  0.00  0.00    +0.002 A 
ATOM     17  C   UNL     1      -5.116  10.582   1.046  0.00  0.00    +0.023 A 
ATOM     18  C   UNL     1      -4.315  10.758  -0.076  0.00  0.00    +0.036 A 
ENDBRANCH   1  18
BRANCH   4  19
ATOM     19  C   UNL     1      -1.003   5.715   0.436  0.00  0.00    -0.000 C 
BRANCH  19  24
ATOM     20  C   UNL     1       0.823   6.572   1.790  0.00  0.00    -0.077 C 
ATOM     21  C   UNL     1       2.287   6.098   1.964  0.00  0.00    -0.020 C 
ATOM     22  C   UNL     1       2.248   4.704   1.284  0.00  0.00    -0.011 C 
ATOM     23  C   UNL     1       1.264   4.915   0.114  0.00  0.00    -0.020 C 
ATOM     24  N   UNL     1       0.436   6.085   0.451  0.00  0.00    +0.390 N 
ATOM     25  H   UNL     1       0.599   6.826  -0.241  0.00  0.00    -0.080 HD
BRANCH  23  26
ATOM     26  C   UNL     1       0.404   3.690  -0.059  0.00  0.00    +0.005 A 
ATOM     27  C   UNL     1       0.139   3.069  -1.227  0.00  0.00    +0.021 A 
ATOM     28  C   UNL     1      -0.695   1.970  -0.941  0.00  0.00    +0.019 A 
ATOM     29  C   UNL     1      -0.914   1.966   0.390  0.00  0.00    +0.085 A 
ATOM     30  N   UNL     1      -0.239   3.017   0.937  0.00  0.00    -0.355 N 
ATOM     31  C   UNL     1      -0.210   3.366   2.359  0.00  0.00    +0.148 C 
ENDBRANCH  23  26
ENDBRANCH  19  24
ENDBRANCH   4  19
TORSDOF 4
