REMARK  Name = ZINC23857755
REMARK  10 active torsions:
REMARK  status: ('A' for Active; 'I' for Inactive)
REMARK    1  A    between atoms: C_1  and  C_2
REMARK    2  A    between atoms: C_5  and  N_11
REMARK    3  A    between atoms: C_6  and  N_8
REMARK    4  A    between atoms: C_12  and  C_14
REMARK    5  A    between atoms: N_16  and  C_17
REMARK    6  A    between atoms: C_17  and  C_18
REMARK    7  A    between atoms: C_18  and  C_20
REMARK    8  A    between atoms: C_18  and  N_30
REMARK    9  A    between atoms: N_28  and  C_29
REMARK   10  A    between atoms: N_33  and  C_36
REMARK                            x       y       z     vdW  Elec       q    Type
REMARK                         _______ _______ _______ _____ _____    ______ ____
ROOT
ATOM      1  C   UNL     1       1.279   1.695  -0.138  0.00  0.00    +0.128 C 
ENDROOT
BRANCH   1   4
ATOM      2  C   UNL     1       0.380   3.602  -1.359  0.00  0.00    +0.299 C 
ATOM      3  O   UNL     1      -0.528   3.651  -0.556  0.00  0.00    -0.265 OA
ATOM      4  N   UNL     1       1.334   2.658  -1.241  0.00  0.00    -0.306 N 
ATOM      5  H   UNL     1       2.155   2.610  -1.972  0.00  0.00    +0.149 HD
BRANCH   2   7
ATOM      6  N   UNL     1      -0.514   5.532  -2.599  0.00  0.00    -0.276 N 
ATOM      7  C   UNL     1       0.440   4.588  -2.480  0.00  0.00    +0.303 C 
ATOM      8  O   UNL     1       1.348   4.538  -3.284  0.00  0.00    -0.265 OA
ATOM      9  H   UNL     1      -1.383   5.524  -1.924  0.00  0.00    +0.155 HD
BRANCH   6  14
ATOM     10  C   UNL     1      -0.054   9.542  -6.582  0.00  0.00    +0.044 C 
ATOM     11  C   UNL     1      -0.176   8.477  -5.523  0.00  0.00    -0.048 A 
ATOM     12  C   UNL     1       0.960   7.864  -5.027  0.00  0.00    +0.005 A 
ATOM     13  C   UNL     1       0.852   6.887  -4.057  0.00  0.00    +0.026 A 
ATOM     14  C   UNL     1      -0.401   6.520  -3.580  0.00  0.00    +0.064 A 
ATOM     15  C   UNL     1      -1.540   7.134  -4.085  0.00  0.00    +0.148 A 
ATOM     16  C   UNL     1      -1.424   8.114  -5.051  0.00  0.00    +0.038 A 
BRANCH  15  17
ATOM     17  N   UNL     1      -2.877   6.743  -3.583  0.00  0.00    +0.058 N 
ATOM     18  O   UNL     1      -3.879   7.218  -4.086  0.00  0.00    -0.126 OA
ATOM     19  O   UNL     1      -2.974   5.945  -2.668  0.00  0.00    -0.126 OA
ENDBRANCH  15  17
ENDBRANCH   6  14
ENDBRANCH   2   7
ENDBRANCH   1   4
BRANCH   1  20
ATOM     20  C   UNL     1       2.403   0.669  -0.299  0.00  0.00    +0.104 C 
BRANCH  20  21
ATOM     21  C   UNL     1       3.735   1.358  -0.153  0.00  0.00    -0.028 A 
ATOM     22  C   UNL     1       4.230   1.650   1.105  0.00  0.00    +0.007 A 
ATOM     23  C   UNL     1       5.448   2.280   1.244  0.00  0.00    +0.024 A 
ATOM     24  C   UNL     1       6.190   2.629   0.117  0.00  0.00    +0.033 A 
ATOM     25  C   UNL     1       5.686   2.328  -1.143  0.00  0.00    -0.025 A 
ATOM     26  C   UNL     1       4.469   1.693  -1.276  0.00  0.00    +0.010 A 
ATOM     27  C   UNL     1       6.690   2.804  -2.174  0.00  0.00    +0.056 C 
ATOM     28  C   UNL     1       7.969   3.021  -1.333  0.00  0.00    +0.109 C 
ATOM     29  N   UNL     1       7.427   3.277   0.019  0.00  0.00    -0.332 N 
ATOM     30  C   UNL     1       8.353   2.803   1.056  0.00  0.00    +0.129 C 
ENDBRANCH  20  21
BRANCH  20  31
ATOM     31  N   UNL     1       2.271  -0.368   0.733  0.00  0.00    -0.297 NA
ATOM     32  C   UNL     1       3.433  -1.268   0.726  0.00  0.00    +0.066 C 
ATOM     33  C   UNL     1       3.296  -2.282   1.864  0.00  0.00    -0.064 C 
ATOM     34  N   UNL     1       2.046  -3.038   1.695  0.00  0.00    +0.379 N 
ATOM     35  C   UNL     1       0.885  -2.137   1.702  0.00  0.00    -0.064 C 
ATOM     36  C   UNL     1       1.022  -1.123   0.564  0.00  0.00    +0.066 C 
ATOM     37  C   UNL     1       1.915  -4.075   2.727  0.00  0.00    -0.096 C 
ATOM     38  H   UNL     1       2.082  -3.539   0.717  0.00  0.00    -0.082 HD
ENDBRANCH  20  31
ENDBRANCH   1  20
TORSDOF 7
