REMARK  Name = ZINC27238262
REMARK  17 active torsions:
REMARK  status: ('A' for Active; 'I' for Inactive)
REMARK    1  A    between atoms: C_1  and  C_2
REMARK    2  A    between atoms: C_2  and  C_3
REMARK    3  A    between atoms: C_3  and  C_4
REMARK    4  A    between atoms: C_4  and  C_5
REMARK    5  A    between atoms: C_5  and  C_6
REMARK    6  A    between atoms: C_6  and  C_7
REMARK    7  A    between atoms: C_7  and  C_8
REMARK    8  A    between atoms: C_7  and  C_17
REMARK    9  A    between atoms: C_7  and  O_36
REMARK   10  A    between atoms: C_11  and  O_14
REMARK   11  A    between atoms: O_14  and  C_15
REMARK   12  A    between atoms: C_15  and  C_16
REMARK   13  A    between atoms: C_17  and  C_19
REMARK   14  A    between atoms: C_17  and  O_27
REMARK   15  A    between atoms: C_19  and  N_20
REMARK   16  A    between atoms: O_27  and  C_28
REMARK   17  A    between atoms: C_33  and  C_34
REMARK                            x       y       z     vdW  Elec       q    Type
REMARK                         _______ _______ _______ _____ _____    ______ ____
ROOT
ATOM      1  C   UNL     1       0.164   1.375   4.954  0.00  0.00    +0.193 C 
ENDROOT
BRANCH   1   2
ATOM      2  C   UNL     1      -0.491   2.219   3.859  0.00  0.00    +0.126 C 
BRANCH   2   3
ATOM      3  C   UNL     1      -0.665   3.633   4.352  0.00  0.00    -0.012 A 
ATOM      4  C   UNL     1       0.222   4.156   5.274  0.00  0.00    +0.010 A 
ATOM      5  C   UNL     1       0.069   5.454   5.723  0.00  0.00    +0.046 A 
ATOM      6  C   UNL     1      -0.984   6.228   5.257  0.00  0.00    +0.121 A 
ATOM      7  C   UNL     1      -1.876   5.698   4.336  0.00  0.00    +0.046 A 
ATOM      8  C   UNL     1      -1.715   4.402   3.885  0.00  0.00    +0.010 A 
BRANCH   6   9
ATOM      9  O   UNL     1      -1.141   7.502   5.702  0.00  0.00    -0.492 OA
BRANCH   9  10
ATOM     10  C   UNL     1      -0.185   7.981   6.649  0.00  0.00    +0.225 C 
ATOM     11  C   UNL     1      -0.523   9.424   7.030  0.00  0.00    +0.048 C 
ENDBRANCH   9  10
ENDBRANCH   6   9
ENDBRANCH   2   3
BRANCH   2  12
ATOM     12  O   UNL     1      -1.768   1.668   3.533  0.00  0.00    -0.380 OA
ATOM     13  H   UNL     1      -2.546   1.586   4.307  0.00  0.00    +0.211 HD
ENDBRANCH   2  12
BRANCH   2  14
ATOM     14  C   UNL     1       0.398   2.219   2.614  0.00  0.00    +0.043 C 
BRANCH  14  15
ATOM     15  C   UNL     1      -0.269   3.044   1.512  0.00  0.00    +0.003 C 
BRANCH  15  16
ATOM     16  C   UNL     1       0.620   3.044   0.266  0.00  0.00    +0.000 C 
BRANCH  16  17
ATOM     17  C   UNL     1      -0.047   3.869  -0.836  0.00  0.00    -0.000 C 
BRANCH  17  19
ATOM     18  C   UNL     1       0.175   4.694  -3.184  0.00  0.00    +0.004 C 
ATOM     19  C   UNL     1       0.842   3.869  -2.082  0.00  0.00    -0.003 C 
ENDBRANCH  17  19
ENDBRANCH  16  17
ENDBRANCH  15  16
ENDBRANCH  14  15
ENDBRANCH   2  14
ENDBRANCH   1   2
BRANCH   1  20
ATOM     20  C   UNL     1      -0.756   1.319   6.175  0.00  0.00    -0.030 C 
BRANCH  20  21
ATOM     21  N   UNL     1      -0.068   0.630   7.275  0.00  0.00    +0.382 N 
ATOM     22  C   UNL     1       0.112  -0.807   6.970  0.00  0.00    -0.079 C 
ATOM     23  C   UNL     1       0.561  -1.606   8.164  0.00  0.00    -0.019 C 
ATOM     24  C   UNL     1      -0.687  -2.195   8.855  0.00  0.00    -0.002 C 
ATOM     25  C   UNL     1      -1.381  -1.208   9.675  0.00  0.00    -0.002 C 
ATOM     26  C   UNL     1      -1.889  -0.012   8.842  0.00  0.00    -0.019 C 
ATOM     27  C   UNL     1      -0.729   0.907   8.570  0.00  0.00    -0.079 C 
ATOM     28  H   UNL     1       0.948   1.039   7.371  0.00  0.00    -0.082 HD
ENDBRANCH  20  21
ENDBRANCH   1  20
BRANCH   1  29
ATOM     29  O   UNL     1       0.387   0.051   4.465  0.00  0.00    -0.487 OA
BRANCH  29  30
ATOM     30  C   UNL     1       1.598  -0.204   3.902  0.00  0.00    +0.124 A 
ATOM     31  C   UNL     1       2.580   0.776   3.894  0.00  0.00    +0.047 A 
ATOM     32  C   UNL     1       3.811   0.514   3.325  0.00  0.00    +0.023 A 
ATOM     33  C   UNL     1       4.062  -0.722   2.757  0.00  0.00    +0.041 A 
ATOM     34  C   UNL     1       3.083  -1.700   2.760  0.00  0.00    +0.027 A 
ATOM     35  C   UNL     1       1.852  -1.443   3.332  0.00  0.00    -0.007 A 
ATOM     36  C   UNL     1       0.785  -2.507   3.335  0.00  0.00    +0.047 C 
ATOM     37 CL   UNL     1       5.609  -1.047   2.038  0.00  0.00    -0.084 Cl
ENDBRANCH  29  30
ENDBRANCH   1  29
TORSDOF 14
