REMARK  Name = ZINC39517992
REMARK  7 active torsions:
REMARK  status: ('A' for Active; 'I' for Inactive)
REMARK    1  A    between atoms: C_1  and  C_2
REMARK    2  A    between atoms: C_14  and  C_15
REMARK    3  A    between atoms: N_17  and  C_18
REMARK    4  A    between atoms: C_18  and  C_20
REMARK    5  A    between atoms: C_18  and  C_21
REMARK    6  A    between atoms: C_25  and  S_27
REMARK    7  A    between atoms: S_27  and  N_30
REMARK                            x       y       z     vdW  Elec       q    Type
REMARK                         _______ _______ _______ _____ _____    ______ ____
ROOT
ATOM      1  C   UNL     1       0.032  -0.371   2.488  0.00  0.00    +0.280 C 
ATOM      2  O   UNL     1       0.019   0.817   2.746  0.00  0.00    -0.267 OA
ATOM      3  N   UNL     1       0.054  -1.278   3.485  0.00  0.00    -0.302 N 
ATOM      4  H   UNL     1       0.065  -2.225   3.279  0.00  0.00    +0.150 HD
ENDROOT
BRANCH   1  18
ATOM      5  C   UNL     1      -0.018   1.503   0.010  0.00  0.00    +0.048 C 
ATOM      6  C   UNL     1       0.002  -0.004   0.002  0.00  0.00    +0.008 A 
ATOM      7  C   UNL     1       0.008  -0.842  -1.141  0.00  0.00    +0.024 A 
ATOM      8  C   UNL     1      -0.002  -0.585  -2.528  0.00  0.00    +0.012 A 
ATOM      9  C   UNL     1       0.007  -1.601  -3.421  0.00  0.00    +0.009 A 
ATOM     10  C   UNL     1       0.027  -2.941  -2.977  0.00  0.00    -0.014 A 
ATOM     11  C   UNL     1       0.037  -4.004  -3.893  0.00  0.00    +0.008 A 
ATOM     12  C   UNL     1       0.058  -5.288  -3.439  0.00  0.00    +0.001 A 
ATOM     13  C   UNL     1       0.069  -5.565  -2.075  0.00  0.00    +0.001 A 
ATOM     14  C   UNL     1       0.059  -4.558  -1.157  0.00  0.00    +0.012 A 
ATOM     15  C   UNL     1       0.039  -3.224  -1.590  0.00  0.00    +0.025 A 
ATOM     16  C   UNL     1       0.029  -2.157  -0.664  0.00  0.00    +0.144 A 
ATOM     17  O   UNL     1       0.034  -2.106   0.680  0.00  0.00    -0.449 OA
ATOM     18  C   UNL     1       0.024  -0.819   1.089  0.00  0.00    +0.193 A 
ENDBRANCH   1  18
BRANCH   3  19
ATOM     19  C   UNL     1       0.062  -0.831   4.881  0.00  0.00    +0.101 C 
ATOM     20  C   UNL     1       1.500  -0.536   5.314  0.00  0.00    +0.033 C 
BRANCH  19  21
ATOM     21  C   UNL     1      -0.515  -1.912   5.757  0.00  0.00    -0.026 A 
ATOM     22  C   UNL     1      -0.202  -3.237   5.518  0.00  0.00    +0.005 A 
ATOM     23  C   UNL     1      -0.732  -4.229   6.322  0.00  0.00    +0.002 A 
ATOM     24  C   UNL     1      -1.574  -3.896   7.366  0.00  0.00    +0.028 A 
ATOM     25  C   UNL     1      -1.886  -2.571   7.607  0.00  0.00    +0.105 A 
ATOM     26  C   UNL     1      -1.353  -1.579   6.805  0.00  0.00    +0.034 A 
BRANCH  25  27
ATOM     27  S   UNL     1      -2.959  -2.146   8.938  0.00  0.00    +0.056 S 
ATOM     28  O   UNL     1      -3.527  -0.884   8.615  0.00  0.00    -0.153 OA
ATOM     29  O   UNL     1      -3.754  -3.294   9.201  0.00  0.00    -0.153 OA
BRANCH  27  30
ATOM     30  N   UNL     1      -2.011  -1.910  10.275  0.00  0.00    -0.204 NA
ATOM     31  H   UNL     1      -1.049  -2.016  10.213  0.00  0.00    +0.144 HD
ATOM     32  H   UNL     1      -2.418  -1.666  11.121  0.00  0.00    +0.144 HD
ENDBRANCH  27  30
ENDBRANCH  25  27
ENDBRANCH  19  21
ENDBRANCH   3  19
TORSDOF 5
