REMARK  Name = ZINC19376352
REMARK  5 active torsions:
REMARK  status: ('A' for Active; 'I' for Inactive)
REMARK    1  A    between atoms: N_15  and  C_18
REMARK    2  A    between atoms: C_18  and  C_19
REMARK    3  A    between atoms: C_19  and  C_21
REMARK    4  A    between atoms: C_19  and  O_30
REMARK    5  A    between atoms: C_32  and  O_34
REMARK                            x       y       z     vdW  Elec       q    Type
REMARK                         _______ _______ _______ _____ _____    ______ ____
ROOT
ATOM      1  C   UNL     1      -8.711   3.054   2.556  0.00  0.00    +0.001 A 
ATOM      2  C   UNL     1      -7.523   2.549   3.079  0.00  0.00    +0.001 A 
ATOM      3  C   UNL     1      -7.118   1.279   2.801  0.00  0.00    +0.012 A 
ATOM      4  C   UNL     1      -7.908   0.465   1.972  0.00  0.00    +0.024 A 
ATOM      5  C   UNL     1      -9.114   0.979   1.439  0.00  0.00    -0.014 A 
ATOM      6  C   UNL     1      -9.502   2.293   1.751  0.00  0.00    +0.008 A 
ATOM      7  C   UNL     1      -9.898   0.163   0.606  0.00  0.00    +0.009 A 
ATOM      8  C   UNL     1      -9.486  -1.101   0.321  0.00  0.00    +0.010 A 
ATOM      9  C   UNL     1      -8.295  -1.616   0.842  0.00  0.00    +0.023 A 
ATOM     10  C   UNL     1      -7.514  -0.857   1.662  0.00  0.00    +0.135 A 
ATOM     11  O   UNL     1      -6.364  -1.331   2.206  0.00  0.00    -0.485 OA
ATOM     12  C   UNL     1      -5.779  -2.499   1.634  0.00  0.00    +0.110 C 
ATOM     13  C   UNL     1      -4.685  -3.037   2.558  0.00  0.00    +0.029 C 
ATOM     14  C   UNL     1      -3.567  -1.999   2.674  0.00  0.00    -0.075 C 
ATOM     15  N   UNL     1      -3.017  -1.718   1.342  0.00  0.00    +0.382 N 
ATOM     16  C   UNL     1      -4.040  -1.153   0.453  0.00  0.00    -0.075 C 
ATOM     17  C   UNL     1      -5.175  -2.165   0.270  0.00  0.00    +0.029 C 
ATOM     18  C   UNL     1      -6.873  -3.559   1.466  0.00  0.00    +0.084 C 
ATOM     19  C   UNL     1      -7.908  -3.027   0.472  0.00  0.00    +0.152 C 
ATOM     20  H   UNL     1      -2.687  -2.674   0.907  0.00  0.00    -0.082 HD
ENDROOT
BRANCH  19  21
ATOM     21  O   UNL     1      -9.068  -3.861   0.502  0.00  0.00    -0.387 OA
ATOM     22  H   UNL     1      -8.983  -4.930   0.259  0.00  0.00    +0.210 HD
ENDBRANCH  19  21
BRANCH  15  23
ATOM     23  C   UNL     1      -1.849  -0.833   1.429  0.00  0.00    -0.042 C 
BRANCH  23  24
ATOM     24  C   UNL     1      -0.639  -1.630   1.921  0.00  0.00    +0.128 C 
BRANCH  24  25
ATOM     25  C   UNL     1       0.556  -0.719   2.023  0.00  0.00    -0.020 A 
ATOM     26  C   UNL     1       1.278  -0.391   0.890  0.00  0.00    +0.009 A 
ATOM     27  C   UNL     1       2.376   0.439   0.979  0.00  0.00    +0.046 A 
ATOM     28  C   UNL     1       2.767   0.956   2.212  0.00  0.00    +0.124 A 
ATOM     29  C   UNL     1       2.030   0.624   3.342  0.00  0.00    -0.002 A 
ATOM     30  C   UNL     1       0.936  -0.207   3.251  0.00  0.00    +0.013 A 
ATOM     31  C   UNL     1       2.674   1.336   4.516  0.00  0.00    +0.080 C 
ATOM     32  C   UNL     1       3.569   2.379   3.806  0.00  0.00    +0.234 C 
ATOM     33  O   UNL     1       3.810   1.772   2.525  0.00  0.00    -0.491 OA
ENDBRANCH  24  25
BRANCH  24  34
ATOM     34  O   UNL     1      -0.357  -2.685   0.999  0.00  0.00    -0.389 OA
ATOM     35  H   UNL     1       0.484  -3.369   1.186  0.00  0.00    +0.210 HD
ENDBRANCH  24  34
ENDBRANCH  23  24
ENDBRANCH  15  23
TORSDOF 5
