REMARK  Name = ZINC00714791
REMARK  5 active torsions:
REMARK  status: ('A' for Active; 'I' for Inactive)
REMARK    1  A    between atoms: C_6  and  C_7
REMARK    2  A    between atoms: C_9  and  C_32
REMARK    3  A    between atoms: C_10  and  N_31
REMARK    4  A    between atoms: N_11  and  C_19
REMARK    5  A    between atoms: C_20  and  C_29
REMARK                            x       y       z     vdW  Elec       q    Type
REMARK                         _______ _______ _______ _____ _____    ______ ____
ROOT
ATOM      1  C   UNL     1       2.691  -0.274   2.945  0.00  0.00    +0.097 C 
ATOM      2  C   UNL     1       4.012   0.434   3.006  0.00  0.00    +0.077 C 
ATOM      3  C   UNL     1       4.185   1.647   2.422  0.00  0.00    +0.107 C 
ATOM      4  N   UNL     1       3.142   2.246   1.750  0.00  0.00    -0.253 N 
ATOM      5  C   UNL     1       2.078   1.500   1.313  0.00  0.00    +0.025 C 
ATOM      6  C   UNL     1       1.820   0.290   1.850  0.00  0.00    +0.025 C 
ATOM      7  C   UNL     1       0.731  -0.483   1.408  0.00  0.00    +0.162 C 
ATOM      8  O   UNL     1       0.535  -1.575   1.903  0.00  0.00    -0.292 OA
ATOM      9  C   UNL     1      -0.196   0.019   0.335  0.00  0.00    +0.080 C 
ATOM     10  C   UNL     1      -0.223   1.551   0.377  0.00  0.00    +0.014 C 
ATOM     11  C   UNL     1       1.209   2.065   0.215  0.00  0.00    +0.052 C 
ENDROOT
BRANCH   4  12
ATOM     12  C   UNL     1       3.169   3.614   1.515  0.00  0.00    +0.095 A 
ATOM     13  C   UNL     1       3.708   4.291   0.433  0.00  0.00    +0.084 A 
ATOM     14  C   UNL     1       3.600   5.743   0.419  0.00  0.00    -0.018 A 
ATOM     15  C   UNL     1       2.986   6.278   1.497  0.00  0.00    -0.004 A 
ATOM     16  S   UNL     1       2.543   4.890   2.505  0.00  0.00    -0.076 S 
ATOM     17  C   UNL     1       2.744   7.727   1.787  0.00  0.00    +0.043 C 
ATOM     18  C   UNL     1       2.135   8.397   0.548  0.00  0.00    +0.005 C 
ATOM     19  C   UNL     1       3.272   8.912  -0.329  0.00  0.00    +0.001 C 
ATOM     20  C   UNL     1       4.484   7.989  -0.217  0.00  0.00    +0.005 C 
ATOM     21  C   UNL     1       4.138   6.594  -0.725  0.00  0.00    +0.037 C 
BRANCH  13  22
ATOM     22  C   UNL     1       4.348   3.587  -0.637  0.00  0.00    +0.102 C 
ATOM     23  N   UNL     1       4.855   3.027  -1.486  0.00  0.00    -0.191 NA
ENDBRANCH  13  22
ENDBRANCH   4  12
BRANCH   1  29
ATOM     24  C   UNL     1       1.645   1.142   4.725  0.00  0.00    +0.007 A 
ATOM     25  C   UNL     1       0.993   1.285   5.934  0.00  0.00    +0.038 A 
ATOM     26  C   UNL     1       0.690   0.168   6.694  0.00  0.00    +0.123 A 
ATOM     27  C   UNL     1       1.035  -1.093   6.237  0.00  0.00    +0.038 A 
ATOM     28  C   UNL     1       1.682  -1.234   5.024  0.00  0.00    +0.007 A 
ATOM     29  C   UNL     1       1.985  -0.118   4.267  0.00  0.00    -0.035 A 
ATOM     30  F   UNL     1       0.058   0.308   7.880  0.00  0.00    -0.205 F 
ENDBRANCH   1  29
BRANCH   3  31
ATOM     31  N   UNL     1       5.404   2.279   2.501  0.00  0.00    -0.345 N 
ATOM     32  H   UNL     1       6.112   1.901   3.046  0.00  0.00    +0.144 HD
ATOM     33  H   UNL     1       5.555   3.103   2.011  0.00  0.00    +0.144 HD
ENDBRANCH   3  31
BRANCH   2  34
ATOM     34  C   UNL     1       5.108  -0.180   3.693  0.00  0.00    +0.099 C 
ATOM     35  N   UNL     1       5.978  -0.666   4.238  0.00  0.00    -0.191 NA
ENDBRANCH   2  34
TORSDOF 5
