REMARK  Name = ZINC55876665
REMARK  10 active torsions:
REMARK  status: ('A' for Active; 'I' for Inactive)
REMARK    1  A    between atoms: C_1  and  C_2
REMARK    2  A    between atoms: C_2  and  C_3
REMARK    3  A    between atoms: C_3  and  C_5
REMARK    4  A    between atoms: C_3  and  N_6
REMARK    5  A    between atoms: C_7  and  C_9
REMARK    6  A    between atoms: C_9  and  N_10
REMARK    7  A    between atoms: N_10  and  C_11
REMARK    8  A    between atoms: C_14  and  C_18
REMARK    9  A    between atoms: C_16  and  C_17
REMARK   10  A    between atoms: N_20  and  C_21
REMARK                            x       y       z     vdW  Elec       q    Type
REMARK                         _______ _______ _______ _____ _____    ______ ____
ROOT
ATOM      1  C   UNL     1       0.148   0.860  -7.253  0.00  0.00    +0.030 A 
ATOM      2  C   UNL     1      -1.210   1.133  -7.395  0.00  0.00    +0.024 A 
ATOM      3  C   UNL     1      -1.718   1.480  -8.626  0.00  0.00    +0.015 A 
ATOM      4  C   UNL     1      -0.869   1.558  -9.734  0.00  0.00    +0.037 A 
ATOM      5  C   UNL     1       0.494   1.283  -9.588  0.00  0.00    +0.018 A 
ATOM      6  C   UNL     1       0.997   0.942  -8.353  0.00  0.00    -0.029 A 
ATOM      7  C   UNL     1       2.467   0.651  -8.193  0.00  0.00    +0.045 C 
ENDROOT
BRANCH   4   8
ATOM      8  C   UNL     1      -1.410   1.929 -11.056  0.00  0.00    +0.244 C 
ATOM      9  O   UNL     1      -0.670   1.997 -12.018  0.00  0.00    -0.270 OA
ATOM     10  N   UNL     1      -2.724   2.194 -11.195  0.00  0.00    -0.308 N 
ATOM     11  H   UNL     1      -3.314   2.141 -10.427  0.00  0.00    +0.149 HD
BRANCH  10  12
ATOM     12  C   UNL     1      -3.261   2.563 -12.507  0.00  0.00    +0.073 C 
ATOM     13  C   UNL     1      -3.085   4.067 -12.726  0.00  0.00    +0.022 C 
ATOM     14  C   UNL     1      -3.646   4.452 -14.097  0.00  0.00    +0.002 C 
ATOM     15  C   UNL     1      -5.133   4.099 -14.156  0.00  0.00    +0.000 C 
ATOM     16  C   UNL     1      -5.310   2.595 -13.937  0.00  0.00    +0.002 C 
ATOM     17  C   UNL     1      -4.749   2.210 -12.567  0.00  0.00    +0.022 C 
ENDBRANCH  10  12
ENDBRANCH   4   8
BRANCH   1  18
ATOM     18  N   UNL     1       0.658   0.509  -6.008  0.00  0.00    -0.335 N 
ATOM     19  H   UNL     1       1.604   0.322  -5.906  0.00  0.00    +0.147 HD
BRANCH  18  20
ATOM     20  C   UNL     1      -0.234   0.422  -4.849  0.00  0.00    +0.197 C 
BRANCH  20  22
ATOM     21  N   UNL     1      -0.055  -0.114  -2.441  0.00  0.00    -0.311 N 
ATOM     22  C   UNL     1       0.561   0.028  -3.631  0.00  0.00    +0.230 C 
ATOM     23  O   UNL     1       1.755  -0.162  -3.722  0.00  0.00    -0.274 OA
ATOM     24  H   UNL     1      -1.010   0.038  -2.368  0.00  0.00    +0.149 HD
BRANCH  21  25
ATOM     25  C   UNL     1       0.718  -0.497  -1.257  0.00  0.00    +0.070 C 
ATOM     26  C   UNL     1       0.849  -2.021  -1.205  0.00  0.00    +0.028 C 
BRANCH  25  28
ATOM     27  C   UNL     1      -0.019   1.526   0.010  0.00  0.00    +0.005 C 
ATOM     28  C   UNL     1       0.002  -0.004   0.002  0.00  0.00    +0.018 C 
ENDBRANCH  25  28
ENDBRANCH  21  25
ENDBRANCH  20  22
ENDBRANCH  18  20
ENDBRANCH   1  18
TORSDOF 7
