REMARK  Name = ZINC14773149
REMARK  8 active torsions:
REMARK  status: ('A' for Active; 'I' for Inactive)
REMARK    1  A    between atoms: C_5  and  C_7
REMARK    2  A    between atoms: N_11  and  C_15
REMARK    3  A    between atoms: C_15  and  C_16
REMARK    4  A    between atoms: C_16  and  N_17
REMARK    5  A    between atoms: C_18  and  C_20
REMARK    6  A    between atoms: C_20  and  C_21
REMARK    7  A    between atoms: C_21  and  C_22
REMARK    8  A    between atoms: C_25  and  C_27
REMARK                            x       y       z     vdW  Elec       q    Type
REMARK                         _______ _______ _______ _____ _____    ______ ____
ROOT
ATOM      1  N   UNL     1      -3.046  -1.791  -0.874  0.00  0.00    -0.314 N 
ATOM      2  C   UNL     1      -3.650  -2.235  -1.994  0.00  0.00    +0.214 C 
ATOM      3  O   UNL     1      -3.136  -2.042  -3.076  0.00  0.00    -0.276 OA
ATOM      4  H   UNL     1      -3.457  -1.945  -0.009  0.00  0.00    +0.149 HD
ENDROOT
BRANCH   1   5
ATOM      5  C   UNL     1      -1.771  -1.076  -0.963  0.00  0.00    +0.123 C 
BRANCH   5   6
ATOM      6  C   UNL     1      -1.306  -0.685   0.442  0.00  0.00    +0.136 C 
BRANCH   6  11
ATOM      7  C   UNL     1       1.583   3.323   0.004  0.00  0.00    +0.031 C 
ATOM      8  C   UNL     1       1.283   2.007   0.139  0.00  0.00    +0.080 C 
ATOM      9  C   UNL     1      -0.035   1.346   0.223  0.00  0.00    +0.260 C 
ATOM     10  O   UNL     1      -1.073   1.980   0.171  0.00  0.00    -0.269 OA
ATOM     11  N   UNL     1      -0.031   0.030   0.353  0.00  0.00    -0.227 N 
ATOM     12  C   UNL     1       1.121  -0.669   0.405  0.00  0.00    +0.286 C 
ATOM     13  O   UNL     1       1.272  -1.870   0.520  0.00  0.00    -0.262 OA
ATOM     14  S   UNL     1       2.373   0.596   0.262  0.00  0.00    -0.026 S 
BRANCH   7  19
ATOM     15  C   UNL     1       5.249   3.377   0.787  0.00  0.00    +0.001 A 
ATOM     16  C   UNL     1       5.611   4.619   0.294  0.00  0.00    +0.003 A 
ATOM     17  C   UNL     1       4.667   5.442  -0.294  0.00  0.00    +0.039 A 
ATOM     18  C   UNL     1       3.352   5.029  -0.393  0.00  0.00    +0.131 A 
ATOM     19  C   UNL     1       2.978   3.772   0.104  0.00  0.00    +0.011 A 
ATOM     20  C   UNL     1       3.941   2.951   0.702  0.00  0.00    +0.011 A 
ATOM     21  F   UNL     1       2.430   5.833  -0.966  0.00  0.00    -0.205 F 
ENDBRANCH   7  19
ENDBRANCH   6  11
ENDBRANCH   5   6
ENDBRANCH   1   5
BRANCH   2  22
ATOM     22  C   UNL     1      -4.962  -2.970  -1.903  0.00  0.00    +0.105 C 
BRANCH  22  23
ATOM     23  C   UNL     1      -5.426  -3.361  -3.307  0.00  0.00    +0.105 C 
BRANCH  23  24
ATOM     24  C   UNL     1      -6.738  -4.096  -3.216  0.00  0.00    +0.197 A 
ATOM     25  N   UNL     1      -7.919  -3.545  -3.248  0.00  0.00    -0.221 NA
ATOM     26  C   UNL     1      -8.850  -4.505  -3.145  0.00  0.00    +0.161 A 
ATOM     27  C   UNL     1      -8.202  -5.693  -3.037  0.00  0.00    +0.155 A 
ATOM     28  O   UNL     1      -6.879  -5.423  -3.083  0.00  0.00    -0.440 OA
BRANCH  27  29
ATOM     29  C   UNL     1      -8.824  -7.027  -2.896  0.00  0.00    +0.019 A 
ATOM     30  C   UNL     1      -8.024  -8.166  -2.801  0.00  0.00    +0.013 A 
ATOM     31  C   UNL     1      -8.611  -9.408  -2.666  0.00  0.00    +0.021 A 
ATOM     32  C   UNL     1      -9.990  -9.525  -2.634  0.00  0.00    +0.041 A 
ATOM     33  C   UNL     1     -10.789  -8.398  -2.732  0.00  0.00    +0.021 A 
ATOM     34  C   UNL     1     -10.214  -7.151  -2.864  0.00  0.00    +0.013 A 
ATOM     35 CL   UNL     1     -10.721 -11.091  -2.469  0.00  0.00    -0.084 Cl
ENDBRANCH  27  29
ENDBRANCH  23  24
ENDBRANCH  22  23
ENDBRANCH   2  22
TORSDOF 8
