REMARK  Name = ZINC00719190
REMARK  7 active torsions:
REMARK  status: ('A' for Active; 'I' for Inactive)
REMARK    1  A    between atoms: C_1  and  C_2
REMARK    2  A    between atoms: C_3  and  C_14
REMARK    3  A    between atoms: C_14  and  C_15
REMARK    4  A    between atoms: C_15  and  N_16
REMARK    5  A    between atoms: C_17  and  C_19
REMARK    6  A    between atoms: C_19  and  N_20
REMARK    7  A    between atoms: C_29  and  C_31
REMARK                            x       y       z     vdW  Elec       q    Type
REMARK                         _______ _______ _______ _____ _____    ______ ____
ROOT
ATOM      1  N   UNL     1      -3.907  -3.938  -1.651  0.00  0.00    -0.313 N 
ATOM      2  C   UNL     1      -2.796  -3.214  -1.411  0.00  0.00    +0.235 C 
ATOM      3  O   UNL     1      -2.145  -2.777  -2.337  0.00  0.00    -0.274 OA
ATOM      4  H   UNL     1      -4.428  -4.287  -0.911  0.00  0.00    +0.149 HD
ENDROOT
BRANCH   1   5
ATOM      5  C   UNL     1      -4.329  -4.197  -3.030  0.00  0.00    +0.109 C 
BRANCH   5   6
ATOM      6  C   UNL     1      -5.609  -5.035  -3.023  0.00  0.00    +0.056 C 
BRANCH   6   9
ATOM      7  C   UNL     1      -7.519  -3.266  -4.714  0.00  0.00    +0.063 C 
ATOM      8  C   UNL     1      -6.868  -4.543  -5.180  0.00  0.00    +0.017 A 
ATOM      9  C   UNL     1      -6.043  -5.302  -4.441  0.00  0.00    -0.018 A 
ATOM     10  C   UNL     1      -5.649  -6.442  -5.273  0.00  0.00    +0.005 A 
ATOM     11  C   UNL     1      -4.829  -7.553  -5.070  0.00  0.00    +0.012 A 
ATOM     12  C   UNL     1      -4.660  -8.465  -6.073  0.00  0.00    +0.022 A 
ATOM     13  C   UNL     1      -5.298  -8.296  -7.296  0.00  0.00    +0.061 A 
ATOM     14  C   UNL     1      -6.112  -7.204  -7.518  0.00  0.00    +0.083 A 
ATOM     15  C   UNL     1      -6.298  -6.264  -6.508  0.00  0.00    +0.067 A 
ATOM     16  N   UNL     1      -7.028  -5.099  -6.420  0.00  0.00    -0.357 N 
ATOM     17  H   UNL     1      -7.577  -4.730  -7.130  0.00  0.00    +0.166 HD
ATOM     18 CL   UNL     1      -6.902  -7.005  -9.051  0.00  0.00    -0.080 Cl
ATOM     19 CL   UNL     1      -5.068  -9.467  -8.555  0.00  0.00    -0.082 Cl
ENDBRANCH   6   9
ENDBRANCH   5   6
ENDBRANCH   1   5
BRANCH   2  20
ATOM     20  C   UNL     1      -2.362  -2.947   0.007  0.00  0.00    +0.243 C 
BRANCH  20  21
ATOM     21  N   UNL     1      -1.136  -2.145   0.000  0.00  0.00    -0.220 N 
ATOM     22  C   UNL     1      -1.232  -0.799   0.009  0.00  0.00    +0.275 A 
ATOM     23  O   UNL     1      -2.321  -0.255   0.022  0.00  0.00    -0.266 OA
ATOM     24  C   UNL     1       0.002  -0.004   0.002  0.00  0.00    +0.050 A 
ATOM     25  C   UNL     1      -0.017   1.390   0.010  0.00  0.00    +0.014 A 
ATOM     26  C   UNL     1       1.174   2.083   0.002  0.00  0.00    +0.001 A 
ATOM     27  C   UNL     1       2.387   1.406  -0.013  0.00  0.00    +0.001 A 
ATOM     28  C   UNL     1       2.430   0.040  -0.021  0.00  0.00    +0.010 A 
ATOM     29  C   UNL     1       1.239  -0.688  -0.013  0.00  0.00    +0.010 A 
ATOM     30  C   UNL     1       1.229  -2.151  -0.022  0.00  0.00    +0.066 A 
ATOM     31  N   UNL     1       0.099  -2.794  -0.015  0.00  0.00    -0.172 NA
ATOM     32  C   UNL     1       2.529  -2.914  -0.038  0.00  0.00    +0.068 C 
ENDBRANCH  20  21
ENDBRANCH   2  20
TORSDOF 5
