REMARK  Name = ZINC36593552
REMARK  18 active torsions:
REMARK  status: ('A' for Active; 'I' for Inactive)
REMARK    1  A    between atoms: C_1  and  C_2
REMARK    2  A    between atoms: C_2  and  C_3
REMARK    3  A    between atoms: C_2  and  C_4
REMARK    4  A    between atoms: C_2  and  C_5
REMARK    5  A    between atoms: C_5  and  C_6
REMARK    6  A    between atoms: C_6  and  C_7
REMARK    7  A    between atoms: C_6  and  C_8
REMARK    8  A    between atoms: C_6  and  N_9
REMARK    9  A    between atoms: C_10  and  C_12
REMARK   10  A    between atoms: C_12  and  C_14
REMARK   11  A    between atoms: C_12  and  N_21
REMARK   12  A    between atoms: C_19  and  O_20
REMARK   13  A    between atoms: N_21  and  C_33
REMARK   14  A    between atoms: C_22  and  C_24
REMARK   15  A    between atoms: C_27  and  N_30
REMARK   16  A    between atoms: C_33  and  C_34
REMARK   17  A    between atoms: C_33  and  C_35
REMARK   18  A    between atoms: C_33  and  C_36
REMARK                            x       y       z     vdW  Elec       q    Type
REMARK                         _______ _______ _______ _____ _____    ______ ____
ROOT
ATOM      1  C   UNL     1       5.338  -0.121  -3.551  0.00  0.00    +0.196 C 
ENDROOT
BRANCH   1   2
ATOM      2  C   UNL     1       4.330  -0.159  -4.671  0.00  0.00    +0.023 A 
ATOM      3  C   UNL     1       3.428   0.876  -4.824  0.00  0.00    +0.009 A 
ATOM      4  C   UNL     1       2.503   0.843  -5.851  0.00  0.00    +0.001 A 
ATOM      5  C   UNL     1       2.479  -0.227  -6.728  0.00  0.00    +0.004 A 
ATOM      6  C   UNL     1       3.379  -1.264  -6.579  0.00  0.00    +0.046 A 
ATOM      7  C   UNL     1       4.312  -1.229  -5.552  0.00  0.00    +0.122 A 
BRANCH   7   8
ATOM      8  O   UNL     1       5.202  -2.245  -5.407  0.00  0.00    -0.506 OA
ATOM      9  H   UNL     1       4.923  -2.926  -4.780  0.00  0.00    +0.292 HD
ENDBRANCH   7   8
ENDBRANCH   1   2
BRANCH   1  11
ATOM     10  N   UNL     1       3.859   0.957  -1.886  0.00  0.00    -0.308 N 
ATOM     11  C   UNL     1       4.997   1.003  -2.606  0.00  0.00    +0.239 C 
ATOM     12  O   UNL     1       5.748   1.949  -2.494  0.00  0.00    -0.273 OA
ATOM     13  H   UNL     1       3.295   0.169  -1.920  0.00  0.00    +0.149 HD
BRANCH  10  14
ATOM     14  C   UNL     1       3.473   2.098  -1.052  0.00  0.00    +0.030 C 
ATOM     15  C   UNL     1       3.639   3.393  -1.851  0.00  0.00    +0.031 C 
ATOM     16  C   UNL     1       4.366   2.147   0.190  0.00  0.00    +0.031 C 
BRANCH  14  17
ATOM     17  C   UNL     1       2.012   1.946  -0.624  0.00  0.00    +0.031 C 
BRANCH  17  19
ATOM     18  C   UNL     1       1.375   0.032  -2.097  0.00  0.00    +0.010 C 
ATOM     19  C   UNL     1       1.169   1.524  -1.829  0.00  0.00    -0.036 C 
ATOM     20  C   UNL     1       1.599   2.327  -3.058  0.00  0.00    +0.010 C 
ATOM     21  C   UNL     1      -0.309   1.790  -1.536  0.00  0.00    +0.010 C 
ENDBRANCH  17  19
ENDBRANCH  14  17
ENDBRANCH  10  14
ENDBRANCH   1  11
BRANCH   1  22
ATOM     22  N   UNL     1       6.676   0.095  -4.105  0.00  0.00    -0.277 N 
ATOM     23  C   UNL     1       7.766  -0.242  -3.387  0.00  0.00    +0.248 C 
ATOM     24  O   UNL     1       8.877  -0.008  -3.821  0.00  0.00    -0.270 OA
BRANCH  23  25
ATOM     25  C   UNL     1       7.610  -0.897  -2.071  0.00  0.00    +0.037 A 
ATOM     26  C   UNL     1       6.385  -0.846  -1.403  0.00  0.00    +0.015 A 
ATOM     27  C   UNL     1       6.246  -1.460  -0.175  0.00  0.00    +0.033 A 
ATOM     28  C   UNL     1       7.317  -2.125   0.394  0.00  0.00    +0.126 A 
ATOM     29  C   UNL     1       8.534  -2.179  -0.262  0.00  0.00    +0.033 A 
ATOM     30  C   UNL     1       8.684  -1.575  -1.493  0.00  0.00    +0.015 A 
BRANCH  28  31
ATOM     31  N   UNL     1       7.161  -2.781   1.712  0.00  0.00    +0.056 N 
ATOM     32  O   UNL     1       6.099  -2.735   2.288  0.00  0.00    -0.126 OA
ATOM     33  O   UNL     1       8.095  -3.363   2.212  0.00  0.00    -0.126 OA
ENDBRANCH  28  31
ENDBRANCH  23  25
BRANCH  22  34
ATOM     34  C   UNL     1       6.831   0.678  -5.440  0.00  0.00    +0.030 C 
ATOM     35  C   UNL     1       5.694   1.669  -5.699  0.00  0.00    +0.031 C 
ATOM     36  C   UNL     1       8.173   1.408  -5.526  0.00  0.00    +0.031 C 
ATOM     37  C   UNL     1       6.787  -0.434  -6.490  0.00  0.00    +0.031 C 
ENDBRANCH  22  34
ENDBRANCH   1  22
TORSDOF 10
