REMARK  Name = ZINC39665439
REMARK  10 active torsions:
REMARK  status: ('A' for Active; 'I' for Inactive)
REMARK    1  A    between atoms: C_1  and  C_2
REMARK    2  A    between atoms: C_2  and  C_3
REMARK    3  A    between atoms: C_2  and  C_4
REMARK    4  A    between atoms: C_4  and  C_6
REMARK    5  A    between atoms: C_4  and  N_9
REMARK    6  A    between atoms: C_10  and  C_28
REMARK    7  A    between atoms: C_13  and  S_14
REMARK    8  A    between atoms: S_14  and  C_15
REMARK    9  A    between atoms: C_15  and  C_16
REMARK   10  A    between atoms: N_18  and  C_19
REMARK                            x       y       z     vdW  Elec       q    Type
REMARK                         _______ _______ _______ _____ _____    ______ ____
ROOT
ATOM      1  N   UNL     1      -2.157  -0.072  -1.174  0.00  0.00    -0.287 N 
ATOM      2  C   UNL     1      -3.295   0.704  -1.205  0.00  0.00    +0.172 A 
ATOM      3  N   UNL     1      -3.591   0.901  -2.470  0.00  0.00    -0.128 NA
ATOM      4  N   UNL     1      -2.730   0.311  -3.220  0.00  0.00    -0.122 NA
ATOM      5  C   UNL     1      -1.828  -0.295  -2.482  0.00  0.00    +0.193 A 
ENDROOT
BRANCH   2   6
ATOM      6  C   UNL     1      -4.038   1.215  -0.042  0.00  0.00    +0.056 A 
ATOM      7  C   UNL     1      -4.996   2.196   0.009  0.00  0.00    +0.019 A 
ATOM      8  C   UNL     1      -5.558   2.508   1.227  0.00  0.00    +0.008 A 
ATOM      9  C   UNL     1      -5.150   1.838   2.336  0.00  0.00    +0.046 A 
ATOM     10  S   UNL     1      -3.933   0.714   1.669  0.00  0.00    -0.094 S 
ENDBRANCH   2   6
BRANCH   1  11
ATOM     11  C   UNL     1      -1.446  -0.554   0.013  0.00  0.00    +0.206 C 
BRANCH  11  13
ATOM     12  C   UNL     1      -0.046   1.516   0.013  0.00  0.00    +0.010 C 
ATOM     13  C   UNL     1      -0.014  -0.014   0.003  0.00  0.00    +0.017 C 
ATOM     14  C   UNL     1       0.729  -0.516   1.243  0.00  0.00    +0.010 C 
ENDBRANCH  11  13
BRANCH  11  15
ATOM     15  C   UNL     1      -1.415  -2.060   0.004  0.00  0.00    +0.379 C 
ATOM     16  O   UNL     1      -0.347  -2.648  -0.010  0.00  0.00    -0.244 OA
ATOM     17  O   UNL     1      -2.458  -2.692   0.010  0.00  0.00    -0.244 OA
ENDBRANCH  11  15
ENDBRANCH   1  11
BRANCH   5  18
ATOM     18  S   UNL     1      -0.451  -1.225  -3.069  0.00  0.00    -0.077 S 
BRANCH  18  19
ATOM     19  C   UNL     1      -0.594  -1.129  -4.874  0.00  0.00    +0.173 C 
BRANCH  19  20
ATOM     20  C   UNL     1       0.538  -1.894  -5.510  0.00  0.00    +0.228 C 
ATOM     21  O   UNL     1       1.360  -2.450  -4.813  0.00  0.00    -0.275 OA
ATOM     22  N   UNL     1       0.637  -1.961  -6.852  0.00  0.00    -0.283 N 
ATOM     23  H   UNL     1      -0.056  -1.573  -7.409  0.00  0.00    +0.155 HD
BRANCH  22  24
ATOM     24  C   UNL     1       1.737  -2.588  -7.441  0.00  0.00    +0.062 A 
ATOM     25  C   UNL     1       2.298  -3.676  -6.847  0.00  0.00    +0.025 A 
ATOM     26  C   UNL     1       3.396  -4.325  -7.409  0.00  0.00    +0.004 A 
ATOM     27  C   UNL     1       3.952  -3.902  -8.569  0.00  0.00    +0.031 A 
ATOM     28  C   UNL     1       3.421  -2.771  -9.248  0.00  0.00    +0.102 A 
ATOM     29  C   UNL     1       2.268  -2.092  -8.668  0.00  0.00    +0.121 A 
ATOM     30  N   UNL     1       1.853  -1.053  -9.392  0.00  0.00    -0.189 NA
ATOM     31  S   UNL     1       2.839  -0.986 -10.662  0.00  0.00    +0.117 S 
ATOM     32  N   UNL     1       3.836  -2.219 -10.388  0.00  0.00    -0.191 NA
ENDBRANCH  22  24
ENDBRANCH  19  20
ENDBRANCH  18  19
ENDBRANCH   5  18
TORSDOF 8
