REMARK  Name = ZINC39932397
REMARK  3 active torsions:
REMARK  status: ('A' for Active; 'I' for Inactive)
REMARK    1  A    between atoms: C_7  and  C_10
REMARK    2  A    between atoms: C_16  and  C_18
REMARK    3  A    between atoms: C_19  and  C_20
REMARK                            x       y       z     vdW  Elec       q    Type
REMARK                         _______ _______ _______ _____ _____    ______ ____
ROOT
ATOM      1  C   UNL     1       0.673  -3.130  -0.021  0.00  0.00    -0.043 C 
ATOM      2  C   UNL     1      -0.624  -2.873   0.090  0.00  0.00    -0.004 C 
ATOM      3  C   UNL     1      -1.677  -3.945   0.123  0.00  0.00    +0.135 C 
ATOM      4  N   UNL     1      -1.068  -5.230  -0.249  0.00  0.00    -0.294 N 
ATOM      5  C   UNL     1       0.242  -5.555   0.340  0.00  0.00    +0.113 C 
ATOM      6  C   UNL     1       1.250  -4.509  -0.149  0.00  0.00    +0.054 C 
ATOM      7  C   UNL     1      -1.685  -6.078  -1.096  0.00  0.00    +0.240 C 
ATOM      8  O   UNL     1      -1.159  -7.136  -1.387  0.00  0.00    -0.271 OA
ENDROOT
BRANCH   1  15
ATOM      9  C   UNL     1       5.151  -2.873  -0.693  0.00  0.00    +0.001 A 
ATOM     10  C   UNL     1       5.657  -1.572  -0.610  0.00  0.00    +0.002 A 
ATOM     11  C   UNL     1       4.859  -0.508  -0.351  0.00  0.00    +0.026 A 
ATOM     12  C   UNL     1       3.465  -0.702  -0.156  0.00  0.00    +0.043 A 
ATOM     13  N   UNL     1       2.496   0.148   0.103  0.00  0.00    -0.380 N 
ATOM     14  C   UNL     1       1.229  -0.583   0.211  0.00  0.00    +0.149 C 
ATOM     15  C   UNL     1       1.565  -2.039  -0.024  0.00  0.00    -0.016 C 
ATOM     16  C   UNL     1       2.936  -2.076  -0.245  0.00  0.00    +0.003 A 
ATOM     17  C   UNL     1       3.832  -3.135  -0.518  0.00  0.00    +0.010 A 
ATOM     18  H   UNL     1       2.602   1.107   0.207  0.00  0.00    +0.160 HD
ENDBRANCH   1  15
BRANCH   7  19
ATOM     19  C   UNL     1      -2.993  -5.725  -1.667  0.00  0.00    +0.068 C 
ATOM     20  C   UNL     1      -3.601  -6.562  -2.503  0.00  0.00    +0.042 C 
BRANCH  20  21
ATOM     21  C   UNL     1      -4.942  -6.200  -3.089  0.00  0.00    +0.285 C 
ATOM     22  N   UNL     1      -4.862  -6.172  -4.556  0.00  0.00    -0.303 N 
ATOM     23  C   UNL     1      -5.766  -7.140  -5.016  0.00  0.00    +0.072 A 
ATOM     24  C   UNL     1      -6.098  -7.537  -6.304  0.00  0.00    +0.027 A 
ATOM     25  C   UNL     1      -7.037  -8.532  -6.501  0.00  0.00    +0.002 A 
ATOM     26  C   UNL     1      -7.647  -9.132  -5.415  0.00  0.00    +0.004 A 
ATOM     27  C   UNL     1      -7.322  -8.741  -4.131  0.00  0.00    +0.047 A 
ATOM     28  C   UNL     1      -6.378  -7.742  -3.922  0.00  0.00    +0.144 A 
ATOM     29  O   UNL     1      -5.908  -7.202  -2.764  0.00  0.00    -0.466 OA
ATOM     30  H   UNL     1      -4.298  -5.598  -5.097  0.00  0.00    +0.150 HD
ENDBRANCH  20  21
ENDBRANCH   7  19
TORSDOF 3
