REMARK  Name = ZINC04950846
REMARK  3 active torsions:
REMARK  status: ('A' for Active; 'I' for Inactive)
REMARK    1  A    between atoms: C_1  and  C_2
REMARK    2  A    between atoms: C_11  and  C_13
REMARK    3  A    between atoms: N_15  and  C_16
REMARK                            x       y       z     vdW  Elec       q    Type
REMARK                         _______ _______ _______ _____ _____    ______ ____
ROOT
ATOM      1  C   UNL     1       8.592   1.761  -0.068  0.00  0.00    +0.044 C 
ATOM      2  C   UNL     1       7.496   2.795  -0.051  0.00  0.00    -0.050 A 
ATOM      3  C   UNL     1       7.820   4.144  -0.047  0.00  0.00    +0.005 A 
ATOM      4  C   UNL     1       6.829   5.102  -0.033  0.00  0.00    +0.026 A 
ATOM      5  C   UNL     1       5.493   4.722  -0.023  0.00  0.00    +0.050 A 
ATOM      6  C   UNL     1       5.161   3.354  -0.027  0.00  0.00    +0.013 A 
ATOM      7  C   UNL     1       6.178   2.396  -0.041  0.00  0.00    +0.014 A 
ATOM      8  C   UNL     1       3.756   2.970  -0.016  0.00  0.00    +0.034 A 
ATOM      9  C   UNL     1       2.740   3.943  -0.002  0.00  0.00    +0.055 A 
ATOM     10  C   UNL     1       1.431   3.446   0.007  0.00  0.00    +0.034 A 
ATOM     11  C   UNL     1       1.244   2.094   0.001  0.00  0.00    +0.075 A 
ATOM     12  S   UNL     1       2.914   1.468  -0.010  0.00  0.00    -0.083 S 
ATOM     13  C   UNL     1       3.189   5.355   0.001  0.00  0.00    +0.257 A 
ATOM     14  O   UNL     1       2.358   6.245   0.013  0.00  0.00    -0.267 OA
ATOM     15  N   UNL     1       4.490   5.673  -0.008  0.00  0.00    -0.322 N 
ATOM     16  H   UNL     1       4.746   6.639  -0.004  0.00  0.00    +0.169 HD
ENDROOT
BRANCH  11  17
ATOM     17  C   UNL     1      -0.016   1.344   0.009  0.00  0.00    +0.251 C 
ATOM     18  O   UNL     1      -1.078   1.938   0.018  0.00  0.00    -0.270 OA
ATOM     19  N   UNL     1       0.002  -0.004   0.002  0.00  0.00    -0.308 N 
ATOM     20  H   UNL     1       0.849  -0.478  -0.009  0.00  0.00    +0.149 HD
BRANCH  19  21
ATOM     21  C   UNL     1      -1.256  -0.754   0.010  0.00  0.00    +0.073 C 
ATOM     22  C   UNL     1      -1.755  -0.877   1.464  0.00  0.00    +0.022 C 
ATOM     23  C   UNL     1      -3.232  -1.167   1.440  0.00  0.00    +0.002 C 
ATOM     24  C   UNL     1      -3.536  -2.676   1.511  0.00  0.00    +0.000 C 
ATOM     25  C   UNL     1      -2.590  -3.518   0.635  0.00  0.00    +0.000 C 
ATOM     26  C   UNL     1      -2.330  -2.885  -0.706  0.00  0.00    +0.002 C 
ATOM     27  C   UNL     1      -1.036  -2.051  -0.611  0.00  0.00    +0.022 C 
ENDBRANCH  19  21
ENDBRANCH  11  17
TORSDOF 2
