REMARK  Name = ZINC64507180
REMARK  11 active torsions:
REMARK  status: ('A' for Active; 'I' for Inactive)
REMARK    1  A    between atoms: C_1  and  C_2
REMARK    2  A    between atoms: C_2  and  N_3
REMARK    3  A    between atoms: N_3  and  C_4
REMARK    4  A    between atoms: N_3  and  S_6
REMARK    5  A    between atoms: C_4  and  C_5
REMARK    6  A    between atoms: S_6  and  C_9
REMARK    7  A    between atoms: C_16  and  C_20
REMARK    8  A    between atoms: N_18  and  C_19
REMARK    9  A    between atoms: N_22  and  C_23
REMARK   10  A    between atoms: C_23  and  C_24
REMARK   11  A    between atoms: C_24  and  C_25
REMARK                            x       y       z     vdW  Elec       q    Type
REMARK                         _______ _______ _______ _____ _____    ______ ____
ROOT
ATOM      1  C   UNL     1      -2.898   0.520   2.058  0.00  0.00    +0.106 A 
ATOM      2  C   UNL     1      -2.217   1.397   2.882  0.00  0.00    +0.030 A 
ATOM      3  C   UNL     1      -2.844   2.527   3.362  0.00  0.00    +0.025 A 
ATOM      4  C   UNL     1      -4.171   2.795   3.021  0.00  0.00    +0.033 A 
ATOM      5  C   UNL     1      -4.845   1.909   2.193  0.00  0.00    -0.022 A 
ATOM      6  C   UNL     1      -4.210   0.781   1.710  0.00  0.00    +0.034 A 
ATOM      7  C   UNL     1      -6.250   2.425   1.979  0.00  0.00    +0.069 C 
ATOM      8  C   UNL     1      -6.310   3.730   2.791  0.00  0.00    +0.163 C 
ATOM      9  N   UNL     1      -4.981   3.868   3.394  0.00  0.00    -0.321 N 
ATOM     10  C   UNL     1      -4.565   4.972   4.262  0.00  0.00    +0.130 C 
ENDROOT
BRANCH   8  11
ATOM     11  C   UNL     1      -7.365   3.631   3.862  0.00  0.00    +0.234 C 
ATOM     12  O   UNL     1      -7.046   3.384   5.006  0.00  0.00    -0.274 OA
ATOM     13  N   UNL     1      -8.663   3.817   3.550  0.00  0.00    -0.313 N 
ATOM     14  H   UNL     1      -8.917   4.015   2.635  0.00  0.00    +0.149 HD
BRANCH  13  15
ATOM     15  C   UNL     1      -9.688   3.721   4.591  0.00  0.00    +0.108 C 
BRANCH  15  16
ATOM     16  C   UNL     1     -11.066   3.973   3.975  0.00  0.00    +0.052 C 
BRANCH  16  17
ATOM     17  C   UNL     1     -12.121   3.874   5.047  0.00  0.00    -0.040 C 
ATOM     18  C   UNL     1     -12.657   4.893   5.756  0.00  0.00    +0.000 A 
ATOM     19  C   UNL     1     -12.427   6.342   5.743  0.00  0.00    +0.030 A 
ATOM     20  C   UNL     1     -13.133   7.126   6.591  0.00  0.00    +0.042 A 
ATOM     21  C   UNL     1     -14.075   6.589   7.480  0.00  0.00    +0.022 A 
ATOM     22  C   UNL     1     -14.341   5.268   7.550  0.00  0.00    +0.027 A 
ATOM     23  C   UNL     1     -13.658   4.351   6.703  0.00  0.00    +0.043 A 
ATOM     24  N   UNL     1     -13.737   3.048   6.584  0.00  0.00    -0.380 N 
ATOM     25  C   UNL     1     -12.799   2.616   5.542  0.00  0.00    +0.144 C 
ATOM     26 CL   UNL     1     -12.864   8.841   6.579  0.00  0.00    -0.084 Cl
ATOM     27  H   UNL     1     -14.321   2.467   7.097  0.00  0.00    +0.160 HD
ENDBRANCH  16  17
ENDBRANCH  15  16
ENDBRANCH  13  15
ENDBRANCH   8  11
BRANCH   1  28
ATOM     28  S   UNL     1      -2.092  -0.923   1.446  0.00  0.00    +0.061 S 
ATOM     29  O   UNL     1      -3.116  -1.857   1.133  0.00  0.00    -0.153 OA
ATOM     30  O   UNL     1      -1.043  -1.219   2.357  0.00  0.00    -0.153 OA
BRANCH  28  31
ATOM     31  N   UNL     1      -1.372  -0.511   0.012  0.00  0.00    -0.177 NA
BRANCH  31  33
ATOM     32  C   UNL     1      -0.019   1.526   0.010  0.00  0.00    +0.022 C 
ATOM     33  C   UNL     1       0.002  -0.004   0.002  0.00  0.00    +0.106 C 
ENDBRANCH  31  33
BRANCH  31  34
ATOM     34  C   UNL     1      -2.110  -0.654  -1.245  0.00  0.00    +0.106 C 
ATOM     35  C   UNL     1      -1.773  -2.003  -1.884  0.00  0.00    +0.022 C 
ENDBRANCH  31  34
ENDBRANCH  28  31
ENDBRANCH   1  28
TORSDOF 8
