REMARK  Name = ZINC56770929
REMARK  7 active torsions:
REMARK  status: ('A' for Active; 'I' for Inactive)
REMARK    1  A    between atoms: C_1  and  C_2
REMARK    2  A    between atoms: C_9  and  C_11
REMARK    3  A    between atoms: N_19  and  C_20
REMARK    4  A    between atoms: C_20  and  C_22
REMARK    5  A    between atoms: C_20  and  C_23
REMARK    6  A    between atoms: C_23  and  C_24
REMARK    7  A    between atoms: C_27  and  O_30
REMARK                            x       y       z     vdW  Elec       q    Type
REMARK                         _______ _______ _______ _____ _____    ______ ____
ROOT
ATOM      1  C   UNL     1      -0.137  -6.335  -0.954  0.00  0.00    +0.078 C 
ATOM      2  C   UNL     1      -1.378  -6.737  -0.154  0.00  0.00    +0.032 C 
ATOM      3  C   UNL     1      -1.449  -8.264  -0.060  0.00  0.00    +0.110 C 
ATOM      4  N   UNL     1      -1.400  -8.824  -1.418  0.00  0.00    -0.286 N 
ATOM      5  C   UNL     1      -0.295  -8.431  -2.304  0.00  0.00    +0.110 C 
ATOM      6  C   UNL     1      -0.237  -6.902  -2.372  0.00  0.00    +0.032 C 
ATOM      7  C   UNL     1      -2.349  -9.681  -1.842  0.00  0.00    +0.302 C 
ATOM      8  O   UNL     1      -2.249 -10.208  -2.933  0.00  0.00    -0.253 OA
ATOM      9  N   UNL     1      -3.410  -9.954  -1.057  0.00  0.00    -0.296 N 
ATOM     10  H   UNL     1      -3.454  -9.592  -0.158  0.00  0.00    +0.151 HD
ENDROOT
BRANCH   1  19
ATOM     11  C   UNL     1      -0.035   1.500  -0.194  0.00  0.00    +0.045 C 
ATOM     12  C   UNL     1      -0.012  -0.002  -0.073  0.00  0.00    -0.032 A 
ATOM     13  C   UNL     1       0.003  -0.605   1.178  0.00  0.00    +0.008 A 
ATOM     14  C   UNL     1       0.024  -1.987   1.244  0.00  0.00    +0.044 A 
ATOM     15  C   UNL     1       0.030  -2.721   0.064  0.00  0.00    +0.125 A 
ATOM     16  N   UNL     1       0.015  -2.109  -1.110  0.00  0.00    -0.240 NA
ATOM     17  C   UNL     1      -0.011  -0.794  -1.204  0.00  0.00    +0.116 A 
ATOM     18  N   UNL     1       0.051  -4.114   0.117  0.00  0.00    -0.270 N 
ATOM     19  C   UNL     1      -0.045  -4.833  -1.019  0.00  0.00    +0.221 C 
ATOM     20  O   UNL     1      -0.059  -4.270  -2.094  0.00  0.00    -0.275 OA
ATOM     21  H   UNL     1       0.137  -4.565   0.971  0.00  0.00    +0.156 HD
ENDBRANCH   1  19
BRANCH   9  22
ATOM     22  C   UNL     1      -4.497 -10.797  -1.562  0.00  0.00    +0.076 C 
ATOM     23  C   UNL     1      -5.487  -9.936  -2.349  0.00  0.00    +0.028 C 
BRANCH  22  24
ATOM     24  C   UNL     1      -5.219 -11.457  -0.385  0.00  0.00    +0.057 C 
BRANCH  24  25
ATOM     25  C   UNL     1      -4.276 -12.399   0.318  0.00  0.00    -0.045 A 
ATOM     26  C   UNL     1      -4.196 -13.720  -0.082  0.00  0.00    +0.007 A 
ATOM     27  C   UNL     1      -3.333 -14.587   0.561  0.00  0.00    +0.045 A 
ATOM     28  C   UNL     1      -2.546 -14.130   1.608  0.00  0.00    +0.117 A 
ATOM     29  C   UNL     1      -2.628 -12.804   2.007  0.00  0.00    +0.045 A 
ATOM     30  C   UNL     1      -3.489 -11.940   1.357  0.00  0.00    +0.007 A 
BRANCH  28  31
ATOM     31  O   UNL     1      -1.697 -14.980   2.242  0.00  0.00    -0.507 OA
ATOM     32  H   UNL     1      -0.812 -15.015   1.853  0.00  0.00    +0.292 HD
ENDBRANCH  28  31
ENDBRANCH  24  25
ENDBRANCH  22  24
ENDBRANCH   9  22
TORSDOF 5
