REMARK  Name = ZINC44813614
REMARK  10 active torsions:
REMARK  status: ('A' for Active; 'I' for Inactive)
REMARK    1  A    between atoms: C_1  and  C_2
REMARK    2  A    between atoms: C_2  and  C_3
REMARK    3  A    between atoms: C_2  and  C_4
REMARK    4  A    between atoms: C_2  and  C_5
REMARK    5  A    between atoms: C_8  and  C_11
REMARK    6  A    between atoms: C_13  and  C_16
REMARK    7  A    between atoms: C_16  and  N_17
REMARK    8  A    between atoms: C_21  and  C_24
REMARK    9  A    between atoms: C_29  and  C_32
REMARK   10  A    between atoms: C_32  and  C_33
REMARK                            x       y       z     vdW  Elec       q    Type
REMARK                         _______ _______ _______ _____ _____    ______ ____
ROOT
ATOM      1  N   UNL     1       6.450  -3.205  -6.450  0.00  0.00    +0.386 N 
ATOM      2  C   UNL     1       5.844  -4.480  -6.852  0.00  0.00    -0.078 C 
ATOM      3  C   UNL     1       6.675  -5.641  -6.302  0.00  0.00    -0.018 C 
ATOM      4  C   UNL     1       8.098  -5.552  -6.861  0.00  0.00    +0.009 C 
ATOM      5  C   UNL     1       8.694  -4.189  -6.499  0.00  0.00    +0.059 C 
ATOM      6  C   UNL     1       7.788  -3.081  -7.042  0.00  0.00    -0.065 C 
ATOM      7  H   UNL     1       6.524  -3.173  -5.444  0.00  0.00    -0.081 HD
ENDROOT
BRANCH   5   8
ATOM      8  C   UNL     1      10.066  -4.061  -7.109  0.00  0.00    +0.217 C 
ATOM      9  O   UNL     1      10.188  -3.674  -8.253  0.00  0.00    -0.275 OA
ATOM     10  N   UNL     1      11.158  -4.377  -6.385  0.00  0.00    -0.301 N 
ATOM     11  C   UNL     1      11.023  -4.963  -5.045  0.00  0.00    +0.108 C 
ATOM     12  C   UNL     1      11.836  -6.260  -4.990  0.00  0.00    +0.023 C 
ATOM     13  C   UNL     1      13.280  -5.971  -5.407  0.00  0.00    -0.004 C 
ATOM     14  C   UNL     1      13.302  -5.447  -6.845  0.00  0.00    +0.023 C 
ATOM     15  C   UNL     1      12.506  -4.146  -6.923  0.00  0.00    +0.108 C 
BRANCH  13  16
ATOM     16  C   UNL     1      14.103  -7.258  -5.320  0.00  0.00    +0.038 C 
BRANCH  16  17
ATOM     17  C   UNL     1      15.549  -6.950  -5.612  0.00  0.00    -0.047 A 
ATOM     18  C   UNL     1      16.019  -7.004  -6.910  0.00  0.00    +0.003 A 
ATOM     19  C   UNL     1      17.346  -6.721  -7.178  0.00  0.00    +0.000 A 
ATOM     20  C   UNL     1      18.202  -6.384  -6.146  0.00  0.00    +0.000 A 
ATOM     21  C   UNL     1      17.731  -6.329  -4.848  0.00  0.00    +0.000 A 
ATOM     22  C   UNL     1      16.404  -6.607  -4.581  0.00  0.00    +0.003 A 
ENDBRANCH  16  17
ENDBRANCH  13  16
ENDBRANCH   5   8
BRANCH   1  23
ATOM     23  C   UNL     1       5.607  -2.095  -6.913  0.00  0.00    +0.022 C 
BRANCH  23  26
ATOM     24  C   UNL     1       2.705  -1.825  -4.751  0.00  0.00    +0.202 A 
ATOM     25  N   UNL     1       3.982  -1.567  -5.085  0.00  0.00    -0.193 NA
ATOM     26  C   UNL     1       4.274  -2.151  -6.212  0.00  0.00    +0.211 A 
ATOM     27  O   UNL     1       3.190  -2.808  -6.644  0.00  0.00    -0.340 OA
ATOM     28  N   UNL     1       2.176  -2.589  -5.675  0.00  0.00    -0.056 NA
BRANCH  24  32
ATOM     29  C   UNL     1       0.721  -0.414  -1.264  0.00  0.00    -0.042 A 
ATOM     30  C   UNL     1       0.044  -1.216  -2.165  0.00  0.00    +0.005 A 
ATOM     31  C   UNL     1       0.683  -1.677  -3.298  0.00  0.00    +0.012 A 
ATOM     32  C   UNL     1       2.012  -1.332  -3.534  0.00  0.00    +0.022 A 
ATOM     33  C   UNL     1       2.689  -0.523  -2.623  0.00  0.00    +0.012 A 
ATOM     34  C   UNL     1       2.038  -0.063  -1.496  0.00  0.00    +0.005 A 
BRANCH  29  36
ATOM     35  C   UNL     1      -0.001   1.616  -0.036  0.00  0.00    +0.015 C 
ATOM     36  C   UNL     1       0.018   0.086  -0.028  0.00  0.00    -0.013 C 
ATOM     37  C   UNL     1       0.758  -0.409   1.215  0.00  0.00    +0.015 C 
ATOM     38  C   UNL     1      -1.419  -0.441  -0.010  0.00  0.00    +0.015 C 
ENDBRANCH  29  36
ENDBRANCH  24  32
ENDBRANCH  23  26
ENDBRANCH   1  23
TORSDOF 7
