REMARK  Name = ZINC10066771
REMARK  8 active torsions:
REMARK  status: ('A' for Active; 'I' for Inactive)
REMARK    1  A    between atoms: C_1  and  C_2
REMARK    2  A    between atoms: C_2  and  N_3
REMARK    3  A    between atoms: N_3  and  C_4
REMARK    4  A    between atoms: N_3  and  C_6
REMARK    5  A    between atoms: C_4  and  C_5
REMARK    6  A    between atoms: C_6  and  C_7
REMARK    7  A    between atoms: C_7  and  N_8
REMARK    8  A    between atoms: C_19  and  C_21
REMARK                            x       y       z     vdW  Elec       q    Type
REMARK                         _______ _______ _______ _____ _____    ______ ____
ROOT
ATOM      1  N   UNL     1      -2.495  -1.587   0.739  0.00  0.00    -0.252 N 
ATOM      2  C   UNL     1      -2.046  -0.386   0.214  0.00  0.00    +0.168 A 
ATOM      3  N   UNL     1      -2.525   0.822   0.397  0.00  0.00    -0.221 NA
ATOM      4  C   UNL     1      -1.981   1.914  -0.184  0.00  0.00    +0.115 A 
ATOM      5  C   UNL     1      -2.396   3.263  -0.070  0.00  0.00    +0.150 A 
ATOM      6  C   UNL     1      -1.726   4.261  -0.732  0.00  0.00    +0.040 A 
ATOM      7  C   UNL     1      -0.626   3.987  -1.532  0.00  0.00    +0.004 A 
ATOM      8  C   UNL     1      -0.194   2.680  -1.665  0.00  0.00    +0.017 A 
ATOM      9  C   UNL     1      -0.858   1.675  -1.006  0.00  0.00    +0.044 A 
ATOM     10  S   UNL     1      -0.668  -0.087  -0.885  0.00  0.00    -0.052 S 
ATOM     11  F   UNL     1      -3.463   3.571   0.699  0.00  0.00    -0.203 F 
ATOM     12  C   UNL     1      -3.518  -1.599   1.616  0.00  0.00    +0.224 C 
ATOM     13  O   UNL     1      -3.857  -2.640   2.138  0.00  0.00    -0.275 OA
ENDROOT
BRANCH  12  14
ATOM     14  C   UNL     1      -4.242  -0.320   1.946  0.00  0.00    +0.076 C 
ATOM     15  C   UNL     1      -3.347   0.561   2.820  0.00  0.00    +0.013 C 
ATOM     16  C   UNL     1      -4.081   1.861   3.156  0.00  0.00    +0.001 C 
ATOM     17  C   UNL     1      -5.372   1.536   3.912  0.00  0.00    +0.000 C 
ATOM     18  C   UNL     1      -6.267   0.655   3.038  0.00  0.00    +0.001 C 
ATOM     19  C   UNL     1      -5.532  -0.644   2.703  0.00  0.00    +0.013 C 
ENDBRANCH  12  14
BRANCH   1  20
ATOM     20  C   UNL     1      -1.857  -2.845   0.341  0.00  0.00    +0.097 C 
BRANCH  20  21
ATOM     21  C   UNL     1      -0.701  -3.154   1.294  0.00  0.00    -0.059 C 
BRANCH  21  22
ATOM     22  N   UNL     1      -0.061  -4.415   0.894  0.00  0.00    +0.380 N 
ATOM     23  H   UNL     1      -0.847  -5.179   0.805  0.00  0.00    -0.082 HD
BRANCH  22  25
ATOM     24  C   UNL     1       1.724  -3.258  -0.319  0.00  0.00    -0.017 C 
ATOM     25  C   UNL     1       0.592  -4.282  -0.415  0.00  0.00    -0.082 C 
ENDBRANCH  22  25
BRANCH  22  26
ATOM     26  C   UNL     1       0.894  -4.867   1.915  0.00  0.00    -0.082 C 
ATOM     27  C   UNL     1       1.310  -6.309   1.621  0.00  0.00    -0.017 C 
ENDBRANCH  22  26
ENDBRANCH  21  22
ENDBRANCH  20  21
ENDBRANCH   1  20
TORSDOF 6
