REMARK  Name = ZINC38597854
REMARK  12 active torsions:
REMARK  status: ('A' for Active; 'I' for Inactive)
REMARK    1  A    between atoms: C_1  and  C_2
REMARK    2  A    between atoms: C_2  and  C_3
REMARK    3  A    between atoms: C_2  and  C_4
REMARK    4  A    between atoms: C_4  and  O_5
REMARK    5  A    between atoms: O_5  and  C_6
REMARK    6  A    between atoms: C_9  and  S_12
REMARK    7  A    between atoms: S_12  and  N_15
REMARK    8  A    between atoms: N_15  and  C_16
REMARK    9  A    between atoms: C_16  and  C_17
REMARK   10  A    between atoms: C_17  and  C_19
REMARK   11  A    between atoms: C_17  and  N_24
REMARK   12  A    between atoms: N_27  and  C_30
REMARK                            x       y       z     vdW  Elec       q    Type
REMARK                         _______ _______ _______ _____ _____    ______ ____
ROOT
ATOM      1  C   UNL     1      -7.261  -5.715  -3.864  0.00  0.00    +0.015 C 
ENDROOT
BRANCH   1   2
ATOM      2  N   UNL     1      -7.608  -4.386  -4.386  0.00  0.00    +0.389 N 
ATOM      3  C   UNL     1      -8.582  -4.529  -5.475  0.00  0.00    -0.059 C 
ATOM      4  C   UNL     1      -8.857  -3.155  -6.096  0.00  0.00    +0.086 C 
ATOM      5  N   UNL     1      -9.273  -2.235  -5.026  0.00  0.00    -0.333 N 
ATOM      6  C   UNL     1      -8.436  -2.151  -3.819  0.00  0.00    +0.086 C 
ATOM      7  C   UNL     1      -8.181  -3.572  -3.306  0.00  0.00    -0.059 C 
ATOM      8  H   UNL     1      -6.776  -3.937  -4.738  0.00  0.00    -0.081 HD
BRANCH   5   9
ATOM      9  C   UNL     1     -10.431  -1.462  -5.153  0.00  0.00    +0.030 A 
ATOM     10  C   UNL     1     -10.875  -0.693  -4.085  0.00  0.00    +0.026 A 
ATOM     11  C   UNL     1     -12.019   0.070  -4.213  0.00  0.00    +0.040 A 
ATOM     12  C   UNL     1     -12.724   0.069  -5.404  0.00  0.00    +0.124 A 
ATOM     13  C   UNL     1     -12.283  -0.697  -6.471  0.00  0.00    +0.040 A 
ATOM     14  C   UNL     1     -11.137  -1.457  -6.349  0.00  0.00    +0.026 A 
ATOM     15  F   UNL     1     -13.843   0.816  -5.527  0.00  0.00    -0.205 F 
ENDBRANCH   5   9
ENDBRANCH   1   2
BRANCH   1  16
ATOM     16  C   UNL     1      -6.595  -6.522  -4.948  0.00  0.00    +0.093 A 
ATOM     17  C   UNL     1      -6.799  -7.829  -5.193  0.00  0.00    +0.043 A 
ATOM     18  C   UNL     1      -5.976  -8.173  -6.290  0.00  0.00    +0.041 A 
ATOM     19  C   UNL     1      -5.319  -7.056  -6.650  0.00  0.00    +0.195 A 
ATOM     20  O   UNL     1      -5.702  -6.058  -5.837  0.00  0.00    -0.469 OA
ENDBRANCH   1  16
BRANCH   1  21
ATOM     21  C   UNL     1      -6.304  -5.564  -2.679  0.00  0.00    +0.098 C 
BRANCH  21  22
ATOM     22  N   UNL     1      -5.148  -4.761  -3.085  0.00  0.00    -0.191 NA
ATOM     23  H   UNL     1      -4.959  -4.624  -4.026  0.00  0.00    +0.148 HD
BRANCH  22  24
ATOM     24  S   UNL     1      -4.164  -4.087  -1.936  0.00  0.00    +0.058 S 
ATOM     25  O   UNL     1      -5.016  -3.435  -1.004  0.00  0.00    -0.153 OA
ATOM     26  O   UNL     1      -3.134  -3.402  -2.635  0.00  0.00    -0.153 OA
BRANCH  24  30
ATOM     27  C   UNL     1      -2.176  -7.493   0.289  0.00  0.00    +0.121 A 
ATOM     28  C   UNL     1      -1.574  -6.954  -0.838  0.00  0.00    +0.047 A 
ATOM     29  C   UNL     1      -2.182  -5.915  -1.516  0.00  0.00    +0.032 A 
ATOM     30  C   UNL     1      -3.391  -5.412  -1.070  0.00  0.00    +0.105 A 
ATOM     31  C   UNL     1      -3.993  -5.947   0.054  0.00  0.00    +0.032 A 
ATOM     32  C   UNL     1      -3.391  -6.990   0.731  0.00  0.00    +0.047 A 
BRANCH  27  33
ATOM     33  O   UNL     1      -1.579  -8.515   0.957  0.00  0.00    -0.492 OA
BRANCH  33  34
ATOM     34  C   UNL     1      -0.329  -8.982   0.446  0.00  0.00    +0.232 C 
BRANCH  34  36
ATOM     35  C   UNL     1       1.458 -10.709   0.705  0.00  0.00    +0.010 C 
ATOM     36  C   UNL     1       0.185 -10.127   1.322  0.00  0.00    +0.020 C 
ATOM     37  C   UNL     1       0.493  -9.597   2.723  0.00  0.00    +0.010 C 
ENDBRANCH  34  36
ENDBRANCH  33  34
ENDBRANCH  27  33
ENDBRANCH  24  30
ENDBRANCH  22  24
ENDBRANCH  21  22
ENDBRANCH   1  21
TORSDOF 10
