REMARK  Name = ZINC34631487
REMARK  9 active torsions:
REMARK  status: ('A' for Active; 'I' for Inactive)
REMARK    1  A    between atoms: C_1  and  C_2
REMARK    2  A    between atoms: C_2  and  C_3
REMARK    3  A    between atoms: C_6  and  N_16
REMARK    4  A    between atoms: C_21  and  C_23
REMARK    5  A    between atoms: N_24  and  C_26
REMARK    6  A    between atoms: C_26  and  C_27
REMARK    7  A    between atoms: C_27  and  O_28
REMARK    8  A    between atoms: O_28  and  C_29
REMARK    9  A    between atoms: C_29  and  C_30
REMARK                            x       y       z     vdW  Elec       q    Type
REMARK                         _______ _______ _______ _____ _____    ______ ____
ROOT
ATOM      1  C   UNL     1       0.913  -1.185  -0.924  0.00  0.00    +0.089 A 
ATOM      2  C   UNL     1       0.206  -1.499  -2.103  0.00  0.00    +0.119 A 
ATOM      3  C   UNL     1       1.154  -1.587  -3.138  0.00  0.00    +0.128 A 
ATOM      4  C   UNL     1       0.707  -1.893  -4.431  0.00  0.00    +0.155 A 
ATOM      5  N   UNL     1      -0.592  -2.087  -4.626  0.00  0.00    -0.197 NA
ATOM      6  C   UNL     1      -1.459  -1.995  -3.625  0.00  0.00    +0.220 A 
ATOM      7  N   UNL     1      -1.086  -1.710  -2.391  0.00  0.00    -0.211 NA
ATOM      8  N   UNL     1      -2.804  -2.207  -3.884  0.00  0.00    -0.303 N 
ATOM      9  C   UNL     1      -3.814  -2.030  -2.829  0.00  0.00    +0.089 C 
ATOM     10  C   UNL     1      -4.928  -1.127  -3.369  0.00  0.00    -0.063 C 
ATOM     11  N   UNL     1      -5.450  -1.689  -4.621  0.00  0.00    +0.381 N 
ATOM     12  C   UNL     1      -4.401  -1.681  -5.649  0.00  0.00    -0.063 C 
ATOM     13  C   UNL     1      -3.262  -2.607  -5.223  0.00  0.00    +0.089 C 
ATOM     14  N   UNL     1       2.377  -1.331  -2.575  0.00  0.00    -0.256 N 
ATOM     15  N   UNL     1       2.181  -1.083  -1.210  0.00  0.00    -0.173 NA
ATOM     16  H   UNL     1      -5.755  -2.638  -4.461  0.00  0.00    -0.086 HD
ATOM     17  H   UNL     1      -6.232  -1.136  -4.937  0.00  0.00    -0.086 HD
ENDROOT
BRANCH   4  18
ATOM     18  N   UNL     1       1.603  -1.991  -5.483  0.00  0.00    -0.283 N 
ATOM     19  C   UNL     1       1.169  -2.442  -6.727  0.00  0.00    +0.124 A 
ATOM     20  C   UNL     1      -0.174  -2.329  -7.071  0.00  0.00    +0.044 A 
ATOM     21  C   UNL     1      -0.592  -2.781  -8.309  0.00  0.00    +0.005 A 
ATOM     22  C   UNL     1       0.352  -3.333  -9.166  0.00  0.00    +0.023 A 
ATOM     23  C   UNL     1       1.669  -3.414  -8.759  0.00  0.00    +0.040 A 
ATOM     24  N   UNL     1       2.039  -2.970  -7.573  0.00  0.00    -0.237 NA
ATOM     25  C   UNL     1       2.697  -4.013  -9.684  0.00  0.00    +0.065 C 
ATOM     26  H   UNL     1       2.532  -1.745  -5.354  0.00  0.00    +0.155 HD
ENDBRANCH   4  18
BRANCH   1  28
ATOM     27  C   UNL     1      -0.077   0.479   0.626  0.00  0.00    +0.010 C 
ATOM     28  C   UNL     1       0.303  -0.992   0.441  0.00  0.00    +0.056 C 
ENDBRANCH   1  28
BRANCH  14  29
ATOM     29  C   UNL     1       3.662  -1.315  -3.278  0.00  0.00    +0.172 C 
BRANCH  29  30
ATOM     30  C   UNL     1       3.881   0.062  -3.909  0.00  0.00    +0.183 C 
BRANCH  30  31
ATOM     31  O   UNL     1       5.134   0.078  -4.595  0.00  0.00    -0.369 OA
BRANCH  31  32
ATOM     32  C   UNL     1       5.437   1.325  -5.223  0.00  0.00    +0.273 C 
BRANCH  32  33
ATOM     33  C   UNL     1       6.794   1.228  -5.923  0.00  0.00    +0.413 C 
ATOM     34  F   UNL     1       6.749   0.218  -6.890  0.00  0.00    -0.168 F 
ATOM     35  F   UNL     1       7.090   2.449  -6.538  0.00  0.00    -0.168 F 
ATOM     36  F   UNL     1       7.784   0.928  -4.981  0.00  0.00    -0.168 F 
ENDBRANCH  32  33
ENDBRANCH  31  32
ENDBRANCH  30  31
ENDBRANCH  29  30
ENDBRANCH  14  29
TORSDOF 7
