REMARK  Name = ZINC14855143
REMARK  11 active torsions:
REMARK  status: ('A' for Active; 'I' for Inactive)
REMARK    1  A    between atoms: C_1  and  O_2
REMARK    2  A    between atoms: O_2  and  C_3
REMARK    3  A    between atoms: C_3  and  C_5
REMARK    4  A    between atoms: C_5  and  C_7
REMARK    5  A    between atoms: C_5  and  N_18
REMARK    6  A    between atoms: C_7  and  C_8
REMARK    7  A    between atoms: C_19  and  C_21
REMARK    8  A    between atoms: C_21  and  C_22
REMARK    9  A    between atoms: C_22  and  C_23
REMARK   10  A    between atoms: C_26  and  S_29
REMARK   11  A    between atoms: S_29  and  N_32
REMARK                            x       y       z     vdW  Elec       q    Type
REMARK                         _______ _______ _______ _____ _____    ______ ____
ROOT
ATOM      1  N   UNL     1       3.741  -0.556   2.163  0.00  0.00    -0.302 N 
ATOM      2  C   UNL     1       3.629  -0.488   3.504  0.00  0.00    +0.214 C 
ATOM      3  O   UNL     1       3.888   0.546   4.083  0.00  0.00    -0.276 OA
ATOM      4  H   UNL     1       3.535  -1.383   1.700  0.00  0.00    +0.150 HD
ENDROOT
BRANCH   1   5
ATOM      5  C   UNL     1       4.174   0.620   1.404  0.00  0.00    +0.186 C 
BRANCH   5   6
ATOM      6  C   UNL     1       5.680   0.677   1.381  0.00  0.00    +0.328 C 
ATOM      7  O   UNL     1       6.325  -0.177   1.942  0.00  0.00    -0.249 OA
BRANCH   6   9
ATOM      8  C   UNL     1       7.756   1.667   0.758  0.00  0.00    +0.280 C 
ATOM      9  O   UNL     1       6.304   1.676   0.739  0.00  0.00    -0.467 OA
ENDBRANCH   6   9
ENDBRANCH   5   6
BRANCH   5  10
ATOM     10  C   UNL     1       3.646   0.524  -0.029  0.00  0.00    +0.071 C 
BRANCH  10  11
ATOM     11  C   UNL     1       2.140   0.591  -0.015  0.00  0.00    -0.020 A 
ATOM     12  C   UNL     1       1.295  -0.452  -0.013  0.00  0.00    +0.087 A 
ATOM     13  N   UNL     1       0.002  -0.004   0.002  0.00  0.00    -0.360 N 
ATOM     14  H   UNL     1      -0.784  -0.572   0.006  0.00  0.00    +0.165 HD
ATOM     15  C   UNL     1      -0.017   1.373   0.010  0.00  0.00    +0.047 A 
ATOM     16  C   UNL     1       1.322   1.806  -0.001  0.00  0.00    +0.003 A 
ATOM     17  C   UNL     1       1.612   3.171   0.004  0.00  0.00    +0.010 A 
ATOM     18  C   UNL     1       0.593   4.082   0.019  0.00  0.00    +0.001 A 
ATOM     19  C   UNL     1      -0.729   3.659   0.029  0.00  0.00    +0.002 A 
ATOM     20  C   UNL     1      -1.038   2.317   0.029  0.00  0.00    +0.026 A 
ENDBRANCH  10  11
ENDBRANCH   5  10
ENDBRANCH   1   5
BRANCH   2  21
ATOM     21  C   UNL     1       3.184  -1.698   4.285  0.00  0.00    +0.100 C 
BRANCH  21  22
ATOM     22  C   UNL     1       3.142  -1.355   5.776  0.00  0.00    +0.044 C 
BRANCH  22  23
ATOM     23  C   UNL     1       2.696  -2.565   6.557  0.00  0.00    -0.047 A 
ATOM     24  C   UNL     1       1.352  -2.769   6.808  0.00  0.00    +0.005 A 
ATOM     25  C   UNL     1       0.944  -3.881   7.520  0.00  0.00    +0.029 A 
ATOM     26  C   UNL     1       1.879  -4.784   7.990  0.00  0.00    +0.105 A 
ATOM     27  C   UNL     1       3.224  -4.576   7.744  0.00  0.00    +0.029 A 
ATOM     28  C   UNL     1       3.632  -3.467   7.027  0.00  0.00    +0.005 A 
BRANCH  26  29
ATOM     29  S   UNL     1       1.359  -6.198   8.902  0.00  0.00    +0.061 S 
ATOM     30  O   UNL     1       0.011  -6.449   8.528  0.00  0.00    -0.153 OA
ATOM     31  O   UNL     1       2.383  -7.173   8.760  0.00  0.00    -0.153 OA
BRANCH  29  32
ATOM     32  N   UNL     1       1.333  -5.768  10.501  0.00  0.00    -0.177 NA
ATOM     33  C   UNL     1       2.524  -5.946  11.343  0.00  0.00    +0.109 C 
ATOM     34  C   UNL     1       2.853  -4.604  12.014  0.00  0.00    +0.017 C 
ATOM     35  C   UNL     1       1.620  -4.102  12.769  0.00  0.00    +0.003 C 
ATOM     36  C   UNL     1       0.472  -3.878  11.781  0.00  0.00    +0.017 C 
ATOM     37  C   UNL     1       0.118  -5.206  11.106  0.00  0.00    +0.109 C 
ENDBRANCH  29  32
ENDBRANCH  26  29
ENDBRANCH  22  23
ENDBRANCH  21  22
ENDBRANCH   2  21
TORSDOF 10
