REMARK  Name = ZINC62397199
REMARK  7 active torsions:
REMARK  status: ('A' for Active; 'I' for Inactive)
REMARK    1  A    between atoms: C_1  and  C_2
REMARK    2  A    between atoms: C_5  and  O_8
REMARK    3  A    between atoms: O_8  and  C_9
REMARK    4  A    between atoms: C_9  and  C_10
REMARK    5  A    between atoms: C_13  and  C_19
REMARK    6  A    between atoms: C_14  and  C_18
REMARK    7  A    between atoms: C_19  and  O_20
REMARK                            x       y       z     vdW  Elec       q    Type
REMARK                         _______ _______ _______ _____ _____    ______ ____
ROOT
ATOM      1  C   UNL     1       0.090  -6.277   1.043  0.00  0.00    +0.140 A 
ATOM      2  N   UNL     1       0.098  -6.948  -0.069  0.00  0.00    -0.158 NA
ATOM      3  N   UNL     1       0.116  -8.338  -0.079  0.00  0.00    -0.208 N 
ATOM      4  C   UNL     1       0.129  -9.377  -1.002  0.00  0.00    +0.092 A 
ATOM      5  C   UNL     1       0.144 -10.534  -0.317  0.00  0.00    +0.065 A 
ATOM      6  N   UNL     1       0.141 -10.249   0.994  0.00  0.00    -0.225 NA
ATOM      7  C   UNL     1       0.124  -8.957   1.144  0.00  0.00    +0.196 A 
ATOM      8  S   UNL     1       0.114  -7.579   2.267  0.00  0.00    -0.029 S 
ATOM      9  C   UNL     1       0.161 -11.915  -0.920  0.00  0.00    +0.067 C 
ENDROOT
BRANCH   1  10
ATOM     10  C   UNL     1       0.072  -4.785   1.249  0.00  0.00    +0.293 C 
BRANCH  10  11
ATOM     11  O   UNL     1       0.057  -4.129  -0.021  0.00  0.00    -0.485 OA
BRANCH  11  16
ATOM     12  C   UNL     1      -0.018   1.503   0.010  0.00  0.00    +0.044 C 
ATOM     13  C   UNL     1       0.002  -0.004   0.002  0.00  0.00    -0.050 A 
ATOM     14  C   UNL     1       0.006  -0.688  -1.200  0.00  0.00    +0.007 A 
ATOM     15  C   UNL     1       0.024  -2.069  -1.210  0.00  0.00    +0.046 A 
ATOM     16  C   UNL     1       0.039  -2.770  -0.013  0.00  0.00    +0.121 A 
ATOM     17  C   UNL     1       0.036  -2.082   1.191  0.00  0.00    +0.046 A 
ATOM     18  C   UNL     1       0.023  -0.701   1.196  0.00  0.00    +0.007 A 
ENDBRANCH  11  16
ENDBRANCH  10  11
ENDBRANCH   1  10
BRANCH   4  19
ATOM     19  C   UNL     1       0.127  -9.232  -2.502  0.00  0.00    +0.213 C 
BRANCH  19  20
ATOM     20  O   UNL     1       1.473  -9.169  -2.976  0.00  0.00    -0.389 OA
ATOM     21  H   UNL     1       1.548  -9.075  -3.936  0.00  0.00    +0.210 HD
ENDBRANCH  19  20
ENDBRANCH   4  19
TORSDOF 5
