REMARK  Name = ZINC35325619
REMARK  2 active torsions:
REMARK  status: ('A' for Active; 'I' for Inactive)
REMARK    1  A    between atoms: C_8  and  C_17
REMARK    2  A    between atoms: N_19  and  C_20
REMARK                            x       y       z     vdW  Elec       q    Type
REMARK                         _______ _______ _______ _____ _____    ______ ____
ROOT
ATOM      1  C   UNL     1      -0.432   1.005  -0.044  0.00  0.00    +0.000 A 
ATOM      2  C   UNL     1       0.747   1.549  -0.519  0.00  0.00    +0.002 A 
ATOM      3  C   UNL     1       1.873   0.764  -0.653  0.00  0.00    +0.023 A 
ATOM      4  C   UNL     1       1.831  -0.585  -0.309  0.00  0.00    +0.036 A 
ATOM      5  C   UNL     1       0.639  -1.122   0.168  0.00  0.00    -0.027 A 
ATOM      6  C   UNL     1      -0.483  -0.335   0.299  0.00  0.00    +0.004 A 
ATOM      7  C   UNL     1       0.920  -2.575   0.445  0.00  0.00    +0.052 C 
ATOM      8  C   UNL     1       0.693  -2.901   1.929  0.00  0.00    +0.076 C 
ATOM      9  C   UNL     1      -0.713  -3.561   1.926  0.00  0.00    -0.003 C 
ATOM     10  C   UNL     1      -0.699  -4.329   0.583  0.00  0.00    -0.066 C 
ATOM     11  N   UNL     1       0.050  -3.448  -0.352  0.00  0.00    +0.394 N 
ATOM     12  C   UNL     1      -0.974  -2.619  -1.037  0.00  0.00    -0.077 C 
ATOM     13  C   UNL     1      -2.158  -3.596  -1.243  0.00  0.00    -0.020 C 
ATOM     14  C   UNL     1      -2.139  -4.458   0.060  0.00  0.00    -0.017 C 
ATOM     15  C   UNL     1       2.368  -2.763   0.073  0.00  0.00    +0.212 C 
ATOM     16  O   UNL     1       3.004  -3.794   0.144  0.00  0.00    -0.277 OA
ATOM     17  N   UNL     1       2.820  -1.569  -0.352  0.00  0.00    -0.286 N 
ATOM     18  H   UNL     1       3.728  -1.411  -0.654  0.00  0.00    +0.155 HD
ATOM     19  H   UNL     1       0.589  -3.993  -1.008  0.00  0.00    -0.079 HD
ENDROOT
BRANCH   8  20
ATOM     20  C   UNL     1       1.738  -3.864   2.430  0.00  0.00    +0.220 C 
ATOM     21  O   UNL     1       1.429  -5.004   2.707  0.00  0.00    -0.275 OA
ATOM     22  N   UNL     1       3.016  -3.459   2.570  0.00  0.00    -0.281 N 
ATOM     23  H   UNL     1       3.253  -2.534   2.397  0.00  0.00    +0.155 HD
BRANCH  22  24
ATOM     24  C   UNL     1       4.002  -4.373   2.965  0.00  0.00    +0.110 A 
ATOM     25  C   UNL     1       4.223  -5.524   2.218  0.00  0.00    +0.182 A 
ATOM     26  C   UNL     1       5.198  -6.426   2.611  0.00  0.00    +0.163 A 
ATOM     27  C   UNL     1       5.952  -6.181   3.746  0.00  0.00    +0.082 A 
ATOM     28  C   UNL     1       5.734  -5.036   4.492  0.00  0.00    +0.163 A 
ATOM     29  C   UNL     1       4.763  -4.128   4.101  0.00  0.00    +0.182 A 
ATOM     30  F   UNL     1       4.554  -3.007   4.826  0.00  0.00    -0.200 F 
ATOM     31  F   UNL     1       6.470  -4.801   5.600  0.00  0.00    -0.202 F 
ATOM     32  F   UNL     1       5.414  -7.545   1.886  0.00  0.00    -0.202 F 
ATOM     33  F   UNL     1       3.487  -5.763   1.111  0.00  0.00    -0.200 F 
ENDBRANCH  22  24
ENDBRANCH   8  20
TORSDOF 2
