REMARK  Name = ZINC12454151
REMARK  8 active torsions:
REMARK  status: ('A' for Active; 'I' for Inactive)
REMARK    1  A    between atoms: C_1  and  C_2
REMARK    2  A    between atoms: C_4  and  C_27
REMARK    3  A    between atoms: C_6  and  C_7
REMARK    4  A    between atoms: C_12  and  N_15
REMARK    5  A    between atoms: C_18  and  C_21
REMARK    6  A    between atoms: N_23  and  C_24
REMARK    7  A    between atoms: C_24  and  C_25
REMARK    8  A    between atoms: C_24  and  C_26
REMARK                            x       y       z     vdW  Elec       q    Type
REMARK                         _______ _______ _______ _____ _____    ______ ____
ROOT
ATOM      1  C   UNL     1       0.031  -0.395   2.495  0.00  0.00    +0.282 C 
ATOM      2  O   UNL     1      -0.110  -0.755   1.341  0.00  0.00    -0.267 OA
ATOM      3  N   UNL     1       0.155  -1.310   3.476  0.00  0.00    -0.295 N 
ATOM      4  C   UNL     1       0.288  -2.738   3.155  0.00  0.00    +0.106 C 
ATOM      5  C   UNL     1      -0.782  -3.519   3.924  0.00  0.00    +0.004 C 
ATOM      6  C   UNL     1      -0.670  -3.196   5.416  0.00  0.00    -0.066 C 
ATOM      7  C   UNL     1      -0.911  -1.701   5.636  0.00  0.00    +0.004 C 
ATOM      8  C   UNL     1       0.164  -0.899   4.887  0.00  0.00    +0.106 C 
ENDROOT
BRANCH   1  14
ATOM      9  C   UNL     1      -0.576   1.936   0.501  0.00  0.00    +0.048 C 
ATOM     10  C   UNL     1      -0.197   2.060   1.954  0.00  0.00    +0.000 A 
ATOM     11  C   UNL     1      -0.051   3.250   2.684  0.00  0.00    +0.048 A 
ATOM     12  C   UNL     1       0.294   2.905   3.944  0.00  0.00    +0.103 A 
ATOM     13  O   UNL     1       0.368   1.569   4.020  0.00  0.00    -0.455 OA
ATOM     14  C   UNL     1       0.067   1.036   2.818  0.00  0.00    +0.192 A 
ATOM     15  C   UNL     1       0.556   3.864   5.077  0.00  0.00    +0.086 C 
ENDBRANCH   1  14
BRANCH   6  16
ATOM     16  N   UNL     1      -1.673  -3.969   6.160  0.00  0.00    +0.382 N 
ATOM     17  C   UNL     1      -1.571  -3.652   7.590  0.00  0.00    -0.078 C 
ATOM     18  C   UNL     1      -2.667  -4.392   8.360  0.00  0.00    -0.006 C 
ATOM     19  C   UNL     1      -2.497  -5.901   8.156  0.00  0.00    +0.071 C 
ATOM     20  C   UNL     1      -2.531  -6.210   6.657  0.00  0.00    -0.006 C 
ATOM     21  C   UNL     1      -1.440  -5.403   5.950  0.00  0.00    -0.078 C 
ATOM     22  H   UNL     1      -2.596  -3.727   5.830  0.00  0.00    -0.081 HD
BRANCH  19  23
ATOM     23  C   UNL     1      -3.618  -6.632   8.848  0.00  0.00    +0.216 C 
ATOM     24  O   UNL     1      -4.471  -6.010   9.445  0.00  0.00    -0.276 OA
ATOM     25  N   UNL     1      -3.674  -7.978   8.802  0.00  0.00    -0.313 N 
ATOM     26  H   UNL     1      -2.993  -8.476   8.324  0.00  0.00    +0.149 HD
BRANCH  25  27
ATOM     27  C   UNL     1      -4.765  -8.689   9.474  0.00  0.00    +0.067 C 
ATOM     28  C   UNL     1      -5.980  -8.753   8.546  0.00  0.00    +0.027 C 
ATOM     29  C   UNL     1      -4.311 -10.109   9.819  0.00  0.00    +0.027 C 
ENDBRANCH  25  27
ENDBRANCH  19  23
ENDBRANCH   6  16
TORSDOF 4
