REMARK  Name = ZINC19961801
REMARK  10 active torsions:
REMARK  status: ('A' for Active; 'I' for Inactive)
REMARK    1  A    between atoms: C_1  and  C_2
REMARK    2  A    between atoms: C_2  and  C_3
REMARK    3  A    between atoms: C_8  and  N_9
REMARK    4  A    between atoms: C_10  and  C_12
REMARK    5  A    between atoms: C_12  and  C_13
REMARK    6  A    between atoms: C_21  and  C_23
REMARK    7  A    between atoms: C_23  and  N_24
REMARK    8  A    between atoms: N_27  and  C_30
REMARK    9  A    between atoms: C_33  and  O_36
REMARK   10  A    between atoms: O_36  and  C_37
REMARK                            x       y       z     vdW  Elec       q    Type
REMARK                         _______ _______ _______ _____ _____    ______ ____
ROOT
ATOM      1  C   UNL     1      -0.868   1.985   1.274  0.00  0.00    +0.170 C 
ATOM      2  C   UNL     1      -1.102   3.470   1.219  0.00  0.00    +0.234 C 
ATOM      3  O   UNL     1      -1.511   3.953   0.184  0.00  0.00    -0.274 OA
ATOM      4  N   UNL     1      -0.878   4.280   2.255  0.00  0.00    -0.312 N 
ATOM      5  C   UNL     1      -0.304   3.859   3.525  0.00  0.00    +0.123 C 
ATOM      6  C   UNL     1      -0.487   2.354   3.731  0.00  0.00    +0.127 C 
ATOM      7  N   UNL     1      -0.099   1.669   2.486  0.00  0.00    -0.289 N 
ATOM      8  C   UNL     1       0.921   0.787   2.460  0.00  0.00    +0.200 C 
ATOM      9  O   UNL     1       1.271   0.296   1.407  0.00  0.00    -0.278 OA
ATOM     10  H   UNL     1      -1.161   5.332   2.101  0.00  0.00    +0.149 HD
ENDROOT
BRANCH   1  11
ATOM     11  C   UNL     1      -0.082   1.544   0.038  0.00  0.00    +0.128 C 
BRANCH  11  13
ATOM     12  N   UNL     1       2.162   1.931  -0.929  0.00  0.00    -0.285 N 
ATOM     13  C   UNL     1       1.251   2.247   0.013  0.00  0.00    +0.219 C 
ATOM     14  O   UNL     1       1.504   3.096   0.841  0.00  0.00    -0.275 OA
ATOM     15  H   UNL     1       1.905   1.216  -1.725  0.00  0.00    +0.155 HD
BRANCH  12  21
ATOM     16  C   UNL     1       4.542   1.787  -1.310  0.00  0.00    -0.026 A 
ATOM     17  C   UNL     1       5.796   2.365  -1.275  0.00  0.00    +0.005 A 
ATOM     18  C   UNL     1       5.949   3.665  -0.829  0.00  0.00    +0.000 A 
ATOM     19  C   UNL     1       4.846   4.391  -0.416  0.00  0.00    +0.002 A 
ATOM     20  C   UNL     1       3.589   3.821  -0.453  0.00  0.00    +0.023 A 
ATOM     21  C   UNL     1       3.433   2.513  -0.895  0.00  0.00    +0.037 A 
BRANCH  16  23
ATOM     22  C   UNL     1       4.012   0.381  -3.282  0.00  0.00    +0.009 C 
ATOM     23  C   UNL     1       4.377   0.371  -1.796  0.00  0.00    +0.033 C 
ENDBRANCH  16  23
ENDBRANCH  12  21
ENDBRANCH  11  13
ENDBRANCH   1  11
BRANCH   8  24
ATOM     24  C   UNL     1       1.626   0.412   3.738  0.00  0.00    +0.019 C 
BRANCH  24  25
ATOM     25  N   UNL     1       2.690  -0.556   3.443  0.00  0.00    +0.387 N 
ATOM     26  C   UNL     1       2.128  -1.829   2.971  0.00  0.00    -0.059 C 
ATOM     27  C   UNL     1       3.268  -2.781   2.601  0.00  0.00    +0.086 C 
ATOM     28  N   UNL     1       4.128  -2.991   3.774  0.00  0.00    -0.333 N 
ATOM     29  C   UNL     1       4.690  -1.718   4.246  0.00  0.00    +0.086 C 
ATOM     30  C   UNL     1       3.550  -0.767   4.617  0.00  0.00    -0.059 C 
ATOM     31  H   UNL     1       3.312  -0.139   2.637  0.00  0.00    -0.081 HD
BRANCH  28  32
ATOM     32  C   UNL     1       5.142  -3.914   3.494  0.00  0.00    +0.030 A 
ATOM     33  C   UNL     1       6.473  -3.559   3.671  0.00  0.00    +0.027 A 
ATOM     34  C   UNL     1       7.473  -4.472   3.399  0.00  0.00    +0.047 A 
ATOM     35  C   UNL     1       7.149  -5.740   2.939  0.00  0.00    +0.120 A 
ATOM     36  C   UNL     1       5.820  -6.093   2.757  0.00  0.00    +0.047 A 
ATOM     37  C   UNL     1       4.819  -5.183   3.033  0.00  0.00    +0.027 A 
BRANCH  35  38
ATOM     38  O   UNL     1       8.134  -6.636   2.667  0.00  0.00    -0.495 OA
ATOM     39  C   UNL     1       9.480  -6.205   2.877  0.00  0.00    +0.277 C 
ENDBRANCH  35  38
ENDBRANCH  28  32
ENDBRANCH  24  25
ENDBRANCH   8  24
TORSDOF 8
