REMARK  Name = ZINC04844532
REMARK  7 active torsions:
REMARK  status: ('A' for Active; 'I' for Inactive)
REMARK    1  A    between atoms: C_1  and  C_2
REMARK    2  A    between atoms: C_5  and  N_22
REMARK    3  A    between atoms: C_7  and  S_8
REMARK    4  A    between atoms: S_8  and  N_11
REMARK    5  A    between atoms: N_11  and  C_12
REMARK    6  A    between atoms: C_12  and  C_14
REMARK    7  A    between atoms: C_12  and  C_15
REMARK                            x       y       z     vdW  Elec       q    Type
REMARK                         _______ _______ _______ _____ _____    ______ ____
ROOT
ATOM      1  S   UNL     1      -4.928   0.605  -0.079  0.00  0.00    +0.059 S 
ATOM      2  O   UNL     1      -5.654   1.014  -1.230  0.00  0.00    -0.153 OA
ATOM      3  O   UNL     1      -4.348  -0.687   0.037  0.00  0.00    -0.153 OA
ENDROOT
BRANCH   1  10
ATOM      4  C   UNL     1      -2.922   0.516   2.183  0.00  0.00    +0.046 C 
ATOM      5  C   UNL     1      -2.750   1.643   1.196  0.00  0.00    -0.024 A 
ATOM      6  C   UNL     1      -1.722   2.553   1.359  0.00  0.00    +0.007 A 
ATOM      7  C   UNL     1      -1.562   3.584   0.453  0.00  0.00    +0.033 A 
ATOM      8  C   UNL     1      -2.435   3.710  -0.612  0.00  0.00    +0.128 A 
ATOM      9  C   UNL     1      -3.461   2.800  -0.775  0.00  0.00    +0.061 A 
ATOM     10  C   UNL     1      -3.619   1.766   0.129  0.00  0.00    +0.110 A 
BRANCH   8  11
ATOM     11  N   UNL     1      -2.266   4.817  -1.580  0.00  0.00    +0.056 N 
ATOM     12  O   UNL     1      -3.032   4.925  -2.521  0.00  0.00    -0.126 OA
ATOM     13  O   UNL     1      -1.365   5.623  -1.433  0.00  0.00    -0.126 OA
ENDBRANCH   8  11
ENDBRANCH   1  10
BRANCH   1  14
ATOM     14  N   UNL     1      -5.950   0.783   1.212  0.00  0.00    -0.183 NA
ATOM     15  H   UNL     1      -6.051   0.063   1.854  0.00  0.00    +0.149 HD
BRANCH  14  16
ATOM     16  C   UNL     1      -6.702   2.029   1.385  0.00  0.00    +0.103 C 
ATOM     17  C   UNL     1      -8.108   1.860   0.804  0.00  0.00    +0.031 C 
BRANCH  16  18
ATOM     18  C   UNL     1      -6.801   2.357   2.852  0.00  0.00    -0.029 A 
ATOM     19  C   UNL     1      -7.029   1.350   3.772  0.00  0.00    +0.006 A 
ATOM     20  C   UNL     1      -7.115   1.649   5.118  0.00  0.00    +0.015 A 
ATOM     21  C   UNL     1      -6.983   2.959   5.545  0.00  0.00    +0.018 A 
ATOM     22  C   UNL     1      -6.761   3.967   4.624  0.00  0.00    +0.015 A 
ATOM     23  C   UNL     1      -6.670   3.665   3.278  0.00  0.00    +0.006 A 
ATOM     24 BR   UNL     1      -7.108   3.370   7.386  0.00  0.00    -0.050 Br
ENDBRANCH  16  18
ENDBRANCH  14  16
ENDBRANCH   1  14
TORSDOF 5
