REMARK  Name = ZINC39691141
REMARK  12 active torsions:
REMARK  status: ('A' for Active; 'I' for Inactive)
REMARK    1  A    between atoms: C_1  and  C_2
REMARK    2  A    between atoms: C_7  and  C_8
REMARK    3  A    between atoms: C_8  and  C_9
REMARK    4  A    between atoms: C_9  and  N_10
REMARK    5  A    between atoms: C_11  and  C_13
REMARK    6  A    between atoms: C_24  and  C_26
REMARK    7  A    between atoms: C_28  and  O_36
REMARK    8  A    between atoms: C_29  and  O_34
REMARK    9  A    between atoms: C_30  and  O_32
REMARK   10  A    between atoms: O_32  and  C_33
REMARK   11  A    between atoms: O_34  and  C_35
REMARK   12  A    between atoms: O_36  and  C_37
REMARK                            x       y       z     vdW  Elec       q    Type
REMARK                         _______ _______ _______ _____ _____    ______ ____
ROOT
ATOM      1  C   UNL     1      -2.318   2.545   6.590  0.00  0.00    +0.100 C 
ATOM      2  C   UNL     1      -1.514   3.782   6.129  0.00  0.00    +0.121 C 
ATOM      3  N   UNL     1      -2.544   4.785   5.771  0.00  0.00    -0.296 N 
ATOM      4  C   UNL     1      -3.591   4.625   6.809  0.00  0.00    +0.115 C 
ATOM      5  C   UNL     1      -3.679   3.103   7.038  0.00  0.00    -0.004 C 
ATOM      6  C   UNL     1      -3.912   2.805   8.516  0.00  0.00    -0.010 C 
ATOM      7  C   UNL     1      -5.295   3.317   8.925  0.00  0.00    -0.082 C 
ATOM      8  N   UNL     1      -6.323   2.664   8.105  0.00  0.00    +0.379 N 
ATOM      9  C   UNL     1      -6.148   3.032   6.695  0.00  0.00    -0.082 C 
ATOM     10  C   UNL     1      -4.800   2.507   6.192  0.00  0.00    -0.010 C 
ATOM     11  C   UNL     1      -2.531   5.650   4.737  0.00  0.00    +0.247 C 
ATOM     12  O   UNL     1      -1.657   5.576   3.895  0.00  0.00    -0.270 OA
ATOM     13  H   UNL     1      -6.243   1.663   8.203  0.00  0.00    -0.086 HD
ATOM     14  H   UNL     1      -7.237   2.957   8.417  0.00  0.00    -0.086 HD
ENDROOT
BRANCH  11  15
ATOM     15  C   UNL     1      -3.578   6.685   4.627  0.00  0.00    +0.044 A 
ATOM     16  C   UNL     1      -4.300   7.072   5.758  0.00  0.00    +0.062 A 
ATOM     17  C   UNL     1      -5.279   8.042   5.653  0.00  0.00    +0.166 A 
ATOM     18  C   UNL     1      -5.546   8.633   4.421  0.00  0.00    +0.204 A 
ATOM     19  C   UNL     1      -4.828   8.248   3.292  0.00  0.00    +0.166 A 
ATOM     20  C   UNL     1      -3.843   7.283   3.393  0.00  0.00    +0.062 A 
BRANCH  19  21
ATOM     21  O   UNL     1      -5.091   8.826   2.089  0.00  0.00    -0.491 OA
ATOM     22  C   UNL     1      -4.316   8.384   0.973  0.00  0.00    +0.277 C 
ENDBRANCH  19  21
BRANCH  18  23
ATOM     23  O   UNL     1      -6.509   9.586   4.319  0.00  0.00    -0.488 OA
ATOM     24  C   UNL     1      -6.104  10.942   4.515  0.00  0.00    +0.277 C 
ENDBRANCH  18  23
BRANCH  17  25
ATOM     25  O   UNL     1      -5.983   8.420   6.754  0.00  0.00    -0.491 OA
ATOM     26  C   UNL     1      -5.657   7.772   7.985  0.00  0.00    +0.277 C 
ENDBRANCH  17  25
ENDBRANCH  11  15
BRANCH   1  28
ATOM     27  N   UNL     1      -2.723   0.275   5.694  0.00  0.00    -0.315 N 
ATOM     28  C   UNL     1      -2.498   1.580   5.446  0.00  0.00    +0.218 C 
ATOM     29  O   UNL     1      -2.440   1.979   4.302  0.00  0.00    -0.275 OA
ATOM     30  H   UNL     1      -2.769  -0.044   6.609  0.00  0.00    +0.149 HD
BRANCH  27  31
ATOM     31  C   UNL     1      -2.898  -0.663   4.582  0.00  0.00    +0.109 C 
BRANCH  31  32
ATOM     32  C   UNL     1      -3.138  -2.069   5.135  0.00  0.00    +0.054 C 
BRANCH  32  39
ATOM     33  C   UNL     1      -0.828  -3.259   3.871  0.00  0.00    +0.044 C 
ATOM     34  C   UNL     1      -2.212  -3.603   3.387  0.00  0.00    -0.047 A 
ATOM     35  C   UNL     1      -2.377  -4.493   2.341  0.00  0.00    +0.003 A 
ATOM     36  C   UNL     1      -3.647  -4.808   1.896  0.00  0.00    +0.000 A 
ATOM     37  C   UNL     1      -4.753  -4.235   2.497  0.00  0.00    +0.000 A 
ATOM     38  C   UNL     1      -4.588  -3.347   3.543  0.00  0.00    +0.004 A 
ATOM     39  C   UNL     1      -3.317  -3.034   3.991  0.00  0.00    -0.043 A 
ENDBRANCH  32  39
ENDBRANCH  31  32
ENDBRANCH  27  31
ENDBRANCH   1  28
TORSDOF 8
