REMARK  Name = ZINC60169423
REMARK  10 active torsions:
REMARK  status: ('A' for Active; 'I' for Inactive)
REMARK    1  A    between atoms: C_1  and  C_2
REMARK    2  A    between atoms: C_5  and  C_7
REMARK    3  A    between atoms: C_9  and  C_17
REMARK    4  A    between atoms: C_11  and  C_16
REMARK    5  A    between atoms: C_17  and  O_19
REMARK    6  A    between atoms: O_19  and  C_20
REMARK    7  A    between atoms: C_20  and  C_21
REMARK    8  A    between atoms: C_25  and  O_27
REMARK    9  A    between atoms: O_27  and  C_28
REMARK   10  A    between atoms: C_28  and  C_29
REMARK                            x       y       z     vdW  Elec       q    Type
REMARK                         _______ _______ _______ _____ _____    ______ ____
ROOT
ATOM      1  C   UNL     1       4.306  -6.039   0.484  0.00  0.00    +0.340 C 
ATOM      2  O   UNL     1       4.688  -7.190   0.418  0.00  0.00    -0.245 OA
ENDROOT
BRANCH   1   5
ATOM      3  C   UNL     1       0.932  -4.439   1.021  0.00  0.00    +0.082 A 
ATOM      4  C   UNL     1       2.304  -4.695   1.135  0.00  0.00    +0.044 A 
ATOM      5  C   UNL     1       2.862  -5.732   0.397  0.00  0.00    +0.075 A 
ATOM      6  C   UNL     1       2.008  -6.483  -0.440  0.00  0.00    +0.077 A 
ATOM      7  C   UNL     1       2.212  -7.614  -1.342  0.00  0.00    +0.091 A 
ATOM      8  N   UNL     1       1.060  -7.907  -1.864  0.00  0.00    -0.080 NA
ATOM      9  O   UNL     1       0.072  -7.029  -1.363  0.00  0.00    -0.334 OA
ATOM     10  C   UNL     1       0.640  -6.163  -0.498  0.00  0.00    +0.260 A 
ATOM     11  N   UNL     1       0.158  -5.169   0.229  0.00  0.00    -0.209 NA
ATOM     12  C   UNL     1       3.520  -8.312  -1.617  0.00  0.00    +0.070 C 
BRANCH   3  17
ATOM     13  C   UNL     1      -0.431  -0.100   4.345  0.00  0.00    +0.051 C 
ATOM     14  C   UNL     1      -0.322  -1.263   3.394  0.00  0.00    -0.013 A 
ATOM     15  C   UNL     1      -1.298  -1.863   2.662  0.00  0.00    +0.011 A 
ATOM     16  C   UNL     1      -0.971  -2.923   1.849  0.00  0.00    +0.018 A 
ATOM     17  C   UNL     1       0.334  -3.341   1.803  0.00  0.00    +0.038 A 
ATOM     18  S   UNL     1       1.123  -2.204   2.931  0.00  0.00    -0.092 S 
ENDBRANCH   3  17
ENDBRANCH   1   5
BRANCH   1  19
ATOM     19  O   UNL     1       5.199  -5.042   0.636  0.00  0.00    -0.456 OA
BRANCH  19  20
ATOM     20  C   UNL     1       6.577  -5.411   0.713  0.00  0.00    +0.268 C 
BRANCH  20  21
ATOM     21  C   UNL     1       7.420  -4.173   0.881  0.00  0.00    -0.007 A 
ATOM     22  C   UNL     1       7.895  -3.503  -0.233  0.00  0.00    +0.007 A 
ATOM     23  C   UNL     1       8.668  -2.368  -0.082  0.00  0.00    +0.004 A 
ATOM     24  C   UNL     1       8.969  -1.898   1.183  0.00  0.00    +0.045 A 
ATOM     25  C   UNL     1       8.495  -2.568   2.301  0.00  0.00    +0.122 A 
ATOM     26  C   UNL     1       7.713  -3.704   2.147  0.00  0.00    +0.052 A 
BRANCH  25  27
ATOM     27  O   UNL     1       8.789  -2.108   3.545  0.00  0.00    -0.483 OA
BRANCH  27  28
ATOM     28  C   UNL     1       9.593  -0.930   3.628  0.00  0.00    +0.324 C 
BRANCH  28  29
ATOM     29  C   UNL     1       9.815  -0.574   5.076  0.00  0.00    +0.248 C 
ATOM     30  O   UNL     1       9.332  -1.261   5.950  0.00  0.00    -0.272 OA
ATOM     31  N   UNL     1      10.550   0.509   5.398  0.00  0.00    -0.327 N 
ATOM     32  H   UNL     1      10.936   1.059   4.699  0.00  0.00    +0.145 HD
ATOM     33  H   UNL     1      10.692   0.739   6.330  0.00  0.00    +0.145 HD
ENDBRANCH  28  29
ENDBRANCH  27  28
ENDBRANCH  25  27
ENDBRANCH  20  21
ENDBRANCH  19  20
ENDBRANCH   1  19
TORSDOF 8
