REMARK  Name = ZINC34756965
REMARK  4 active torsions:
REMARK  status: ('A' for Active; 'I' for Inactive)
REMARK    1  A    between atoms: C_4  and  C_7
REMARK    2  A    between atoms: C_7  and  C_8
REMARK    3  A    between atoms: N_23  and  C_26
REMARK    4  A    between atoms: C_26  and  C_27
REMARK                            x       y       z     vdW  Elec       q    Type
REMARK                         _______ _______ _______ _____ _____    ______ ____
ROOT
ATOM      1  C   UNL     1       4.311  -1.048   1.327  0.00  0.00    +0.137 A 
ATOM      2  N   UNL     1       5.059  -0.144   1.936  0.00  0.00    -0.216 NA
ATOM      3  C   UNL     1       5.348  -0.221   3.225  0.00  0.00    +0.133 A 
ATOM      4  C   UNL     1       4.837  -1.312   3.982  0.00  0.00    +0.051 A 
ATOM      5  C   UNL     1       5.025  -1.601   5.413  0.00  0.00    -0.025 A 
ATOM      6  C   UNL     1       4.433  -2.706   5.892  0.00  0.00    -0.004 A 
ATOM      7  S   UNL     1       3.596  -3.425   4.497  0.00  0.00    -0.073 S 
ATOM      8  C   UNL     1       4.050  -2.232   3.267  0.00  0.00    +0.114 A 
ATOM      9  N   UNL     1       3.806  -2.077   1.979  0.00  0.00    -0.224 NA
ATOM     10  C   UNL     1       4.698  -2.902   7.361  0.00  0.00    +0.043 C 
ATOM     11  C   UNL     1       5.906  -1.989   7.662  0.00  0.00    +0.010 C 
ATOM     12  C   UNL     1       5.768  -0.916   6.564  0.00  0.00    +0.037 C 
ATOM     13  N   UNL     1       6.134   0.744   3.828  0.00  0.00    -0.318 N 
ATOM     14  C   UNL     1       7.602   0.642   3.810  0.00  0.00    +0.088 C 
ATOM     15  C   UNL     1       8.175   1.976   3.320  0.00  0.00    -0.059 C 
ATOM     16  N   UNL     1       7.653   3.067   4.153  0.00  0.00    +0.387 N 
ATOM     17  C   UNL     1       6.199   3.175   3.982  0.00  0.00    -0.059 C 
ATOM     18  C   UNL     1       5.528   1.904   4.499  0.00  0.00    +0.088 C 
ATOM     19  H   UNL     1       7.863   2.880   5.122  0.00  0.00    -0.081 HD
ENDROOT
BRANCH   1  20
ATOM     20  C   UNL     1       4.023  -0.895  -0.144  0.00  0.00    +0.111 C 
BRANCH  20  24
ATOM     21  C   UNL     1       0.466   1.410  -0.671  0.00  0.00    +0.000 A 
ATOM     22  C   UNL     1       1.694   2.040  -0.608  0.00  0.00    +0.000 A 
ATOM     23  C   UNL     1       2.846   1.294  -0.438  0.00  0.00    +0.004 A 
ATOM     24  C   UNL     1       2.768  -0.082  -0.329  0.00  0.00    -0.040 A 
ATOM     25  C   UNL     1       1.539  -0.712  -0.391  0.00  0.00    +0.004 A 
ATOM     26  C   UNL     1       0.388   0.034  -0.563  0.00  0.00    +0.000 A 
ENDBRANCH  20  24
ENDBRANCH   1  20
BRANCH  16  27
ATOM     27  C   UNL     1       8.286   4.331   3.755  0.00  0.00    +0.018 C 
BRANCH  27  28
ATOM     28  C   UNL     1       7.845   5.430   4.687  0.00  0.00    +0.194 C 
ATOM     29  O   UNL     1       7.078   5.184   5.594  0.00  0.00    -0.278 OA
ATOM     30  N   UNL     1       8.302   6.686   4.512  0.00  0.00    -0.331 N 
ATOM     31  H   UNL     1       8.916   6.883   3.787  0.00  0.00    +0.145 HD
ATOM     32  H   UNL     1       8.018   7.393   5.112  0.00  0.00    +0.145 HD
ENDBRANCH  27  28
ENDBRANCH  16  27
TORSDOF 4
