REMARK  Name = ZINC35892816
REMARK  6 active torsions:
REMARK  status: ('A' for Active; 'I' for Inactive)
REMARK    1  A    between atoms: C_1  and  C_2
REMARK    2  A    between atoms: C_11  and  N_19
REMARK    3  A    between atoms: C_13  and  C_15
REMARK    4  A    between atoms: C_15  and  C_16
REMARK    5  A    between atoms: C_16  and  C_17
REMARK    6  A    between atoms: C_16  and  C_18
REMARK                            x       y       z     vdW  Elec       q    Type
REMARK                         _______ _______ _______ _____ _____    ______ ____
ROOT
ATOM      1  C   UNL     1       0.029   1.511  -0.046  0.00  0.00    +0.008 C 
ATOM      2  C   UNL     1       0.039  -0.019  -0.043  0.00  0.00    -0.009 C 
ATOM      3  C   UNL     1      -1.401  -0.542  -0.015  0.00  0.00    +0.008 C 
ATOM      4  C   UNL     1      -1.409  -2.050  -0.260  0.00  0.00    +0.037 C 
ATOM      5  C   UNL     1      -0.453  -2.717   0.725  0.00  0.00    -0.025 A 
ATOM      6  C   UNL     1       0.501  -1.993   1.354  0.00  0.00    -0.004 A 
ATOM      7  S   UNL     1       1.365  -3.152   2.385  0.00  0.00    -0.073 S 
ATOM      8  C   UNL     1       0.449  -4.603   1.976  0.00  0.00    +0.114 A 
ATOM      9  C   UNL     1      -0.508  -4.135   1.040  0.00  0.00    +0.051 A 
ATOM     10  C   UNL     1      -1.416  -5.098   0.513  0.00  0.00    +0.133 A 
ATOM     11  N   UNL     1      -1.265  -6.343   0.961  0.00  0.00    -0.217 NA
ATOM     12  C   UNL     1      -0.348  -6.705   1.835  0.00  0.00    +0.133 A 
ATOM     13  N   UNL     1       0.528  -5.859   2.364  0.00  0.00    -0.225 NA
ATOM     14  C   UNL     1       0.773  -0.527   1.206  0.00  0.00    +0.046 C 
ENDROOT
BRANCH  10  15
ATOM     15  N   UNL     1      -2.393  -4.761  -0.406  0.00  0.00    -0.310 N 
ATOM     16  C   UNL     1      -2.093  -4.704  -1.845  0.00  0.00    +0.134 C 
ATOM     17  C   UNL     1      -3.148  -5.528  -2.592  0.00  0.00    +0.178 C 
ATOM     18  O   UNL     1      -4.451  -5.092  -2.198  0.00  0.00    -0.377 OA
ATOM     19  C   UNL     1      -4.739  -5.285  -0.811  0.00  0.00    +0.178 C 
ATOM     20  C   UNL     1      -3.766  -4.454   0.027  0.00  0.00    +0.134 C 
ENDBRANCH  10  15
BRANCH  12  21
ATOM     21  C   UNL     1      -0.290  -8.152   2.255  0.00  0.00    +0.079 C 
BRANCH  21  22
ATOM     22  C   UNL     1       0.648  -8.917   1.319  0.00  0.00    -0.010 C 
ATOM     23  C   UNL     1       0.804 -10.355   1.818  0.00  0.00    +0.007 C 
ATOM     24  C   UNL     1       0.060  -8.929  -0.094  0.00  0.00    +0.007 C 
ENDBRANCH  21  22
ENDBRANCH  12  21
TORSDOF 3
