REMARK  Name = ZINC38965529
REMARK  8 active torsions:
REMARK  status: ('A' for Active; 'I' for Inactive)
REMARK    1  A    between atoms: C_1  and  O_2
REMARK    2  A    between atoms: O_2  and  C_3
REMARK    3  A    between atoms: C_8  and  C_9
REMARK    4  A    between atoms: C_10  and  C_11
REMARK    5  A    between atoms: N_12  and  N_13
REMARK    6  A    between atoms: C_14  and  C_21
REMARK    7  A    between atoms: C_18  and  S_20
REMARK    8  A    between atoms: C_24  and  C_27
REMARK                            x       y       z     vdW  Elec       q    Type
REMARK                         _______ _______ _______ _____ _____    ______ ____
ROOT
ATOM      1  N   UNL     1      -0.957  -7.050   1.828  0.00  0.00    -0.207 N 
ATOM      2  C   UNL     1      -0.976  -8.522   1.900  0.00  0.00    +0.206 C 
ATOM      3  N   UNL     1      -1.683  -8.875   3.152  0.00  0.00    -0.231 NA
ATOM      4  N   UNL     1      -1.533  -7.686   4.005  0.00  0.00    -0.225 NA
ATOM      5  C   UNL     1      -1.647  -6.564   3.041  0.00  0.00    +0.231 C 
ATOM      6  H   UNL     1      -1.267  -9.686   3.585  0.00  0.00    +0.143 HD
ATOM      7  H   UNL     1      -0.632  -7.677   4.458  0.00  0.00    +0.143 HD
ENDROOT
BRANCH   2   8
ATOM      8  C   UNL     1      -1.723  -9.096   0.694  0.00  0.00    +0.190 C 
ATOM      9  C   UNL     1      -1.807 -10.609   0.787  0.00  0.00    +0.034 C 
ATOM     10  C   UNL     1      -1.143 -11.037  -0.304  0.00  0.00    +0.091 C 
ATOM     11  N   UNL     1      -0.682  -9.980  -1.023  0.00  0.00    -0.154 NA
ATOM     12  N   UNL     1      -0.959  -8.874  -0.544  0.00  0.00    -0.176 NA
BRANCH  10  13
ATOM     13  C   UNL     1      -0.944 -12.461  -0.670  0.00  0.00    +0.002 A 
ATOM     14  C   UNL     1      -1.465 -13.470   0.138  0.00  0.00    +0.010 A 
ATOM     15  C   UNL     1      -1.277 -14.793  -0.207  0.00  0.00    +0.001 A 
ATOM     16  C   UNL     1      -0.572 -15.118  -1.352  0.00  0.00    +0.000 A 
ATOM     17  C   UNL     1      -0.052 -14.121  -2.157  0.00  0.00    +0.001 A 
ATOM     18  C   UNL     1      -0.239 -12.794  -1.825  0.00  0.00    +0.010 A 
ENDBRANCH  10  13
ENDBRANCH   2   8
BRANCH   1  20
ATOM     19  C   UNL     1      -0.447  -4.968   0.887  0.00  0.00    +0.130 C 
ATOM     20  N   UNL     1      -0.392  -6.267   0.814  0.00  0.00    -0.189 NA
BRANCH  19  22
ATOM     21  C   UNL     1       0.069  -2.829  -0.064  0.00  0.00    +0.013 C 
ATOM     22  C   UNL     1       0.126  -4.175  -0.140  0.00  0.00    +0.022 C 
BRANCH  21  28
ATOM     23  C   UNL     1       0.606  -0.607  -1.055  0.00  0.00    +0.127 A 
ATOM     24  C   UNL     1       1.172   0.158  -2.061  0.00  0.00    +0.046 A 
ATOM     25  C   UNL     1       1.786  -0.456  -3.137  0.00  0.00    +0.004 A 
ATOM     26  C   UNL     1       1.840  -1.838  -3.218  0.00  0.00    +0.001 A 
ATOM     27  C   UNL     1       1.282  -2.615  -2.226  0.00  0.00    +0.011 A 
ATOM     28  C   UNL     1       0.662  -2.006  -1.130  0.00  0.00    +0.017 A 
BRANCH  23  30
ATOM     29  C   UNL     1      -0.017   1.425   0.010  0.00  0.00    +0.277 C 
ATOM     30  O   UNL     1       0.002  -0.004   0.002  0.00  0.00    -0.495 OA
ENDBRANCH  23  30
ENDBRANCH  21  28
ENDBRANCH  19  22
ENDBRANCH   1  20
BRANCH   5  31
ATOM     31  S   UNL     1      -3.391  -6.216   2.682  0.00  0.00    -0.138 S 
ATOM     32  H   UNL     1      -3.886  -5.788   3.857  0.00  0.00    +0.105 HD
ENDBRANCH   5  31
TORSDOF 7
