REMARK  Name = ZINC12482289
REMARK  8 active torsions:
REMARK  status: ('A' for Active; 'I' for Inactive)
REMARK    1  A    between atoms: C_1  and  C_2
REMARK    2  A    between atoms: C_5  and  N_9
REMARK    3  A    between atoms: C_6  and  C_8
REMARK    4  A    between atoms: N_9  and  S_10
REMARK    5  A    between atoms: S_10  and  C_13
REMARK    6  A    between atoms: C_16  and  N_19
REMARK    7  A    between atoms: C_20  and  C_21
REMARK    8  A    between atoms: C_25  and  N_27
REMARK                            x       y       z     vdW  Elec       q    Type
REMARK                         _______ _______ _______ _____ _____    ______ ____
ROOT
ATOM      1  C   UNL     1      -1.037   6.342   0.039  0.00  0.00    +0.109 A 
ATOM      2  C   UNL     1      -1.811   5.604  -0.839  0.00  0.00    +0.031 A 
ATOM      3  C   UNL     1      -1.703   4.229  -0.871  0.00  0.00    +0.029 A 
ATOM      4  C   UNL     1      -0.809   3.583  -0.014  0.00  0.00    +0.064 A 
ATOM      5  C   UNL     1      -0.035   4.333   0.873  0.00  0.00    +0.029 A 
ATOM      6  C   UNL     1      -0.149   5.708   0.890  0.00  0.00    +0.031 A 
ENDROOT
BRANCH   1   7
ATOM      7  S   UNL     1      -1.180   8.098   0.072  0.00  0.00    +0.072 S 
ATOM      8  O   UNL     1       0.043   8.596   0.595  0.00  0.00    -0.150 OA
ATOM      9  O   UNL     1      -1.681   8.488  -1.200  0.00  0.00    -0.150 OA
BRANCH   7  10
ATOM     10  N   UNL     1      -2.355   8.472   1.177  0.00  0.00    -0.216 N 
ATOM     11  H   UNL     1      -3.150   8.953   0.897  0.00  0.00    +0.174 HD
BRANCH  10  16
ATOM     12  C   UNL     1      -1.732   6.947   6.604  0.00  0.00    +0.044 C 
ATOM     13  C   UNL     1      -1.897   7.352   5.162  0.00  0.00    -0.050 A 
ATOM     14  C   UNL     1      -0.794   7.736   4.422  0.00  0.00    +0.005 A 
ATOM     15  C   UNL     1      -0.942   8.108   3.100  0.00  0.00    +0.025 A 
ATOM     16  C   UNL     1      -2.201   8.096   2.514  0.00  0.00    +0.051 A 
ATOM     17  C   UNL     1      -3.308   7.714   3.261  0.00  0.00    -0.028 A 
ATOM     18  C   UNL     1      -3.152   7.338   4.581  0.00  0.00    +0.008 A 
ATOM     19  C   UNL     1      -4.677   7.705   2.631  0.00  0.00    +0.046 C 
ENDBRANCH  10  16
ENDBRANCH   7  10
ENDBRANCH   1   7
BRANCH   4  20
ATOM     20  N   UNL     1      -0.697   2.219  -0.040  0.00  0.00    -0.255 NA
ATOM     21  C   UNL     1       0.480   1.662  -0.031  0.00  0.00    +0.119 C 
BRANCH  21  22
ATOM     22  C   UNL     1       0.601   0.195  -0.059  0.00  0.00    -0.005 A 
ATOM     23  C   UNL     1      -0.547  -0.604  -0.084  0.00  0.00    +0.011 A 
ATOM     24  C   UNL     1      -0.426  -1.977  -0.115  0.00  0.00    +0.023 A 
ATOM     25  C   UNL     1       0.828  -2.566  -0.111  0.00  0.00    +0.071 A 
ATOM     26  C   UNL     1       1.969  -1.781  -0.081  0.00  0.00    +0.145 A 
ATOM     27  C   UNL     1       1.863  -0.406  -0.055  0.00  0.00    +0.043 A 
ATOM     28 CL   UNL     1       0.970  -4.296  -0.144  0.00  0.00    -0.081 Cl
BRANCH  26  29
ATOM     29  N   UNL     1       3.304  -2.419  -0.078  0.00  0.00    +0.058 N 
ATOM     30  O   UNL     1       4.308  -1.730  -0.051  0.00  0.00    -0.126 OA
ATOM     31  O   UNL     1       3.399  -3.633  -0.101  0.00  0.00    -0.126 OA
ENDBRANCH  26  29
ENDBRANCH  21  22
ENDBRANCH   4  20
TORSDOF 6
