REMARK  Name = ZINC20059381
REMARK  9 active torsions:
REMARK  status: ('A' for Active; 'I' for Inactive)
REMARK    1  A    between atoms: C_1  and  C_2
REMARK    2  A    between atoms: C_2  and  C_3
REMARK    3  A    between atoms: C_2  and  C_4
REMARK    4  A    between atoms: C_2  and  C_5
REMARK    5  A    between atoms: C_8  and  O_11
REMARK    6  A    between atoms: O_11  and  C_12
REMARK    7  A    between atoms: C_12  and  C_13
REMARK    8  A    between atoms: C_13  and  N_14
REMARK    9  A    between atoms: C_16  and  C_23
REMARK                            x       y       z     vdW  Elec       q    Type
REMARK                         _______ _______ _______ _____ _____    ______ ____
ROOT
ATOM      1  N   UNL     1      -0.605   5.528  -0.829  0.00  0.00    -0.343 N 
ATOM      2  C   UNL     1      -1.952   5.532  -0.690  0.00  0.00    +0.095 A 
ATOM      3  C   UNL     1      -2.370   4.304  -0.220  0.00  0.00    +0.001 A 
ATOM      4  C   UNL     1      -1.151   3.486  -0.062  0.00  0.00    +0.007 A 
ATOM      5  C   UNL     1      -0.083   4.306  -0.458  0.00  0.00    +0.050 A 
ATOM      6  C   UNL     1       1.213   3.802  -0.418  0.00  0.00    +0.026 A 
ATOM      7  C   UNL     1       1.436   2.510   0.008  0.00  0.00    +0.002 A 
ATOM      8  C   UNL     1       0.379   1.702   0.399  0.00  0.00    +0.001 A 
ATOM      9  C   UNL     1      -0.913   2.182   0.361  0.00  0.00    +0.010 A 
ENDROOT
BRANCH   3  10
ATOM     10  C   UNL     1      -3.701   3.908   0.056  0.00  0.00    +0.023 C 
ATOM     11  C   UNL     1      -4.542   4.752   0.753  0.00  0.00    +0.047 C 
ATOM     12  C   UNL     1      -4.181   6.004   1.455  0.00  0.00    +0.008 A 
ATOM     13  C   UNL     1      -2.983   6.688   1.631  0.00  0.00    +0.010 A 
ATOM     14  C   UNL     1      -2.965   7.863   2.355  0.00  0.00    +0.001 A 
ATOM     15  C   UNL     1      -4.136   8.358   2.903  0.00  0.00    +0.002 A 
ATOM     16  C   UNL     1      -5.330   7.687   2.735  0.00  0.00    +0.024 A 
ATOM     17  C   UNL     1      -5.368   6.502   2.009  0.00  0.00    +0.042 A 
ATOM     18  N   UNL     1      -6.414   5.644   1.692  0.00  0.00    -0.281 N 
ATOM     19  C   UNL     1      -5.989   4.605   0.953  0.00  0.00    +0.249 C 
ATOM     20  O   UNL     1      -6.682   3.698   0.527  0.00  0.00    -0.270 OA
ATOM     21  H   UNL     1      -7.432   5.864   2.045  0.00  0.00    +0.155 HD
ENDBRANCH   3  10
BRANCH   1  22
ATOM     22  C   UNL     1       0.188   6.664  -1.306  0.00  0.00    +0.163 C 
BRANCH  22  23
ATOM     23  C   UNL     1       0.428   6.522  -2.810  0.00  0.00    +0.250 C 
BRANCH  23  24
ATOM     24  O   UNL     1       1.202   7.630  -3.276  0.00  0.00    -0.490 OA
BRANCH  24  28
ATOM     25  C   UNL     1       2.126   7.713  -7.295  0.00  0.00    -0.042 A 
ATOM     26  C   UNL     1       2.562   8.729  -6.466  0.00  0.00    +0.008 A 
ATOM     27  C   UNL     1       2.254   8.704  -5.119  0.00  0.00    +0.046 A 
ATOM     28  C   UNL     1       1.506   7.657  -4.600  0.00  0.00    +0.121 A 
ATOM     29  C   UNL     1       1.074   6.636  -5.433  0.00  0.00    +0.046 A 
ATOM     30  C   UNL     1       1.380   6.669  -6.780  0.00  0.00    +0.008 A 
BRANCH  25  32
ATOM     31  C   UNL     1       3.983   7.736  -8.938  0.00  0.00    +0.015 C 
ATOM     32  C   UNL     1       2.463   7.743  -8.764  0.00  0.00    -0.013 C 
ATOM     33  C   UNL     1       1.866   6.513  -9.450  0.00  0.00    +0.015 C 
ATOM     34  C   UNL     1       1.883   9.011  -9.394  0.00  0.00    +0.015 C 
ENDBRANCH  25  32
ENDBRANCH  24  28
ENDBRANCH  23  24
ENDBRANCH  22  23
ENDBRANCH   1  22
TORSDOF 6
