REMARK  Name = ZINC14882180
REMARK  10 active torsions:
REMARK  status: ('A' for Active; 'I' for Inactive)
REMARK    1  A    between atoms: C_1  and  C_2
REMARK    2  A    between atoms: C_2  and  C_3
REMARK    3  A    between atoms: C_2  and  C_4
REMARK    4  A    between atoms: N_6  and  C_7
REMARK    5  A    between atoms: N_6  and  C_22
REMARK    6  A    between atoms: C_7  and  C_8
REMARK    7  A    between atoms: C_12  and  O_14
REMARK    8  A    between atoms: O_14  and  C_15
REMARK    9  A    between atoms: C_15  and  C_16
REMARK   10  A    between atoms: C_16  and  C_17
REMARK                            x       y       z     vdW  Elec       q    Type
REMARK                         _______ _______ _______ _____ _____    ______ ____
ROOT
ATOM      1  C   UNL     1      -2.076  -3.423  -0.992  0.00  0.00    -0.027 A 
ATOM      2  C   UNL     1      -0.849  -3.433  -1.628  0.00  0.00    +0.005 A 
ATOM      3  C   UNL     1      -0.002  -2.346  -1.519  0.00  0.00    +0.004 A 
ATOM      4  C   UNL     1      -0.383  -1.243  -0.779  0.00  0.00    +0.045 A 
ATOM      5  C   UNL     1      -1.612  -1.233  -0.135  0.00  0.00    +0.121 A 
ATOM      6  C   UNL     1      -2.459  -2.325  -0.245  0.00  0.00    +0.050 A 
ENDROOT
BRANCH   1   7
ATOM      7  C   UNL     1      -2.997  -4.610  -1.112  0.00  0.00    +0.143 C 
BRANCH   7  10
ATOM      8  C   UNL     1      -5.088  -3.874  -2.123  0.00  0.00    +0.219 C 
ATOM      9  O   UNL     1      -5.485  -3.575  -1.017  0.00  0.00    -0.275 OA
ATOM     10  N   UNL     1      -3.871  -4.434  -2.274  0.00  0.00    -0.294 N 
BRANCH  10  11
ATOM     11  C   UNL     1      -3.423  -4.867  -3.600  0.00  0.00    +0.076 C 
ATOM     12  C   UNL     1      -3.305  -3.650  -4.541  0.00  0.00    +0.022 C 
ATOM     13  C   UNL     1      -3.782  -4.184  -5.914  0.00  0.00    +0.002 C 
ATOM     14  C   UNL     1      -4.946  -5.131  -5.528  0.00  0.00    +0.002 C 
ATOM     15  C   UNL     1      -4.466  -5.808  -4.227  0.00  0.00    +0.022 C 
ENDBRANCH  10  11
BRANCH   8  17
ATOM     16  C   UNL     1      -7.050  -4.687  -3.403  0.00  0.00    +0.017 C 
ATOM     17  C   UNL     1      -5.955  -3.621  -3.329  0.00  0.00    +0.069 C 
ATOM     18  C   UNL     1      -6.598  -2.237  -3.213  0.00  0.00    +0.017 C 
ENDBRANCH   8  17
ENDBRANCH   7  10
ENDBRANCH   1   7
BRANCH   5  19
ATOM     19  O   UNL     1      -1.986  -0.152   0.599  0.00  0.00    -0.492 OA
BRANCH  19  20
ATOM     20  C   UNL     1      -1.063   0.937   0.668  0.00  0.00    +0.234 C 
BRANCH  20  21
ATOM     21  C   UNL     1      -1.655   2.053   1.532  0.00  0.00    +0.083 C 
BRANCH  21  22
ATOM     22  C   UNL     1      -0.681   3.201   1.605  0.00  0.00    -0.007 A 
ATOM     23  C   UNL     1      -0.567   4.276   0.788  0.00  0.00    +0.011 A 
ATOM     24  C   UNL     1       0.410   5.218   1.052  0.00  0.00    +0.008 A 
ATOM     25  C   UNL     1       1.231   5.033   2.115  0.00  0.00    +0.045 A 
ATOM     26  S   UNL     1       0.626   3.493   2.786  0.00  0.00    -0.101 S 
ENDBRANCH  21  22
ENDBRANCH  20  21
ENDBRANCH  19  20
ENDBRANCH   5  19
TORSDOF 8
