REMARK  Name = ZINC36748716
REMARK  17 active torsions:
REMARK  status: ('A' for Active; 'I' for Inactive)
REMARK    1  A    between atoms: C_1  and  C_2
REMARK    2  A    between atoms: C_10  and  O_43
REMARK    3  A    between atoms: C_20  and  C_24
REMARK    4  A    between atoms: C_20  and  C_41
REMARK    5  A    between atoms: C_21  and  O_23
REMARK    6  A    between atoms: C_24  and  C_25
REMARK    7  A    between atoms: C_25  and  C_26
REMARK    8  A    between atoms: C_26  and  C_27
REMARK    9  A    between atoms: C_27  and  C_28
REMARK   10  A    between atoms: C_28  and  C_29
REMARK   11  A    between atoms: C_29  and  C_30
REMARK   12  A    between atoms: C_30  and  C_31
REMARK   13  A    between atoms: C_31  and  N_32
REMARK   14  A    between atoms: N_32  and  C_33
REMARK   15  A    between atoms: C_33  and  C_34
REMARK   16  A    between atoms: C_34  and  C_35
REMARK   17  A    between atoms: C_41  and  O_42
REMARK                            x       y       z     vdW  Elec       q    Type
REMARK                         _______ _______ _______ _____ _____    ______ ____
ROOT
ATOM      1  C   UNL     1       0.202   1.987   0.233  0.00  0.00    +0.014 C 
ATOM      2  C   UNL     1       0.111   0.466   0.373  0.00  0.00    -0.002 C 
ATOM      3  C   UNL     1      -1.323   0.045   0.586  0.00  0.00    +0.010 C 
ATOM      4  C   UNL     1      -1.654  -0.060   2.086  0.00  0.00    +0.009 C 
ATOM      5  C   UNL     1      -0.788   0.896   2.882  0.00  0.00    +0.023 C 
ATOM      6  C   UNL     1      -1.169   1.051   4.326  0.00  0.00    -0.041 A 
ATOM      7  C   UNL     1      -2.482   0.861   4.717  0.00  0.00    +0.008 A 
ATOM      8  C   UNL     1      -2.847   1.004   6.041  0.00  0.00    +0.046 A 
ATOM      9  C   UNL     1      -1.885   1.341   6.982  0.00  0.00    +0.117 A 
ATOM     10  C   UNL     1      -0.574   1.536   6.587  0.00  0.00    +0.049 A 
ATOM     11  C   UNL     1      -0.202   1.396   5.255  0.00  0.00    -0.040 A 
ATOM     12  C   UNL     1       1.242   1.639   4.910  0.00  0.00    +0.036 C 
ATOM     13  C   UNL     1       1.520   1.569   3.405  0.00  0.00    +0.009 C 
ATOM     14  C   UNL     1       0.675   0.438   2.837  0.00  0.00    +0.000 C 
ATOM     15  C   UNL     1       1.031  -0.075   1.486  0.00  0.00    +0.002 C 
ATOM     16  C   UNL     1       2.425   0.248   0.930  0.00  0.00    +0.016 C 
ATOM     17  C   UNL     1       2.288  -0.155  -0.565  0.00  0.00    +0.021 C 
ATOM     18  C   UNL     1       0.773  -0.138  -0.884  0.00  0.00    +0.129 C 
ENDROOT
BRANCH  18  19
ATOM     19  O   UNL     1       0.505   0.692  -2.012  0.00  0.00    -0.391 OA
ATOM     20  H   UNL     1       0.892   0.371  -2.837  0.00  0.00    +0.210 HD
ENDBRANCH  18  19
BRANCH   9  21
ATOM     21  O   UNL     1      -2.232   1.478   8.289  0.00  0.00    -0.507 OA
ATOM     22  H   UNL     1      -2.162   0.661   8.802  0.00  0.00    +0.292 HD
ENDBRANCH   9  21
BRANCH  17  23
ATOM     23  C   UNL     1       2.851  -1.563  -0.779  0.00  0.00    +0.165 C 
BRANCH  23  24
ATOM     24  O   UNL     1       4.201  -1.612  -0.313  0.00  0.00    -0.394 OA
ATOM     25  H   UNL     1       4.622  -2.476  -0.418  0.00  0.00    +0.209 HD
ENDBRANCH  23  24
ENDBRANCH  17  23
BRANCH  17  26
ATOM     26  C   UNL     1       3.035   0.840  -1.454  0.00  0.00    +0.012 C 
BRANCH  26  27
ATOM     27  C   UNL     1       4.481   0.970  -0.971  0.00  0.00    +0.001 C 
BRANCH  27  28
ATOM     28  C   UNL     1       5.192   2.058  -1.778  0.00  0.00    +0.000 C 
BRANCH  28  29
ATOM     29  C   UNL     1       6.638   2.188  -1.295  0.00  0.00    -0.000 C 
BRANCH  29  30
ATOM     30  C   UNL     1       7.350   3.275  -2.103  0.00  0.00    -0.000 C 
BRANCH  30  31
ATOM     31  C   UNL     1       8.796   3.405  -1.619  0.00  0.00    -0.002 C 
BRANCH  31  32
ATOM     32  C   UNL     1       9.508   4.492  -2.427  0.00  0.00    -0.019 C 
BRANCH  32  33
ATOM     33  C   UNL     1      10.954   4.622  -1.943  0.00  0.00    -0.083 C 
BRANCH  33  34
ATOM     34  N   UNL     1      11.637   5.666  -2.719  0.00  0.00    +0.379 N 
ATOM     35  H   UNL     1      11.631   5.417  -3.696  0.00  0.00    -0.086 HD
ATOM     36  H   UNL     1      11.160   6.546  -2.592  0.00  0.00    -0.086 HD
BRANCH  34  37
ATOM     37  C   UNL     1      13.025   5.791  -2.255  0.00  0.00    -0.076 C 
BRANCH  37  38
ATOM     38  C   UNL     1      13.737   6.878  -3.062  0.00  0.00    +0.036 C 
BRANCH  38  39
ATOM     39  C   UNL     1      15.161   7.006  -2.586  0.00  0.00    +0.040 A 
ATOM     40  C   UNL     1      16.198   6.894  -3.494  0.00  0.00    +0.023 A 
ATOM     41  C   UNL     1      17.504   7.013  -3.045  0.00  0.00    +0.003 A 
ATOM     42  C   UNL     1      17.720   7.242  -1.695  0.00  0.00    +0.020 A 
ATOM     43  C   UNL     1      16.634   7.342  -0.847  0.00  0.00    +0.111 A 
ATOM     44  N   UNL     1      15.404   7.229  -1.309  0.00  0.00    -0.260 NA
ENDBRANCH  38  39
ENDBRANCH  37  38
ENDBRANCH  34  37
ENDBRANCH  33  34
ENDBRANCH  32  33
ENDBRANCH  31  32
ENDBRANCH  30  31
ENDBRANCH  29  30
ENDBRANCH  28  29
ENDBRANCH  27  28
ENDBRANCH  26  27
ENDBRANCH  17  26
TORSDOF 16
