REMARK  Name = ZINC36682544
REMARK  7 active torsions:
REMARK  status: ('A' for Active; 'I' for Inactive)
REMARK    1  A    between atoms: C_1  and  C_2
REMARK    2  A    between atoms: C_2  and  N_3
REMARK    3  A    between atoms: C_4  and  C_9
REMARK    4  A    between atoms: C_6  and  C_8
REMARK    5  A    between atoms: C_15  and  C_17
REMARK    6  A    between atoms: C_19  and  C_24
REMARK    7  A    between atoms: C_21  and  C_23
REMARK                            x       y       z     vdW  Elec       q    Type
REMARK                         _______ _______ _______ _____ _____    ______ ____
ROOT
ATOM      1  C   UNL     1      -1.747  -0.426   2.524  0.00  0.00    +0.270 C 
ATOM      2  O   UNL     1      -2.476  -0.767   3.437  0.00  0.00    -0.268 OA
ATOM      3  N   UNL     1      -0.585   0.202   2.789  0.00  0.00    -0.233 N 
ATOM      4  C   UNL     1      -0.167   0.362   4.099  0.00  0.00    +0.315 A 
ATOM      5  N   UNL     1      -0.800  -0.051   5.171  0.00  0.00    -0.092 NA
ATOM      6  N   UNL     1      -0.123   0.268   6.217  0.00  0.00    -0.106 NA
ATOM      7  C   UNL     1       0.968   0.898   5.854  0.00  0.00    +0.250 A 
ATOM      8  O   UNL     1       0.965   0.966   4.505  0.00  0.00    -0.405 OA
ATOM      9  H   UNL     1      -0.040   0.541   2.061  0.00  0.00    +0.160 HD
ENDROOT
BRANCH   7  10
ATOM     10  C   UNL     1       2.012   1.431   6.755  0.00  0.00    +0.039 A 
ATOM     11  C   UNL     1       3.124   2.089   6.227  0.00  0.00    +0.016 A 
ATOM     12  C   UNL     1       4.095   2.583   7.073  0.00  0.00    -0.049 A 
ATOM     13  C   UNL     1       3.968   2.428   8.442  0.00  0.00    +0.006 A 
ATOM     14  C   UNL     1       2.868   1.777   8.972  0.00  0.00    -0.049 A 
ATOM     15  C   UNL     1       1.887   1.283   8.137  0.00  0.00    +0.016 A 
ATOM     16  C   UNL     1       2.738   1.613  10.464  0.00  0.00    +0.044 C 
ATOM     17  C   UNL     1       5.297   3.293   6.505  0.00  0.00    +0.044 C 
ENDBRANCH   7  10
BRANCH   1  19
ATOM     18  N   UNL     1      -3.318  -1.229   0.699  0.00  0.00    -0.259 N 
ATOM     19  C   UNL     1      -2.136  -0.698   1.132  0.00  0.00    +0.124 A 
ATOM     20  C   UNL     1      -1.377  -0.468  -0.003  0.00  0.00    +0.057 A 
ATOM     21  C   UNL     1      -2.173  -0.886  -1.072  0.00  0.00    +0.061 A 
ATOM     22  N   UNL     1      -3.303  -1.328  -0.582  0.00  0.00    -0.176 NA
ATOM     23  C   UNL     1      -1.796  -0.841  -2.530  0.00  0.00    +0.067 C 
BRANCH  18  25
ATOM     24  C   UNL     1      -4.319  -3.121   1.881  0.00  0.00    +0.029 C 
ATOM     25  C   UNL     1      -4.431  -1.629   1.564  0.00  0.00    +0.141 C 
ENDBRANCH  18  25
ENDBRANCH   1  19
TORSDOF 3
