REMARK  Name = ZINC01504450
REMARK  6 active torsions:
REMARK  status: ('A' for Active; 'I' for Inactive)
REMARK    1  A    between atoms: C_4  and  C_7
REMARK    2  A    between atoms: N_9  and  N_10
REMARK    3  A    between atoms: N_10  and  C_11
REMARK    4  A    between atoms: C_14  and  C_25
REMARK    5  A    between atoms: C_17  and  C_19
REMARK    6  A    between atoms: C_30  and  O_31
REMARK                            x       y       z     vdW  Elec       q    Type
REMARK                         _______ _______ _______ _____ _____    ______ ____
ROOT
ATOM      1  C   UNL     1       4.722  -4.122  -0.074  0.00  0.00    +0.190 C 
ATOM      2  C   UNL     1       5.932  -4.820   0.578  0.00  0.00    +0.099 C 
ATOM      3  C   UNL     1       6.494  -5.685  -0.527  0.00  0.00    +0.073 C 
ATOM      4  N   UNL     1       5.783  -5.537  -1.592  0.00  0.00    -0.180 NA
ATOM      5  N   UNL     1       4.716  -4.648  -1.449  0.00  0.00    -0.170 N 
ATOM      6  C   UNL     1       3.827  -4.324  -2.409  0.00  0.00    +0.267 C 
ATOM      7  O   UNL     1       2.879  -3.609  -2.143  0.00  0.00    -0.268 OA
ENDROOT
BRANCH   6   8
ATOM      8  C   UNL     1       4.004  -4.835  -3.784  0.00  0.00    +0.039 A 
ATOM      9  C   UNL     1       5.011  -5.762  -4.063  0.00  0.00    +0.013 A 
ATOM     10  C   UNL     1       5.170  -6.236  -5.348  0.00  0.00    +0.001 A 
ATOM     11  C   UNL     1       4.336  -5.795  -6.360  0.00  0.00    +0.000 A 
ATOM     12  C   UNL     1       3.337  -4.877  -6.090  0.00  0.00    +0.001 A 
ATOM     13  C   UNL     1       3.162  -4.399  -4.808  0.00  0.00    +0.013 A 
ENDBRANCH   6   8
BRANCH   3  14
ATOM     14  C   UNL     1       7.672  -6.561  -0.405  0.00  0.00    +0.039 A 
ATOM     15  C   UNL     1       8.363  -6.645   0.806  0.00  0.00    +0.013 A 
ATOM     16  C   UNL     1       9.465  -7.467   0.913  0.00  0.00    +0.001 A 
ATOM     17  C   UNL     1       9.890  -8.210  -0.175  0.00  0.00    +0.004 A 
ATOM     18  C   UNL     1       9.215  -8.136  -1.379  0.00  0.00    +0.046 A 
ATOM     19  C   UNL     1       8.102  -7.320  -1.502  0.00  0.00    +0.126 A 
BRANCH  19  20
ATOM     20  O   UNL     1       7.435  -7.251  -2.683  0.00  0.00    -0.506 OA
ATOM     21  H   UNL     1       7.763  -6.565  -3.281  0.00  0.00    +0.292 HD
ENDBRANCH  19  20
ENDBRANCH   3  14
BRANCH   1  22
ATOM     22  N   UNL     1       4.906  -2.665  -0.079  0.00  0.00    -0.218 NA
ATOM     23  H   UNL     1       5.487  -2.371   0.691  0.00  0.00    +0.146 HD
BRANCH  22  26
ATOM     24  C   UNL     1       3.660  -0.672  -0.058  0.00  0.00    +0.258 C 
ATOM     25  O   UNL     1       4.693  -0.032  -0.078  0.00  0.00    -0.269 OA
ATOM     26  N   UNL     1       3.702  -2.019  -0.058  0.00  0.00    -0.245 N 
ATOM     27  H   UNL     1       2.878  -2.531  -0.042  0.00  0.00    +0.169 HD
BRANCH  24  31
ATOM     28  C   UNL     1      -0.083   1.335   0.008  0.00  0.00    +0.000 A 
ATOM     29  C   UNL     1       1.091   2.067  -0.014  0.00  0.00    +0.001 A 
ATOM     30  C   UNL     1       2.310   1.421  -0.036  0.00  0.00    +0.013 A 
ATOM     31  C   UNL     1       2.357   0.026  -0.035  0.00  0.00    +0.038 A 
ATOM     32  C   UNL     1       1.169  -0.706  -0.013  0.00  0.00    +0.013 A 
ATOM     33  C   UNL     1      -0.043  -0.048   0.009  0.00  0.00    +0.001 A 
ENDBRANCH  24  31
ENDBRANCH  22  26
ENDBRANCH   1  22
TORSDOF 6
