REMARK  Name = ZINC09608268
REMARK  12 active torsions:
REMARK  status: ('A' for Active; 'I' for Inactive)
REMARK    1  A    between atoms: C_1  and  C_2
REMARK    2  A    between atoms: C_2  and  N_3
REMARK    3  A    between atoms: N_3  and  C_4
REMARK    4  A    between atoms: N_3  and  C_30
REMARK    5  A    between atoms: C_4  and  C_5
REMARK    6  A    between atoms: C_5  and  C_6
REMARK    7  A    between atoms: C_6  and  N_7
REMARK    8  A    between atoms: C_8  and  C_10
REMARK    9  A    between atoms: C_13  and  C_16
REMARK   10  A    between atoms: C_16  and  N_17
REMARK   11  A    between atoms: N_17  and  S_18
REMARK   12  A    between atoms: S_18  and  C_21
REMARK                            x       y       z     vdW  Elec       q    Type
REMARK                         _______ _______ _______ _____ _____    ______ ____
ROOT
ATOM      1  C   UNL     1       4.580   7.501  -4.062  0.00  0.00    +0.075 C 
ATOM      2  C   UNL     1       3.257   6.842  -4.456  0.00  0.00    +0.013 C 
ATOM      3  C   UNL     1       2.725   6.023  -3.279  0.00  0.00    +0.005 C 
ATOM      4  C   UNL     1       3.742   4.942  -2.908  0.00  0.00    +0.005 C 
ATOM      5  C   UNL     1       5.066   5.600  -2.515  0.00  0.00    +0.005 C 
ATOM      6  C   UNL     1       5.598   6.420  -3.692  0.00  0.00    +0.013 C 
ENDROOT
BRANCH   1   8
ATOM      7  N   UNL     1       5.391   9.098  -2.355  0.00  0.00    -0.315 N 
ATOM      8  C   UNL     1       4.358   8.408  -2.879  0.00  0.00    +0.216 C 
ATOM      9  O   UNL     1       3.250   8.516  -2.398  0.00  0.00    -0.276 OA
ATOM     10  H   UNL     1       6.277   9.011  -2.740  0.00  0.00    +0.149 HD
BRANCH   7  11
ATOM     11  C   UNL     1       5.175   9.979  -1.205  0.00  0.00    +0.105 C 
BRANCH  11  12
ATOM     12  C   UNL     1       6.498  10.637  -0.811  0.00  0.00    +0.037 C 
BRANCH  12  13
ATOM     13  C   UNL     1       6.272  11.558   0.390  0.00  0.00    +0.106 C 
BRANCH  13  14
ATOM     14  N   UNL     1       7.540  12.188   0.767  0.00  0.00    -0.330 N 
BRANCH  14  15
ATOM     15  C   UNL     1       7.909  13.409   0.197  0.00  0.00    +0.030 A 
ATOM     16  C   UNL     1       7.079  14.024  -0.731  0.00  0.00    +0.023 A 
ATOM     17  C   UNL     1       7.445  15.233  -1.289  0.00  0.00    +0.002 A 
ATOM     18  C   UNL     1       8.641  15.827  -0.932  0.00  0.00    +0.000 A 
ATOM     19  C   UNL     1       9.473  15.215  -0.012  0.00  0.00    +0.002 A 
ATOM     20  C   UNL     1       9.111  14.008   0.553  0.00  0.00    +0.023 A 
ENDBRANCH  14  15
BRANCH  14  22
ATOM     21  C   UNL     1       9.393  10.611   1.010  0.00  0.00    +0.024 C 
ATOM     22  C   UNL     1       8.420  11.539   1.741  0.00  0.00    +0.102 C 
ENDBRANCH  14  22
ENDBRANCH  13  14
ENDBRANCH  12  13
ENDBRANCH  11  12
ENDBRANCH   7  11
ENDBRANCH   1   8
BRANCH   4  23
ATOM     23  C   UNL     1       3.210   4.122  -1.731  0.00  0.00    +0.109 C 
BRANCH  23  24
ATOM     24  N   UNL     1       4.127   3.014  -1.453  0.00  0.00    -0.190 NA
ATOM     25  H   UNL     1       4.798   2.765  -2.107  0.00  0.00    +0.148 HD
BRANCH  24  26
ATOM     26  S   UNL     1       4.017   2.187  -0.023  0.00  0.00    +0.061 S 
ATOM     27  O   UNL     1       3.970   3.163   1.008  0.00  0.00    -0.153 OA
ATOM     28  O   UNL     1       5.008   1.170  -0.065  0.00  0.00    -0.153 OA
BRANCH  26  29
ATOM     29  C   UNL     1       2.456   1.369  -0.013  0.00  0.00    +0.133 A 
ATOM     30  C   UNL     1       2.401   0.015  -0.020  0.00  0.00    +0.031 A 
ATOM     31  C   UNL     1       1.184  -0.666  -0.012  0.00  0.00    +0.004 A 
ATOM     32  C   UNL     1       0.002  -0.004   0.002  0.00  0.00    +0.031 A 
ATOM     33  C   UNL     1      -0.017   1.415   0.010  0.00  0.00    +0.102 A 
ATOM     34  C   UNL     1       1.257   2.128   0.002  0.00  0.00    +0.126 A 
ATOM     35  N   UNL     1       1.091   3.449   0.010  0.00  0.00    -0.189 NA
ATOM     36  S   UNL     1      -0.456   3.696   0.026  0.00  0.00    +0.117 S 
ATOM     37  N   UNL     1      -1.056   2.248   0.019  0.00  0.00    -0.191 NA
ENDBRANCH  26  29
ENDBRANCH  24  26
ENDBRANCH  23  24
ENDBRANCH   4  23
TORSDOF 11
