REMARK  Name = ZINC39152494
REMARK  9 active torsions:
REMARK  status: ('A' for Active; 'I' for Inactive)
REMARK    1  A    between atoms: C_1  and  C_2
REMARK    2  A    between atoms: C_4  and  N_17
REMARK    3  A    between atoms: N_8  and  C_11
REMARK    4  A    between atoms: N_9  and  C_10
REMARK    5  A    between atoms: C_18  and  C_20
REMARK    6  A    between atoms: C_20  and  S_21
REMARK    7  A    between atoms: S_21  and  C_22
REMARK    8  A    between atoms: C_25  and  C_34
REMARK    9  A    between atoms: C_26  and  C_28
REMARK                            x       y       z     vdW  Elec       q    Type
REMARK                         _______ _______ _______ _____ _____    ______ ____
ROOT
ATOM      1  C   UNL     1       3.531   0.985  -3.465  0.00  0.00    +0.173 C 
ENDROOT
BRANCH   1   3
ATOM      2  N   UNL     1       2.016   0.036  -1.756  0.00  0.00    -0.302 N 
ATOM      3  C   UNL     1       2.470   0.010  -3.025  0.00  0.00    +0.224 C 
ATOM      4  O   UNL     1       2.025  -0.799  -3.812  0.00  0.00    -0.275 OA
ATOM      5  H   UNL     1       2.372   0.682  -1.127  0.00  0.00    +0.150 HD
BRANCH   2   8
ATOM      6  C   UNL     1       0.256   1.177  -0.088  0.00  0.00    +0.028 C 
ATOM      7  C   UNL     1       0.185  -0.350  -0.127  0.00  0.00    +0.102 C 
ATOM      8  C   UNL     1       0.984  -0.912  -1.328  0.00  0.00    +0.179 C 
ATOM      9  C   UNL     1       1.606  -2.166  -0.742  0.00  0.00    +0.256 C 
ATOM     10  O   UNL     1       2.115  -3.071  -1.370  0.00  0.00    -0.272 OA
ATOM     11  N   UNL     1       1.494  -2.098   0.598  0.00  0.00    -0.201 N 
ATOM     12  N   UNL     1       0.905  -0.944   1.024  0.00  0.00    -0.218 NA
ATOM     13  C   UNL     1       1.905  -0.009   1.558  0.00  0.00    +0.128 C 
BRANCH  11  14
ATOM     14  C   UNL     1       1.934  -3.106   1.463  0.00  0.00    +0.053 A 
ATOM     15  C   UNL     1       1.336  -3.266   2.705  0.00  0.00    +0.025 A 
ATOM     16  C   UNL     1       1.773  -4.262   3.557  0.00  0.00    +0.002 A 
ATOM     17  C   UNL     1       2.805  -5.098   3.173  0.00  0.00    +0.000 A 
ATOM     18  C   UNL     1       3.404  -4.940   1.937  0.00  0.00    +0.002 A 
ATOM     19  C   UNL     1       2.967  -3.950   1.078  0.00  0.00    +0.025 A 
ENDBRANCH  11  14
ENDBRANCH   2   8
ENDBRANCH   1   3
BRANCH   1  20
ATOM     20  S   UNL     1       3.928   0.698  -5.212  0.00  0.00    -0.079 S 
BRANCH  20  21
ATOM     21  C   UNL     1       5.166   1.899  -5.571  0.00  0.00    +0.168 A 
ATOM     22  N   UNL     1       5.772   2.071  -6.779  0.00  0.00    -0.332 N 
ATOM     23  H   UNL     1       5.601   1.562  -7.586  0.00  0.00    +0.168 HD
ATOM     24  C   UNL     1       6.674   3.109  -6.638  0.00  0.00    +0.075 A 
ATOM     25  C   UNL     1       6.578   3.533  -5.327  0.00  0.00    +0.098 A 
ATOM     26  N   UNL     1       5.646   2.773  -4.718  0.00  0.00    -0.221 NA
BRANCH  25  27
ATOM     27  C   UNL     1       7.356   4.628  -4.704  0.00  0.00    +0.002 A 
ATOM     28  C   UNL     1       7.562   5.822  -5.395  0.00  0.00    +0.010 A 
ATOM     29  C   UNL     1       8.287   6.839  -4.809  0.00  0.00    +0.001 A 
ATOM     30  C   UNL     1       8.810   6.676  -3.538  0.00  0.00    +0.000 A 
ATOM     31  C   UNL     1       8.609   5.495  -2.847  0.00  0.00    +0.001 A 
ATOM     32  C   UNL     1       7.880   4.473  -3.420  0.00  0.00    +0.010 A 
ENDBRANCH  25  27
BRANCH  24  33
ATOM     33  C   UNL     1       7.564   3.655  -7.681  0.00  0.00    +0.000 A 
ATOM     34  C   UNL     1       8.914   3.882  -7.404  0.00  0.00    +0.010 A 
ATOM     35  C   UNL     1       9.739   4.393  -8.384  0.00  0.00    +0.001 A 
ATOM     36  C   UNL     1       9.233   4.680  -9.639  0.00  0.00    +0.000 A 
ATOM     37  C   UNL     1       7.896   4.459  -9.921  0.00  0.00    +0.001 A 
ATOM     38  C   UNL     1       7.060   3.943  -8.953  0.00  0.00    +0.010 A 
ENDBRANCH  24  33
ENDBRANCH  20  21
ENDBRANCH   1  20
TORSDOF 7
