REMARK  Name = ZINC09224410
REMARK  9 active torsions:
REMARK  status: ('A' for Active; 'I' for Inactive)
REMARK    1  A    between atoms: C_1  and  C_2
REMARK    2  A    between atoms: C_5  and  N_8
REMARK    3  A    between atoms: C_9  and  C_37
REMARK    4  A    between atoms: C_11  and  C_36
REMARK    5  A    between atoms: C_21  and  C_24
REMARK    6  A    between atoms: N_26  and  C_27
REMARK    7  A    between atoms: C_27  and  C_28
REMARK    8  A    between atoms: C_28  and  C_29
REMARK    9  A    between atoms: C_29  and  N_30
REMARK                            x       y       z     vdW  Elec       q    Type
REMARK                         _______ _______ _______ _____ _____    ______ ____
ROOT
ATOM      1  N   UNL     1      -1.411   2.256   5.570  0.00  0.00    -0.236 N 
ATOM      2  C   UNL     1      -0.258   1.684   5.959  0.00  0.00    +0.051 A 
ATOM      3  C   UNL     1       0.386   1.224   4.832  0.00  0.00    +0.049 A 
ATOM      4  C   UNL     1       1.594   0.553   4.541  0.00  0.00    +0.072 A 
ATOM      5  N   UNL     1       1.889   0.266   3.299  0.00  0.00    -0.152 NA
ATOM      6  N   UNL     1       1.158   0.543   2.288  0.00  0.00    -0.132 NA
ATOM      7  C   UNL     1       0.000   1.172   2.365  0.00  0.00    +0.172 A 
ATOM      8  C   UNL     1      -0.482   1.566   3.688  0.00  0.00    +0.137 A 
ATOM      9  N   UNL     1      -1.536   2.177   4.177  0.00  0.00    -0.163 NA
ATOM     10  N   UNL     1      -0.739   1.446   1.226  0.00  0.00    -0.311 N 
ATOM     11  C   UNL     1      -2.093   0.887   1.330  0.00  0.00    +0.106 C 
ATOM     12  C   UNL     1      -2.924   1.331   0.125  0.00  0.00    +0.020 C 
ATOM     13  C   UNL     1      -2.249   0.846  -1.161  0.00  0.00    +0.016 C 
ATOM     14  C   UNL     1      -0.824   1.403  -1.222  0.00  0.00    +0.092 C 
ATOM     15  C   UNL     1      -0.054   0.957   0.023  0.00  0.00    +0.119 C 
ATOM     16  C   UNL     1       2.536   0.169   5.652  0.00  0.00    +0.068 C 
ATOM     17  C   UNL     1       0.241   1.567   7.376  0.00  0.00    +0.066 C 
ENDROOT
BRANCH   1  22
ATOM     18  C   UNL     1      -5.207   4.636   9.053  0.00  0.00    +0.044 C 
ATOM     19  C   UNL     1      -4.199   4.004   8.128  0.00  0.00    -0.050 A 
ATOM     20  C   UNL     1      -2.848   4.227   8.324  0.00  0.00    +0.005 A 
ATOM     21  C   UNL     1      -1.922   3.649   7.478  0.00  0.00    +0.028 A 
ATOM     22  C   UNL     1      -2.348   2.843   6.431  0.00  0.00    +0.066 A 
ATOM     23  C   UNL     1      -3.705   2.625   6.234  0.00  0.00    +0.028 A 
ATOM     24  C   UNL     1      -4.627   3.201   7.087  0.00  0.00    +0.005 A 
ENDBRANCH   1  22
BRANCH  14  25
ATOM     25  C   UNL     1      -0.132   0.882  -2.455  0.00  0.00    +0.218 C 
ATOM     26  O   UNL     1       0.878   0.219  -2.350  0.00  0.00    -0.275 OA
ATOM     27  N   UNL     1      -0.636   1.153  -3.676  0.00  0.00    -0.315 N 
ATOM     28  H   UNL     1      -1.444   1.683  -3.760  0.00  0.00    +0.149 HD
BRANCH  27  29
ATOM     29  C   UNL     1       0.036   0.647  -4.875  0.00  0.00    +0.105 C 
BRANCH  29  30
ATOM     30  C   UNL     1      -0.734   1.093  -6.119  0.00  0.00    +0.038 C 
BRANCH  30  31
ATOM     31  C   UNL     1      -0.032   0.565  -7.371  0.00  0.00    +0.109 C 
BRANCH  31  32
ATOM     32  N   UNL     1      -0.770   0.992  -8.562  0.00  0.00    -0.301 N 
ATOM     33  C   UNL     1      -0.519   2.244  -9.287  0.00  0.00    +0.108 C 
ATOM     34  C   UNL     1      -1.773   2.473 -10.159  0.00  0.00    +0.028 C 
ATOM     35  C   UNL     1      -2.304   1.032 -10.334  0.00  0.00    +0.097 C 
ATOM     36  C   UNL     1      -1.760   0.286  -9.135  0.00  0.00    +0.216 C 
ATOM     37  O   UNL     1      -2.160  -0.790  -8.745  0.00  0.00    -0.276 OA
ENDBRANCH  31  32
ENDBRANCH  30  31
ENDBRANCH  29  30
ENDBRANCH  27  29
ENDBRANCH  14  25
TORSDOF 6
