REMARK  Name = ZINC33634151
REMARK  9 active torsions:
REMARK  status: ('A' for Active; 'I' for Inactive)
REMARK    1  A    between atoms: C_1  and  O_2
REMARK    2  A    between atoms: O_2  and  C_3
REMARK    3  A    between atoms: C_3  and  C_5
REMARK    4  A    between atoms: C_8  and  C_11
REMARK    5  A    between atoms: N_19  and  C_22
REMARK    6  A    between atoms: C_22  and  C_23
REMARK    7  A    between atoms: C_29  and  C_31
REMARK    8  A    between atoms: C_29  and  C_38
REMARK    9  A    between atoms: C_31  and  C_32
REMARK                            x       y       z     vdW  Elec       q    Type
REMARK                         _______ _______ _______ _____ _____    ______ ____
ROOT
ATOM      1  C   UNL     1       1.123   4.530   2.020  0.00  0.00    -0.027 C 
ATOM      2  C   UNL     1       2.181   3.463   2.168  0.00  0.00    +0.077 C 
ATOM      3  C   UNL     1       2.559   3.318   0.637  0.00  0.00    +0.086 C 
ATOM      4  C   UNL     1       3.722   2.445   0.760  0.00  0.00    +0.225 C 
ATOM      5  O   UNL     1       4.061   1.557   0.008  0.00  0.00    -0.275 OA
ATOM      6  N   UNL     1       4.348   2.849   1.913  0.00  0.00    -0.237 N 
ATOM      7  C   UNL     1       3.553   3.651   2.690  0.00  0.00    +0.225 C 
ATOM      8  O   UNL     1       3.900   4.362   3.608  0.00  0.00    -0.275 OA
ATOM      9  C   UNL     1       1.214   3.157   0.029  0.00  0.00    +0.048 C 
ATOM     10  N   UNL     1       0.315   4.024   0.858  0.00  0.00    +0.395 N 
ATOM     11  H   UNL     1      -0.542   3.445   1.232  0.00  0.00    -0.083 HD
ATOM     12  H   UNL     1      -0.050   4.877   0.267  0.00  0.00    -0.083 HD
ENDROOT
BRANCH   1  16
ATOM     13  C   UNL     1      -1.283   4.785   5.547  0.00  0.00    +0.059 A 
ATOM     14  C   UNL     1      -0.329   5.769   5.275  0.00  0.00    +0.015 A 
ATOM     15  C   UNL     1       0.443   5.680   4.136  0.00  0.00    +0.003 A 
ATOM     16  C   UNL     1       0.275   4.620   3.263  0.00  0.00    -0.061 A 
ATOM     17  C   UNL     1      -0.671   3.645   3.523  0.00  0.00    +0.003 A 
ATOM     18  C   UNL     1      -1.447   3.718   4.661  0.00  0.00    +0.015 A 
BRANCH  13  19
ATOM     19  C   UNL     1      -2.114   4.873   6.765  0.00  0.00    +0.339 C 
ATOM     20  O   UNL     1      -1.968   5.802   7.534  0.00  0.00    -0.245 OA
BRANCH  19  22
ATOM     21  C   UNL     1      -3.813   4.074   8.239  0.00  0.00    +0.280 C 
ATOM     22  O   UNL     1      -3.033   3.923   7.024  0.00  0.00    -0.464 OA
ENDBRANCH  19  22
ENDBRANCH  13  19
ENDBRANCH   1  16
BRANCH   9  23
ATOM     23  C   UNL     1       0.772   1.718   0.105  0.00  0.00    +0.346 C 
ATOM     24  O   UNL     1       1.594   0.833   0.098  0.00  0.00    -0.248 OA
ATOM     25  O   UNL     1      -0.535   1.421   0.180  0.00  0.00    -0.248 OA
ENDBRANCH   9  23
BRANCH   6  26
ATOM     26  C   UNL     1       5.716   2.467   2.273  0.00  0.00    +0.151 C 
BRANCH  26  27
ATOM     27  C   UNL     1       5.687   1.188   3.070  0.00  0.00    -0.030 A 
ATOM     28  C   UNL     1       5.590   1.234   4.448  0.00  0.00    +0.005 A 
ATOM     29  C   UNL     1       5.558   0.061   5.178  0.00  0.00    +0.000 A 
ATOM     30  C   UNL     1       5.634  -1.158   4.531  0.00  0.00    +0.000 A 
ATOM     31  C   UNL     1       5.737  -1.204   3.153  0.00  0.00    +0.000 A 
ATOM     32  C   UNL     1       5.763  -0.031   2.422  0.00  0.00    +0.005 A 
ENDBRANCH  26  27
ENDBRANCH   6  26
BRANCH   9  33
ATOM     33  C   UNL     1       1.224   3.635  -1.424  0.00  0.00    +0.003 C 
BRANCH  33  34
ATOM     34  C   UNL     1      -0.150   3.391  -2.052  0.00  0.00    -0.012 C 
ATOM     35  C   UNL     1      -0.089   3.699  -3.549  0.00  0.00    +0.003 C 
ATOM     36  C   UNL     1      -1.463   3.455  -4.176  0.00  0.00    +0.000 C 
ATOM     37  C   UNL     1      -2.497   4.365  -3.510  0.00  0.00    +0.000 C 
ATOM     38  C   UNL     1      -2.558   4.056  -2.012  0.00  0.00    +0.000 C 
ATOM     39  C   UNL     1      -1.183   4.300  -1.385  0.00  0.00    +0.003 C 
ENDBRANCH  33  34
ENDBRANCH   9  33
TORSDOF 8
