REMARK  Name = ZINC39675450
REMARK  10 active torsions:
REMARK  status: ('A' for Active; 'I' for Inactive)
REMARK    1  A    between atoms: C_1  and  C_2
REMARK    2  A    between atoms: C_2  and  C_4
REMARK    3  A    between atoms: C_2  and  N_14
REMARK    4  A    between atoms: C_4  and  C_5
REMARK    5  A    between atoms: C_5  and  C_6
REMARK    6  A    between atoms: C_9  and  O_12
REMARK    7  A    between atoms: O_12  and  C_13
REMARK    8  A    between atoms: C_15  and  C_17
REMARK    9  A    between atoms: C_28  and  C_30
REMARK   10  A    between atoms: C_33  and  C_35
REMARK                            x       y       z     vdW  Elec       q    Type
REMARK                         _______ _______ _______ _____ _____    ______ ____
ROOT
ATOM      1  C   UNL     1       2.736  -1.073  -2.455  0.00  0.00    +0.100 C 
ATOM      2  C   UNL     1       2.409  -2.561  -2.711  0.00  0.00    +0.121 C 
ATOM      3  N   UNL     1       3.675  -3.140  -3.221  0.00  0.00    -0.294 N 
ATOM      4  C   UNL     1       4.731  -2.493  -2.407  0.00  0.00    +0.115 C 
ATOM      5  C   UNL     1       4.261  -1.032  -2.254  0.00  0.00    -0.004 C 
ATOM      6  C   UNL     1       4.597  -0.513  -0.860  0.00  0.00    -0.010 C 
ATOM      7  C   UNL     1       6.118  -0.426  -0.705  0.00  0.00    -0.082 C 
ATOM      8  N   UNL     1       6.665   0.472  -1.728  0.00  0.00    +0.379 N 
ATOM      9  C   UNL     1       6.419  -0.082  -3.065  0.00  0.00    -0.082 C 
ATOM     10  C   UNL     1       4.910  -0.154  -3.320  0.00  0.00    -0.010 C 
ATOM     11  C   UNL     1       3.830  -4.049  -4.204  0.00  0.00    +0.282 C 
ATOM     12  O   UNL     1       4.945  -4.430  -4.510  0.00  0.00    -0.267 OA
ATOM     13  H   UNL     1       6.221   1.375  -1.653  0.00  0.00    -0.086 HD
ATOM     14  H   UNL     1       7.659   0.576  -1.587  0.00  0.00    -0.086 HD
ENDROOT
BRANCH  11  15
ATOM     15  C   UNL     1       2.658  -4.580  -4.903  0.00  0.00    +0.190 A 
ATOM     16  C   UNL     1       2.674  -5.512  -5.917  0.00  0.00    +0.055 A 
ATOM     17  C   UNL     1       1.343  -5.728  -6.289  0.00  0.00    +0.051 A 
ATOM     18  C   UNL     1       0.570  -4.927  -5.497  0.00  0.00    +0.139 A 
ATOM     19  O   UNL     1       1.372  -4.244  -4.663  0.00  0.00    -0.450 OA
BRANCH  18  20
ATOM     20  C   UNL     1      -0.902  -4.832  -5.545  0.00  0.00    +0.052 A 
ATOM     21  C   UNL     1      -1.553  -4.637  -6.766  0.00  0.00    +0.014 A 
ATOM     22  C   UNL     1      -2.929  -4.549  -6.804  0.00  0.00    +0.001 A 
ATOM     23  C   UNL     1      -3.666  -4.653  -5.637  0.00  0.00    +0.003 A 
ATOM     24  C   UNL     1      -3.030  -4.846  -4.424  0.00  0.00    +0.039 A 
ATOM     25  C   UNL     1      -1.653  -4.942  -4.371  0.00  0.00    +0.134 A 
ATOM     26  F   UNL     1      -1.032  -5.137  -3.186  0.00  0.00    -0.205 F 
ENDBRANCH  18  20
ENDBRANCH  11  15
BRANCH   1  28
ATOM     27  N   UNL     1       1.682   0.710  -1.103  0.00  0.00    -0.312 N 
ATOM     28  C   UNL     1       2.031  -0.587  -1.215  0.00  0.00    +0.218 C 
ATOM     29  O   UNL     1       1.778  -1.363  -0.318  0.00  0.00    -0.275 OA
ATOM     30  H   UNL     1       1.885   1.331  -1.820  0.00  0.00    +0.149 HD
BRANCH  27  32
ATOM     31  C   UNL     1       2.030   1.520   1.179  0.00  0.00    +0.028 C 
ATOM     32  C   UNL     1       0.996   1.182   0.102  0.00  0.00    +0.070 C 
BRANCH  32  33
ATOM     33  C   UNL     1       0.181   2.433  -0.232  0.00  0.00    +0.026 C 
BRANCH  33  34
ATOM     34  C   UNL     1      -0.933   2.069  -1.215  0.00  0.00    +0.037 C 
BRANCH  34  35
ATOM     35  C   UNL     1      -1.736   3.301  -1.544  0.00  0.00    -0.047 A 
ATOM     36  C   UNL     1      -2.834   3.636  -0.773  0.00  0.00    +0.007 A 
ATOM     37  C   UNL     1      -3.571   4.765  -1.073  0.00  0.00    +0.046 A 
ATOM     38  C   UNL     1      -3.209   5.563  -2.148  0.00  0.00    +0.120 A 
ATOM     39  C   UNL     1      -2.107   5.225  -2.920  0.00  0.00    +0.046 A 
ATOM     40  C   UNL     1      -1.370   4.098  -2.612  0.00  0.00    +0.007 A 
BRANCH  38  41
ATOM     41  O   UNL     1      -3.934   6.674  -2.445  0.00  0.00    -0.495 OA
ATOM     42  C   UNL     1      -3.503   7.448  -3.566  0.00  0.00    +0.277 C 
ENDBRANCH  38  41
ENDBRANCH  34  35
ENDBRANCH  33  34
ENDBRANCH  32  33
ENDBRANCH  27  32
ENDBRANCH   1  28
TORSDOF 8
