REMARK  Name = ZINC19311531
REMARK  11 active torsions:
REMARK  status: ('A' for Active; 'I' for Inactive)
REMARK    1  A    between atoms: C_1  and  C_2
REMARK    2  A    between atoms: C_2  and  C_3
REMARK    3  A    between atoms: C_3  and  C_4
REMARK    4  A    between atoms: C_7  and  C_10
REMARK    5  A    between atoms: C_10  and  C_12
REMARK    6  A    between atoms: C_10  and  N_15
REMARK    7  A    between atoms: C_12  and  C_13
REMARK    8  A    between atoms: C_12  and  C_14
REMARK    9  A    between atoms: C_16  and  C_18
REMARK   10  A    between atoms: C_18  and  N_19
REMARK   11  A    between atoms: C_27  and  C_29
REMARK                            x       y       z     vdW  Elec       q    Type
REMARK                         _______ _______ _______ _____ _____    ______ ____
ROOT
ATOM      1  N   UNL     1      -3.409   0.315   6.847  0.00  0.00    -0.307 N 
ATOM      2  C   UNL     1      -2.969   0.347   5.573  0.00  0.00    +0.231 C 
ATOM      3  O   UNL     1      -1.778   0.378   5.343  0.00  0.00    -0.274 OA
ATOM      4  H   UNL     1      -4.488   0.287   7.055  0.00  0.00    +0.149 HD
ENDROOT
BRANCH   1   5
ATOM      5  C   UNL     1      -2.449   0.319   7.953  0.00  0.00    +0.106 C 
BRANCH   5   9
ATOM      6  C   UNL     1      -4.311   1.920  11.448  0.00  0.00    -0.047 A 
ATOM      7  C   UNL     1      -3.002   2.248  11.151  0.00  0.00    +0.004 A 
ATOM      8  C   UNL     1      -2.399   1.730  10.020  0.00  0.00    +0.006 A 
ATOM      9  C   UNL     1      -3.106   0.883   9.186  0.00  0.00    -0.027 A 
ATOM     10  C   UNL     1      -4.417   0.560   9.481  0.00  0.00    +0.006 A 
ATOM     11  C   UNL     1      -5.018   1.074  10.614  0.00  0.00    +0.004 A 
BRANCH   6  12
ATOM     12  C   UNL     1      -4.968   2.486  12.681  0.00  0.00    +0.035 C 
BRANCH  12  14
ATOM     13  C   UNL     1      -6.316   4.386  13.585  0.00  0.00    +0.004 C 
ATOM     14  C   UNL     1      -5.648   3.812  12.333  0.00  0.00    +0.001 C 
ENDBRANCH  12  14
ENDBRANCH   6  12
ENDBRANCH   5   9
BRANCH   5  15
ATOM     15  C   UNL     1      -1.986  -1.113   8.232  0.00  0.00    +0.008 C 
ATOM     16  C   UNL     1      -0.984  -1.109   9.388  0.00  0.00    +0.009 C 
ATOM     17  C   UNL     1      -3.194  -1.975   8.607  0.00  0.00    +0.009 C 
ENDBRANCH   5  15
ENDBRANCH   1   5
BRANCH   2  18
ATOM     18  C   UNL     1      -3.956   0.343   4.435  0.00  0.00    +0.213 C 
BRANCH  18  19
ATOM     19  N   UNL     1      -3.233   0.381   3.161  0.00  0.00    -0.215 N 
ATOM     20  C   UNL     1      -2.885   1.517   2.521  0.00  0.00    +0.247 C 
ATOM     21  O   UNL     1      -3.102   2.655   2.875  0.00  0.00    -0.273 OA
ATOM     22  C   UNL     1      -2.167   1.069   1.268  0.00  0.00    +0.115 C 
ATOM     23  C   UNL     1      -2.911   1.550   0.027  0.00  0.00    +0.035 C 
ATOM     24  C   UNL     1      -2.186   1.056  -1.227  0.00  0.00    +0.003 C 
ATOM     25  C   UNL     1      -0.753   1.593  -1.231  0.00  0.00    +0.000 C 
ATOM     26  C   UNL     1      -0.013   1.086   0.008  0.00  0.00    +0.006 C 
ATOM     27  C   UNL     1      -0.730   1.580   1.267  0.00  0.00    +0.018 C 
ATOM     28  C   UNL     1      -0.002   1.056   2.507  0.00  0.00    +0.010 C 
ATOM     29  N   UNL     1      -2.191  -0.397   1.347  0.00  0.00    -0.285 N 
ATOM     30  C   UNL     1      -2.836  -0.706   2.489  0.00  0.00    +0.310 C 
ATOM     31  O   UNL     1      -3.035  -1.844   2.866  0.00  0.00    -0.252 OA
ATOM     32  H   UNL     1      -1.730  -0.998   0.550  0.00  0.00    +0.151 HD
ENDBRANCH  18  19
ENDBRANCH   2  18
TORSDOF 7
