REMARK  Name = ZINC39695925
REMARK  7 active torsions:
REMARK  status: ('A' for Active; 'I' for Inactive)
REMARK    1  A    between atoms: C_1  and  C_2
REMARK    2  A    between atoms: C_2  and  C_3
REMARK    3  A    between atoms: C_6  and  C_9
REMARK    4  A    between atoms: C_9  and  C_11
REMARK    5  A    between atoms: C_9  and  N_12
REMARK    6  A    between atoms: C_13  and  C_15
REMARK    7  A    between atoms: C_26  and  C_28
REMARK                            x       y       z     vdW  Elec       q    Type
REMARK                         _______ _______ _______ _____ _____    ______ ____
ROOT
ATOM      1  C   UNL     1      -8.330  -0.554  -1.977  0.00  0.00    +0.100 C 
ATOM      2  C   UNL     1      -8.096  -1.248  -3.338  0.00  0.00    +0.121 C 
ATOM      3  N   UNL     1      -9.218  -2.208  -3.466  0.00  0.00    -0.296 N 
ATOM      4  C   UNL     1     -10.390  -1.481  -2.922  0.00  0.00    +0.115 C 
ATOM      5  C   UNL     1      -9.836  -0.707  -1.709  0.00  0.00    -0.004 C 
ATOM      6  C   UNL     1     -10.068  -1.501  -0.427  0.00  0.00    -0.010 C 
ATOM      7  C   UNL     1     -11.572  -1.590  -0.152  0.00  0.00    -0.082 C 
ATOM      8  N   UNL     1     -12.128  -0.238  -0.021  0.00  0.00    +0.379 N 
ATOM      9  C   UNL     1     -11.984   0.488  -1.289  0.00  0.00    -0.082 C 
ATOM     10  C   UNL     1     -10.498   0.665  -1.612  0.00  0.00    -0.010 C 
ATOM     11  C   UNL     1      -9.181  -3.460  -3.964  0.00  0.00    +0.249 C 
ATOM     12  O   UNL     1     -10.195  -4.129  -4.003  0.00  0.00    -0.270 OA
ATOM     13  H   UNL     1     -13.105  -0.300   0.220  0.00  0.00    -0.086 HD
ATOM     14  H   UNL     1     -11.635   0.258   0.707  0.00  0.00    -0.086 HD
ENDROOT
BRANCH  11  15
ATOM     15  C   UNL     1      -7.908  -4.018  -4.464  0.00  0.00    +0.073 A 
ATOM     16  C   UNL     1      -7.062  -4.720  -3.601  0.00  0.00    +0.054 A 
ATOM     17  C   UNL     1      -5.874  -5.240  -4.075  0.00  0.00    +0.021 A 
ATOM     18  C   UNL     1      -5.520  -5.067  -5.401  0.00  0.00    +0.003 A 
ATOM     19  C   UNL     1      -6.352  -4.372  -6.262  0.00  0.00    +0.021 A 
ATOM     20  C   UNL     1      -7.546  -3.852  -5.803  0.00  0.00    +0.054 A 
ATOM     21 CL   UNL     1      -8.591  -2.988  -6.887  0.00  0.00    -0.083 Cl
ATOM     22 CL   UNL     1      -7.504  -4.938  -1.936  0.00  0.00    -0.083 Cl
ENDBRANCH  11  15
BRANCH   1  24
ATOM     23  N   UNL     1      -7.176  -0.558   0.211  0.00  0.00    -0.308 N 
ATOM     24  C   UNL     1      -7.533  -1.239  -0.896  0.00  0.00    +0.219 C 
ATOM     25  O   UNL     1      -7.213  -2.402  -1.022  0.00  0.00    -0.275 OA
ATOM     26  H   UNL     1      -7.431   0.372   0.312  0.00  0.00    +0.149 HD
BRANCH  23  27
ATOM     27  C   UNL     1      -6.401  -1.223   1.262  0.00  0.00    +0.100 C 
ATOM     28  C   UNL     1      -4.912  -1.156   0.918  0.00  0.00    +0.033 C 
BRANCH  27  32
ATOM     29  C   UNL     1      -7.087   0.736   4.995  0.00  0.00    -0.048 A 
ATOM     30  C   UNL     1      -7.003  -0.643   4.943  0.00  0.00    +0.004 A 
ATOM     31  C   UNL     1      -6.781  -1.277   3.735  0.00  0.00    +0.006 A 
ATOM     32  C   UNL     1      -6.644  -0.532   2.579  0.00  0.00    -0.027 A 
ATOM     33  C   UNL     1      -6.729   0.847   2.630  0.00  0.00    +0.006 A 
ATOM     34  C   UNL     1      -6.955   1.480   3.838  0.00  0.00    +0.004 A 
BRANCH  29  36
ATOM     35  C   UNL     1      -8.835   1.576   6.541  0.00  0.00    +0.009 C 
ATOM     36  C   UNL     1      -7.329   1.427   6.312  0.00  0.00    +0.032 C 
ENDBRANCH  29  36
ENDBRANCH  27  32
ENDBRANCH  23  27
ENDBRANCH   1  24
TORSDOF 5
