REMARK  Name = ZINC10135469
REMARK  10 active torsions:
REMARK  status: ('A' for Active; 'I' for Inactive)
REMARK    1  A    between atoms: C_1  and  C_2
REMARK    2  A    between atoms: C_2  and  C_3
REMARK    3  A    between atoms: N_11  and  C_15
REMARK    4  A    between atoms: C_15  and  C_16
REMARK    5  A    between atoms: C_16  and  O_18
REMARK    6  A    between atoms: O_18  and  C_19
REMARK    7  A    between atoms: C_19  and  C_20
REMARK    8  A    between atoms: N_22  and  C_23
REMARK    9  A    between atoms: C_25  and  C_30
REMARK   10  A    between atoms: C_27  and  C_29
REMARK                            x       y       z     vdW  Elec       q    Type
REMARK                         _______ _______ _______ _____ _____    ______ ____
ROOT
ATOM      1  C   UNL     1      -1.294   1.972   0.602  0.00  0.00    +0.238 C 
ENDROOT
BRANCH   1  10
ATOM      2  C   UNL     1      -4.961  -1.794   3.615  0.00  0.00    -0.011 C 
ATOM      3  C   UNL     1      -3.630  -2.186   2.969  0.00  0.00    +0.006 C 
ATOM      4  C   UNL     1      -3.710  -1.953   1.458  0.00  0.00    +0.035 C 
ATOM      5  C   UNL     1      -4.013  -0.483   1.185  0.00  0.00    +0.113 C 
ATOM      6  C   UNL     1      -5.326  -0.072   1.841  0.00  0.00    +0.035 C 
ATOM      7  C   UNL     1      -5.241  -0.313   3.351  0.00  0.00    +0.006 C 
ATOM      8  C   UNL     1      -2.881   0.388   1.680  0.00  0.00    +0.247 C 
ATOM      9  O   UNL     1      -2.484   0.498   2.820  0.00  0.00    -0.273 OA
ATOM     10  N   UNL     1      -2.407   1.019   0.586  0.00  0.00    -0.213 N 
ATOM     11  C   UNL     1      -3.083   0.670  -0.516  0.00  0.00    +0.310 C 
ATOM     12  O   UNL     1      -2.844   1.110  -1.623  0.00  0.00    -0.252 OA
ATOM     13  N   UNL     1      -4.056  -0.226  -0.260  0.00  0.00    -0.285 N 
ATOM     14  H   UNL     1      -4.666  -0.620  -0.902  0.00  0.00    +0.151 HD
BRANCH   2  16
ATOM     15  C   UNL     1      -6.254  -1.763   5.752  0.00  0.00    +0.004 C 
ATOM     16  C   UNL     1      -4.886  -2.037   5.123  0.00  0.00    -0.000 C 
ENDBRANCH   2  16
ENDBRANCH   1  10
BRANCH   1  17
ATOM     17  C   UNL     1       0.002   1.234   0.390  0.00  0.00    +0.326 C 
ATOM     18  O   UNL     1      -0.002   0.035   0.241  0.00  0.00    -0.249 OA
BRANCH  17  19
ATOM     19  O   UNL     1       1.162   1.909   0.362  0.00  0.00    -0.454 OA
BRANCH  19  20
ATOM     20  C   UNL     1       2.371   1.134   0.148  0.00  0.00    +0.328 C 
BRANCH  20  21
ATOM     21  C   UNL     1       3.564   2.054   0.147  0.00  0.00    +0.255 C 
ATOM     22  O   UNL     1       3.411   3.246   0.310  0.00  0.00    -0.272 OA
ATOM     23  N   UNL     1       4.802   1.553  -0.035  0.00  0.00    -0.283 N 
ATOM     24  H   UNL     1       4.934   0.593  -0.090  0.00  0.00    +0.155 HD
BRANCH  23  25
ATOM     25  C   UNL     1       5.897   2.417  -0.147  0.00  0.00    +0.034 A 
ATOM     26  C   UNL     1       7.138   2.034   0.345  0.00  0.00    +0.026 A 
ATOM     27  C   UNL     1       8.218   2.886   0.229  0.00  0.00    -0.048 A 
ATOM     28  C   UNL     1       8.063   4.125  -0.367  0.00  0.00    +0.006 A 
ATOM     29  C   UNL     1       6.827   4.511  -0.853  0.00  0.00    -0.048 A 
ATOM     30  C   UNL     1       5.744   3.661  -0.745  0.00  0.00    +0.026 A 
ATOM     31  C   UNL     1       6.662   5.861  -1.501  0.00  0.00    +0.044 C 
ATOM     32  C   UNL     1       9.567   2.469   0.757  0.00  0.00    +0.044 C 
ENDBRANCH  23  25
ENDBRANCH  20  21
ENDBRANCH  19  20
ENDBRANCH  17  19
ENDBRANCH   1  17
TORSDOF 7
