REMARK  Name = ZINC65074848
REMARK  6 active torsions:
REMARK  status: ('A' for Active; 'I' for Inactive)
REMARK    1  A    between atoms: C_1  and  C_2
REMARK    2  A    between atoms: C_2  and  C_3
REMARK    3  A    between atoms: C_2  and  C_4
REMARK    4  A    between atoms: C_7  and  S_10
REMARK    5  A    between atoms: S_10  and  N_13
REMARK    6  A    between atoms: N_24  and  C_25
REMARK                            x       y       z     vdW  Elec       q    Type
REMARK                         _______ _______ _______ _____ _____    ______ ____
ROOT
ATOM      1  N   UNL     1      -6.599  -0.977  -0.736  0.00  0.00    -0.176 NA
ATOM      2  C   UNL     1      -7.229   0.123   0.007  0.00  0.00    +0.111 C 
ATOM      3  C   UNL     1      -6.848   1.450  -0.658  0.00  0.00    +0.047 C 
ATOM      4  C   UNL     1      -7.224   1.399  -2.141  0.00  0.00    +0.075 C 
ATOM      5  C   UNL     1      -6.443   0.274  -2.826  0.00  0.00    +0.047 C 
ATOM      6  C   UNL     1      -6.815  -1.063  -2.187  0.00  0.00    +0.111 C 
ATOM      7  C   UNL     1      -6.886   2.712  -2.790  0.00  0.00    +0.089 C 
ATOM      8  N   UNL     1      -7.661   3.318  -3.607  0.00  0.00    -0.374 N 
ATOM      9  C   UNL     1      -8.972   2.816  -4.006  0.00  0.00    +0.129 C 
ATOM     10  C   UNL     1      -9.090   1.329  -3.665  0.00  0.00    +0.102 C 
ATOM     11  N   UNL     1      -8.665   1.135  -2.268  0.00  0.00    -0.303 NA
ATOM     12  N   UNL     1      -5.682   3.292  -2.488  0.00  0.00    -0.330 N 
ATOM     13  H   UNL     1      -8.892   0.206  -1.946  0.00  0.00    +0.123 HD
ATOM     14  H   UNL     1      -5.074   2.855  -1.871  0.00  0.00    +0.147 HD
ATOM     15  H   UNL     1      -7.359   4.159  -3.985  0.00  0.00    +0.161 HD
ENDROOT
BRANCH  12  16
ATOM     16  C   UNL     1      -5.312   4.571  -3.098  0.00  0.00    +0.071 C 
ATOM     17  C   UNL     1      -4.610   4.329  -4.450  0.00  0.00    +0.022 C 
ATOM     18  C   UNL     1      -3.513   5.421  -4.509  0.00  0.00    +0.002 C 
ATOM     19  C   UNL     1      -3.019   5.489  -3.042  0.00  0.00    +0.002 C 
ATOM     20  C   UNL     1      -4.300   5.309  -2.203  0.00  0.00    +0.022 C 
ENDBRANCH  12  16
BRANCH   1  21
ATOM     21  S   UNL     1      -5.658  -2.093   0.045  0.00  0.00    +0.061 S 
ATOM     22  O   UNL     1      -5.665  -3.264  -0.760  0.00  0.00    -0.153 OA
ATOM     23  O   UNL     1      -6.078  -2.099   1.403  0.00  0.00    -0.153 OA
BRANCH  21  27
ATOM     24  C   UNL     1      -1.412  -0.526   0.013  0.00  0.00    -0.045 A 
ATOM     25  C   UNL     1      -2.259  -0.204   1.056  0.00  0.00    +0.006 A 
ATOM     26  C   UNL     1      -3.556  -0.683   1.066  0.00  0.00    +0.029 A 
ATOM     27  C   UNL     1      -4.006  -1.482   0.032  0.00  0.00    +0.105 A 
ATOM     28  C   UNL     1      -3.159  -1.803  -1.012  0.00  0.00    +0.029 A 
ATOM     29  C   UNL     1      -1.863  -1.321  -1.024  0.00  0.00    +0.006 A 
BRANCH  24  31
ATOM     30  C   UNL     1      -0.019   1.526   0.010  0.00  0.00    +0.012 C 
ATOM     31  C   UNL     1       0.002  -0.004   0.002  0.00  0.00    +0.013 C 
ATOM     32  C   UNL     1       0.742  -0.511   1.242  0.00  0.00    +0.012 C 
ENDBRANCH  24  31
ENDBRANCH  21  27
ENDBRANCH   1  21
TORSDOF 4
