REMARK  Name = ZINC65833075
REMARK  9 active torsions:
REMARK  status: ('A' for Active; 'I' for Inactive)
REMARK    1  A    between atoms: C_1  and  C_2
REMARK    2  A    between atoms: C_3  and  C_24
REMARK    3  A    between atoms: C_4  and  C_23
REMARK    4  A    between atoms: C_5  and  S_10
REMARK    5  A    between atoms: C_6  and  C_9
REMARK    6  A    between atoms: C_7  and  C_8
REMARK    7  A    between atoms: S_10  and  N_13
REMARK    8  A    between atoms: N_13  and  N_14
REMARK    9  A    between atoms: N_17  and  C_18
REMARK                            x       y       z     vdW  Elec       q    Type
REMARK                         _______ _______ _______ _____ _____    ______ ____
ROOT
ATOM      1  S   UNL     1       1.070  -4.349  -0.117  0.00  0.00    +0.074 S 
ATOM      2  O   UNL     1       1.786  -4.481  -1.338  0.00  0.00    -0.152 OA
ATOM      3  O   UNL     1       1.663  -4.618   1.146  0.00  0.00    -0.152 OA
ENDROOT
BRANCH   1   8
ATOM      4  C   UNL     1      -0.944   1.335   0.096  0.00  0.00    +0.044 C 
ATOM      5  C   UNL     1      -0.441  -0.085   0.043  0.00  0.00    -0.044 A 
ATOM      6  C   UNL     1      -0.114  -0.657  -1.172  0.00  0.00    -0.043 A 
ATOM      7  C   UNL     1       0.348  -1.959  -1.221  0.00  0.00    -0.021 A 
ATOM      8  C   UNL     1       0.483  -2.689  -0.055  0.00  0.00    +0.113 A 
ATOM      9  C   UNL     1       0.157  -2.116   1.161  0.00  0.00    -0.021 A 
ATOM     10  C   UNL     1      -0.301  -0.812   1.210  0.00  0.00    -0.043 A 
ATOM     11  C   UNL     1      -0.652  -0.187   2.535  0.00  0.00    +0.044 C 
ATOM     12  C   UNL     1       0.303  -2.912   2.432  0.00  0.00    +0.046 C 
ATOM     13  C   UNL     1       0.704  -2.583  -2.546  0.00  0.00    +0.046 C 
ATOM     14  C   UNL     1      -0.260   0.139  -2.443  0.00  0.00    +0.044 C 
ENDBRANCH   1   8
BRANCH   1  15
ATOM     15  N   UNL     1      -0.256  -5.333  -0.237  0.00  0.00    -0.107 NA
ATOM     16  H   UNL     1      -0.430  -5.998   0.447  0.00  0.00    +0.172 HD
BRANCH  15  17
ATOM     17  N   UNL     1      -1.127  -5.205  -1.327  0.00  0.00    -0.216 N 
ATOM     18  C   UNL     1      -1.407  -6.276  -2.095  0.00  0.00    +0.315 C 
ATOM     19  O   UNL     1      -2.163  -6.165  -3.041  0.00  0.00    -0.251 OA
ATOM     20  N   UNL     1      -0.850  -7.471  -1.815  0.00  0.00    -0.296 N 
ATOM     21  H   UNL     1      -1.529  -4.345  -1.528  0.00  0.00    +0.172 HD
ATOM     22  H   UNL     1      -0.246  -7.559  -1.061  0.00  0.00    +0.151 HD
BRANCH  20  23
ATOM     23  C   UNL     1      -1.154  -8.635  -2.650  0.00  0.00    +0.074 C 
ATOM     24  C   UNL     1      -2.418  -9.347  -2.124  0.00  0.00    +0.022 C 
ATOM     25  C   UNL     1      -2.121 -10.852  -2.335  0.00  0.00    +0.002 C 
ATOM     26  C   UNL     1      -0.614 -10.955  -1.994  0.00  0.00    +0.002 C 
ATOM     27  C   UNL     1      -0.007  -9.658  -2.567  0.00  0.00    +0.022 C 
ENDBRANCH  20  23
ENDBRANCH  15  17
ENDBRANCH   1  15
TORSDOF 4
