REMARK  Name = ZINC66797483
REMARK  2 active torsions:
REMARK  status: ('A' for Active; 'I' for Inactive)
REMARK    1  A    between atoms: C_9  and  C_11
REMARK    2  A    between atoms: C_22  and  C_24
REMARK                            x       y       z     vdW  Elec       q    Type
REMARK                         _______ _______ _______ _____ _____    ______ ____
ROOT
ATOM      1  C   UNL     1       3.825  -3.395  -0.180  0.00  0.00    +0.072 C 
ATOM      2  C   UNL     1       3.035  -4.485  -0.908  0.00  0.00    +0.014 C 
ATOM      3  C   UNL     1       3.816  -5.801  -0.860  0.00  0.00    +0.020 C 
ATOM      4  C   UNL     1       3.998  -6.229   0.600  0.00  0.00    +0.106 C 
ATOM      5  N   UNL     1       4.627  -5.127   1.341  0.00  0.00    -0.314 N 
ATOM      6  C   UNL     1       4.008  -3.796   1.287  0.00  0.00    +0.117 C 
ATOM      7  C   UNL     1       5.782  -5.340   2.076  0.00  0.00    +0.129 A 
ATOM      8  C   UNL     1       5.708  -5.727   3.416  0.00  0.00    +0.014 A 
ATOM      9  C   UNL     1       6.883  -5.929   4.112  0.00  0.00    +0.050 A 
ATOM     10  N   UNL     1       8.040  -5.749   3.492  0.00  0.00    -0.232 NA
ATOM     11  C   UNL     1       8.082  -5.382   2.220  0.00  0.00    +0.162 A 
ATOM     12  N   UNL     1       6.976  -5.183   1.516  0.00  0.00    -0.212 NA
ATOM     13  C   UNL     1       6.570  -6.340   5.534  0.00  0.00    +0.056 C 
ATOM     14  C   UNL     1       5.093  -5.948   5.752  0.00  0.00    +0.011 C 
ATOM     15  C   UNL     1       4.524  -5.988   4.317  0.00  0.00    +0.041 C 
ENDROOT
BRANCH   1  24
ATOM     16  C   UNL     1       0.290   1.477  -0.443  0.00  0.00    +0.002 A 
ATOM     17  C   UNL     1       1.511   2.133  -0.522  0.00  0.00    +0.002 A 
ATOM     18  C   UNL     1       2.682   1.430  -0.502  0.00  0.00    +0.030 A 
ATOM     19  C   UNL     1       2.656   0.036  -0.400  0.00  0.00    +0.089 A 
ATOM     20  C   UNL     1       1.421  -0.628  -0.319  0.00  0.00    +0.066 A 
ATOM     21  C   UNL     1       0.241   0.103  -0.342  0.00  0.00    +0.028 A 
ATOM     22  N   UNL     1       1.716  -1.973  -0.229  0.00  0.00    -0.342 N 
ATOM     23  H   UNL     1       1.077  -2.699  -0.159  0.00  0.00    +0.167 HD
ATOM     24  C   UNL     1       3.071  -2.092  -0.256  0.00  0.00    +0.113 A 
ATOM     25  N   UNL     1       3.622  -0.918  -0.355  0.00  0.00    -0.232 NA
ENDBRANCH   1  24
BRANCH  11  26
ATOM     26  C   UNL     1       9.400  -5.192   1.564  0.00  0.00    +0.022 A 
ATOM     27  C   UNL     1       9.486  -4.800   0.226  0.00  0.00    +0.031 A 
ATOM     28  C   UNL     1      10.732  -4.635  -0.345  0.00  0.00    +0.111 A 
ATOM     29  N   UNL     1      11.830  -4.844   0.356  0.00  0.00    -0.263 NA
ATOM     30  C   UNL     1      11.793  -5.215   1.621  0.00  0.00    +0.111 A 
ATOM     31  C   UNL     1      10.588  -5.396   2.270  0.00  0.00    +0.031 A 
ENDBRANCH  11  26
TORSDOF 2
