REMARK  Name = ZINC36504548
REMARK  11 active torsions:
REMARK  status: ('A' for Active; 'I' for Inactive)
REMARK    1  A    between atoms: C_1  and  C_2
REMARK    2  A    between atoms: C_5  and  S_8
REMARK    3  A    between atoms: S_8  and  C_11
REMARK    4  A    between atoms: C_11  and  N_12
REMARK    5  A    between atoms: C_13  and  C_15
REMARK    6  A    between atoms: C_15  and  C_17
REMARK    7  A    between atoms: C_15  and  N_24
REMARK    8  A    between atoms: C_22  and  C_23
REMARK    9  A    between atoms: N_24  and  C_25
REMARK   10  A    between atoms: C_25  and  C_26
REMARK   11  A    between atoms: C_31  and  C_33
REMARK                            x       y       z     vdW  Elec       q    Type
REMARK                         _______ _______ _______ _____ _____    ______ ____
ROOT
ATOM      1  C   UNL     1       3.222  -5.488   3.417  0.00  0.00    +0.193 C 
ENDROOT
BRANCH   1   2
ATOM      2  C   UNL     1       4.468  -4.869   2.837  0.00  0.00    -0.015 A 
ATOM      3  C   UNL     1       4.846  -5.163   1.540  0.00  0.00    +0.006 A 
ATOM      4  C   UNL     1       5.988  -4.595   1.007  0.00  0.00    +0.000 A 
ATOM      5  C   UNL     1       6.752  -3.732   1.771  0.00  0.00    +0.000 A 
ATOM      6  C   UNL     1       6.373  -3.437   3.067  0.00  0.00    +0.004 A 
ATOM      7  C   UNL     1       5.228  -4.002   3.599  0.00  0.00    -0.045 A 
ATOM      8  C   UNL     1       4.813  -3.676   5.010  0.00  0.00    +0.044 C 
ENDBRANCH   1   2
BRANCH   1  10
ATOM      9  N   UNL     1       1.797  -5.193   1.417  0.00  0.00    -0.294 N 
ATOM     10  C   UNL     1       2.366  -6.033   2.304  0.00  0.00    +0.239 C 
ATOM     11  O   UNL     1       2.190  -7.229   2.205  0.00  0.00    -0.273 OA
ATOM     12  H   UNL     1       1.874  -4.234   1.540  0.00  0.00    +0.150 HD
BRANCH   9  13
ATOM     13  C   UNL     1       1.062  -5.727   0.268  0.00  0.00    +0.278 C 
BRANCH  13  14
ATOM     14  S   UNL     1      -0.705  -5.812   0.667  0.00  0.00    +0.013 S 
ATOM     15  O   UNL     1      -0.891  -6.408   1.944  0.00  0.00    -0.168 OA
ATOM     16  O   UNL     1      -1.440  -6.269  -0.460  0.00  0.00    -0.168 OA
BRANCH  14  21
ATOM     17  C   UNL     1      -2.412  -0.069   1.388  0.00  0.00    +0.044 C 
ATOM     18  C   UNL     1      -1.985  -1.504   1.208  0.00  0.00    -0.050 A 
ATOM     19  C   UNL     1      -2.055  -2.094  -0.040  0.00  0.00    +0.005 A 
ATOM     20  C   UNL     1      -1.664  -3.409  -0.205  0.00  0.00    +0.027 A 
ATOM     21  C   UNL     1      -1.203  -4.135   0.877  0.00  0.00    +0.090 A 
ATOM     22  C   UNL     1      -1.132  -3.544   2.125  0.00  0.00    +0.027 A 
ATOM     23  C   UNL     1      -1.519  -2.227   2.290  0.00  0.00    +0.005 A 
ENDBRANCH  14  21
ENDBRANCH  13  14
ENDBRANCH   9  13
ENDBRANCH   1  10
BRANCH   1  24
ATOM     24  N   UNL     1       3.595  -6.576   4.324  0.00  0.00    -0.277 N 
ATOM     25  C   UNL     1       4.394  -7.571   3.891  0.00  0.00    +0.237 C 
ATOM     26  O   UNL     1       4.805  -7.565   2.749  0.00  0.00    -0.274 OA
BRANCH  25  27
ATOM     27  C   UNL     1       4.778  -8.690   4.824  0.00  0.00    +0.159 C 
ATOM     28  C   UNL     1       5.947  -8.251   5.733  0.00  0.00    +0.041 C 
ATOM     29  C   UNL     1       7.173  -8.759   4.939  0.00  0.00    +0.098 C 
ATOM     30  C   UNL     1       6.628  -9.896   4.104  0.00  0.00    +0.214 C 
ATOM     31  O   UNL     1       7.304 -10.739   3.553  0.00  0.00    -0.276 OA
ATOM     32  N   UNL     1       5.284  -9.837   4.060  0.00  0.00    -0.304 N 
ATOM     33  H   UNL     1       4.721 -10.470   3.587  0.00  0.00    +0.149 HD
ENDBRANCH  25  27
BRANCH  24  34
ATOM     34  C   UNL     1       3.100  -6.582   5.703  0.00  0.00    +0.183 C 
BRANCH  34  35
ATOM     35  C   UNL     1       1.719  -7.184   5.738  0.00  0.00    +0.122 A 
ATOM     36  C   UNL     1       1.433  -8.486   5.923  0.00  0.00    +0.046 A 
ATOM     37  C   UNL     1       0.024  -8.605   5.884  0.00  0.00    +0.041 A 
ATOM     38  C   UNL     1      -0.466  -7.369   5.676  0.00  0.00    +0.195 A 
ATOM     39  O   UNL     1       0.565  -6.512   5.594  0.00  0.00    -0.466 OA
ENDBRANCH  34  35
ENDBRANCH  24  34
ENDBRANCH   1  24
TORSDOF 9
