REMARK  Name = ZINC35982150
REMARK  8 active torsions:
REMARK  status: ('A' for Active; 'I' for Inactive)
REMARK    1  A    between atoms: C_1  and  C_2
REMARK    2  A    between atoms: C_10  and  O_36
REMARK    3  A    between atoms: C_21  and  N_23
REMARK    4  A    between atoms: N_23  and  C_24
REMARK    5  A    between atoms: C_24  and  C_25
REMARK    6  A    between atoms: C_25  and  N_26
REMARK    7  A    between atoms: C_30  and  N_33
REMARK    8  A    between atoms: O_36  and  C_37
REMARK                            x       y       z     vdW  Elec       q    Type
REMARK                         _______ _______ _______ _____ _____    ______ ____
ROOT
ATOM      1  C   UNL     1      -0.019   1.522   0.010  0.00  0.00    +0.010 C 
ATOM      2  C   UNL     1       0.002  -0.004   0.002  0.00  0.00    -0.041 C 
ATOM      3  C   UNL     1      -1.403  -0.560   0.058  0.00  0.00    +0.006 C 
ATOM      4  C   UNL     1      -2.013  -0.234   1.427  0.00  0.00    +0.009 C 
ATOM      5  C   UNL     1      -1.183  -0.814   2.568  0.00  0.00    +0.023 C 
ATOM      6  C   UNL     1      -1.809  -0.443   3.887  0.00  0.00    -0.041 A 
ATOM      7  C   UNL     1      -3.034  -1.024   4.197  0.00  0.00    +0.008 A 
ATOM      8  C   UNL     1      -3.666  -0.738   5.388  0.00  0.00    +0.046 A 
ATOM      9  C   UNL     1      -3.076   0.139   6.287  0.00  0.00    +0.120 A 
ATOM     10  C   UNL     1      -1.857   0.718   5.979  0.00  0.00    +0.049 A 
ATOM     11  C   UNL     1      -1.222   0.426   4.780  0.00  0.00    -0.040 A 
ATOM     12  C   UNL     1       0.104   1.091   4.506  0.00  0.00    +0.036 C 
ATOM     13  C   UNL     1       0.366   1.097   2.994  0.00  0.00    +0.009 C 
ATOM     14  C   UNL     1       0.274  -0.343   2.509  0.00  0.00    +0.000 C 
ATOM     15  C   UNL     1       0.834  -0.608   1.151  0.00  0.00    -0.003 C 
ATOM     16  C   UNL     1       2.244  -0.116   0.814  0.00  0.00    +0.003 C 
ATOM     17  C   UNL     1       2.305  -0.312  -0.729  0.00  0.00    -0.015 C 
ATOM     18  C   UNL     1       0.839  -0.449  -1.213  0.00  0.00    -0.065 C 
ENDROOT
BRANCH  18  19
ATOM     19  N   UNL     1       0.585   0.444  -2.348  0.00  0.00    +0.382 N 
ATOM     20  H   UNL     1      -0.406   0.475  -2.536  0.00  0.00    -0.085 HD
ATOM     21  H   UNL     1       0.915   1.371  -2.126  0.00  0.00    -0.085 HD
BRANCH  19  22
ATOM     22  C   UNL     1       1.293  -0.058  -3.533  0.00  0.00    -0.063 C 
BRANCH  22  23
ATOM     23  C   UNL     1       1.028   0.874  -4.718  0.00  0.00    +0.084 C 
BRANCH  23  24
ATOM     24  N   UNL     1       1.735   0.374  -5.900  0.00  0.00    -0.331 N 
ATOM     25  C   UNL     1       1.643   1.059  -7.106  0.00  0.00    +0.119 A 
ATOM     26  C   UNL     1       0.884   2.223  -7.181  0.00  0.00    +0.046 A 
ATOM     27  C   UNL     1       0.803   2.895  -8.387  0.00  0.00    +0.037 A 
ATOM     28  C   UNL     1       1.486   2.379  -9.481  0.00  0.00    +0.144 A 
ATOM     29  C   UNL     1       2.220   1.220  -9.335  0.00  0.00    +0.145 A 
ATOM     30  N   UNL     1       2.284   0.602  -8.170  0.00  0.00    -0.238 NA
ATOM     31  H   UNL     1       2.266  -0.436  -5.841  0.00  0.00    +0.147 HD
BRANCH  28  32
ATOM     32  N   UNL     1       1.426   3.066 -10.791  0.00  0.00    +0.058 N 
ATOM     33  O   UNL     1       0.780   4.081 -10.913  0.00  0.00    -0.126 OA
ATOM     34  O   UNL     1       2.022   2.611 -11.739  0.00  0.00    -0.126 OA
ENDBRANCH  28  32
ENDBRANCH  23  24
ENDBRANCH  22  23
ENDBRANCH  19  22
ENDBRANCH  18  19
BRANCH   9  35
ATOM     35  O   UNL     1      -3.692   0.427   7.463  0.00  0.00    -0.495 OA
ATOM     36  C   UNL     1      -4.947  -0.210   7.712  0.00  0.00    +0.277 C 
ENDBRANCH   9  35
TORSDOF 6
