REMARK  Name = ZINC35401293
REMARK  12 active torsions:
REMARK  status: ('A' for Active; 'I' for Inactive)
REMARK    1  A    between atoms: C_1  and  C_2
REMARK    2  A    between atoms: C_2  and  N_3
REMARK    3  A    between atoms: C_4  and  C_36
REMARK    4  A    between atoms: C_5  and  C_30
REMARK    5  A    between atoms: C_6  and  C_11
REMARK    6  A    between atoms: C_15  and  N_17
REMARK    7  A    between atoms: C_18  and  C_20
REMARK    8  A    between atoms: C_24  and  N_26
REMARK    9  A    between atoms: C_30  and  O_32
REMARK   10  A    between atoms: O_32  and  C_33
REMARK   11  A    between atoms: C_33  and  C_34
REMARK   12  A    between atoms: C_33  and  C_35
REMARK                            x       y       z     vdW  Elec       q    Type
REMARK                         _______ _______ _______ _____ _____    ______ ____
ROOT
ATOM      1  C   UNL     1      -5.369  -1.098  -0.016  0.00  0.00    -0.021 A 
ATOM      2  C   UNL     1      -5.494   0.260  -0.250  0.00  0.00    +0.006 A 
ATOM      3  C   UNL     1      -6.745   0.822  -0.423  0.00  0.00    +0.002 A 
ATOM      4  C   UNL     1      -7.875   0.029  -0.362  0.00  0.00    +0.023 A 
ATOM      5  C   UNL     1      -7.752  -1.334  -0.127  0.00  0.00    +0.034 A 
ATOM      6  C   UNL     1      -6.494  -1.897   0.041  0.00  0.00    +0.029 A 
ENDROOT
BRANCH   1  10
ATOM      7  N   UNL     1      -1.668  -0.332   0.728  0.00  0.00    -0.259 N 
ATOM      8  C   UNL     1      -2.413  -0.765   1.787  0.00  0.00    +0.024 C 
ATOM      9  C   UNL     1      -3.566  -1.443   1.598  0.00  0.00    +0.078 C 
ATOM     10  C   UNL     1      -4.003  -1.706   0.171  0.00  0.00    +0.144 C 
ATOM     11  N   UNL     1      -3.129  -1.197  -0.899  0.00  0.00    -0.288 N 
ATOM     12  C   UNL     1      -2.010  -0.532  -0.552  0.00  0.00    +0.307 C 
ATOM     13  O   UNL     1      -1.284  -0.104  -1.428  0.00  0.00    -0.252 OA
ATOM     14  C   UNL     1      -1.942  -0.481   3.190  0.00  0.00    +0.061 C 
ATOM     15  H   UNL     1      -3.356  -1.335  -1.832  0.00  0.00    +0.151 HD
BRANCH   7  17
ATOM     16  C   UNL     1       0.708  -0.598   1.243  0.00  0.00    +0.025 C 
ATOM     17  C   UNL     1      -0.429   0.398   1.006  0.00  0.00    +0.111 C 
ENDBRANCH   7  17
BRANCH   9  18
ATOM     18  C   UNL     1      -4.338  -1.893   2.694  0.00  0.00    +0.339 C 
ATOM     19  O   UNL     1      -3.967  -1.670   3.832  0.00  0.00    -0.245 OA
BRANCH  18  20
ATOM     20  O   UNL     1      -5.486  -2.569   2.479  0.00  0.00    -0.459 OA
BRANCH  20  21
ATOM     21  C   UNL     1      -6.215  -2.993   3.632  0.00  0.00    +0.171 C 
ATOM     22  C   UNL     1      -7.708  -3.036   3.304  0.00  0.00    +0.052 C 
ATOM     23  C   UNL     1      -5.744  -4.388   4.049  0.00  0.00    +0.052 C 
ENDBRANCH  20  21
ENDBRANCH  18  20
ENDBRANCH   9  18
ENDBRANCH   1  10
BRANCH   5  24
ATOM     24  N   UNL     1      -8.894  -2.139  -0.065  0.00  0.00    -0.281 N 
ATOM     25  C   UNL     1     -10.045  -1.639   0.426  0.00  0.00    +0.248 C 
ATOM     26  O   UNL     1     -10.068  -0.522   0.903  0.00  0.00    -0.270 OA
ATOM     27  H   UNL     1      -8.857  -3.058  -0.376  0.00  0.00    +0.155 HD
BRANCH  25  28
ATOM     28  C   UNL     1     -11.280  -2.450   0.384  0.00  0.00    +0.039 A 
ATOM     29  C   UNL     1     -11.255  -3.737  -0.158  0.00  0.00    +0.014 A 
ATOM     30  C   UNL     1     -12.411  -4.489  -0.194  0.00  0.00    +0.023 A 
ATOM     31  C   UNL     1     -13.594  -3.970   0.306  0.00  0.00    +0.071 A 
ATOM     32  C   UNL     1     -13.624  -2.695   0.845  0.00  0.00    +0.145 A 
ATOM     33  C   UNL     1     -12.474  -1.935   0.892  0.00  0.00    +0.047 A 
ATOM     34 CL   UNL     1     -15.045  -4.922   0.256  0.00  0.00    -0.081 Cl
BRANCH  32  35
ATOM     35  N   UNL     1     -14.893  -2.148   1.377  0.00  0.00    +0.058 N 
ATOM     36  O   UNL     1     -14.921  -1.035   1.848  0.00  0.00    -0.126 OA
ATOM     37  O   UNL     1     -15.901  -2.814   1.341  0.00  0.00    -0.126 OA
ENDBRANCH  32  35
ENDBRANCH  25  28
ENDBRANCH   5  24
TORSDOF 8
