REMARK  Name = ZINC36207526
REMARK  15 active torsions:
REMARK  status: ('A' for Active; 'I' for Inactive)
REMARK    1  A    between atoms: C_1  and  C_2
REMARK    2  A    between atoms: C_8  and  C_17
REMARK    3  A    between atoms: C_12  and  C_13
REMARK    4  A    between atoms: C_13  and  O_15
REMARK    5  A    between atoms: O_15  and  C_16
REMARK    6  A    between atoms: C_17  and  N_18
REMARK    7  A    between atoms: N_18  and  C_19
REMARK    8  A    between atoms: N_18  and  C_26
REMARK    9  A    between atoms: C_19  and  C_20
REMARK   10  A    between atoms: C_26  and  C_27
REMARK   11  A    between atoms: C_27  and  C_29
REMARK   12  A    between atoms: C_27  and  O_37
REMARK   13  A    between atoms: C_29  and  O_30
REMARK   14  A    between atoms: O_30  and  C_31
REMARK   15  A    between atoms: C_31  and  C_32
REMARK                            x       y       z     vdW  Elec       q    Type
REMARK                         _______ _______ _______ _____ _____    ______ ____
ROOT
ATOM      1  N   UNL     1       0.369  -4.872  -4.032  0.00  0.00    +0.389 N 
ATOM      2  H   UNL     1       1.050  -5.286  -3.413  0.00  0.00    -0.081 HD
ENDROOT
BRANCH   1   3
ATOM      3  C   UNL     1       0.847  -3.556  -4.476  0.00  0.00    -0.003 C 
BRANCH   3  11
ATOM      4  C   UNL     1       2.471   0.869   0.219  0.00  0.00    +0.046 C 
ATOM      5  C   UNL     1       1.956  -0.546   0.176  0.00  0.00    -0.015 A 
ATOM      6  C   UNL     1       1.725  -1.170  -1.051  0.00  0.00    +0.076 A 
ATOM      7  C   UNL     1       1.914  -0.640  -2.421  0.00  0.00    +0.260 A 
ATOM      8  O   UNL     1       2.326   0.492  -2.601  0.00  0.00    -0.267 OA
ATOM      9  N   UNL     1       1.619  -1.442  -3.462  0.00  0.00    -0.312 N 
ATOM     10  H   UNL     1       1.738  -1.111  -4.366  0.00  0.00    +0.170 HD
ATOM     11  C   UNL     1       1.161  -2.704  -3.273  0.00  0.00    +0.094 A 
ATOM     12  N   UNL     1       0.983  -3.202  -2.080  0.00  0.00    -0.229 NA
ATOM     13  C   UNL     1       1.242  -2.498  -0.986  0.00  0.00    +0.116 A 
ATOM     14  S   UNL     1       1.134  -2.807   0.759  0.00  0.00    -0.062 S 
ATOM     15  C   UNL     1       1.719  -1.224   1.338  0.00  0.00    +0.102 A 
BRANCH  15  16
ATOM     16  C   UNL     1       1.897  -0.764   2.717  0.00  0.00    +0.346 C 
ATOM     17  O   UNL     1       2.308   0.360   2.935  0.00  0.00    -0.244 OA
BRANCH  16  18
ATOM     18  O   UNL     1       1.607  -1.587   3.745  0.00  0.00    -0.464 OA
ATOM     19  C   UNL     1       1.804  -1.073   5.064  0.00  0.00    +0.280 C 
ENDBRANCH  16  18
ENDBRANCH  15  16
ENDBRANCH   3  11
ENDBRANCH   1   3
BRANCH   1  20
ATOM     20  C   UNL     1      -0.908  -4.716  -3.323  0.00  0.00    -0.042 C 
BRANCH  20  21
ATOM     21  C   UNL     1      -1.884  -3.978  -4.202  0.00  0.00    -0.064 A 
ATOM     22  C   UNL     1      -1.965  -2.600  -4.140  0.00  0.00    +0.002 A 
ATOM     23  C   UNL     1      -2.861  -1.923  -4.946  0.00  0.00    +0.000 A 
ATOM     24  C   UNL     1      -3.675  -2.624  -5.815  0.00  0.00    +0.000 A 
ATOM     25  C   UNL     1      -3.594  -4.003  -5.878  0.00  0.00    +0.000 A 
ATOM     26  C   UNL     1      -2.695  -4.680  -5.075  0.00  0.00    +0.002 A 
ENDBRANCH  20  21
ENDBRANCH   1  20
BRANCH   1  27
ATOM     27  C   UNL     1       0.177  -5.743  -5.200  0.00  0.00    -0.044 C 
BRANCH  27  28
ATOM     28  C   UNL     1       0.042  -7.195  -4.737  0.00  0.00    +0.124 C 
BRANCH  28  29
ATOM     29  O   UNL     1      -1.175  -7.351  -4.005  0.00  0.00    -0.391 OA
ATOM     30  H   UNL     1      -1.973  -7.258  -4.545  0.00  0.00    +0.210 HD
ENDBRANCH  28  29
BRANCH  28  31
ATOM     31  C   UNL     1       0.027  -8.119  -5.956  0.00  0.00    +0.189 C 
BRANCH  31  32
ATOM     32  O   UNL     1       0.019  -9.481  -5.522  0.00  0.00    -0.370 OA
BRANCH  32  33
ATOM     33  C   UNL     1       0.004 -10.431  -6.588  0.00  0.00    +0.234 C 
BRANCH  33  34
ATOM     34  C   UNL     1      -0.004 -11.826  -6.018  0.00  0.00    +0.130 A 
ATOM     35  C   UNL     1      -1.099 -12.548  -5.718  0.00  0.00    +0.047 A 
ATOM     36  C   UNL     1      -0.646 -13.788  -5.213  0.00  0.00    +0.041 A 
ATOM     37  C   UNL     1       0.698 -13.751  -5.235  0.00  0.00    +0.195 A 
ATOM     38  O   UNL     1       1.082 -12.562  -5.729  0.00  0.00    -0.465 OA
ENDBRANCH  33  34
ENDBRANCH  32  33
ENDBRANCH  31  32
ENDBRANCH  28  31
ENDBRANCH  27  28
ENDBRANCH   1  27
TORSDOF 13
