REMARK  Name = ZINC05024992
REMARK  5 active torsions:
REMARK  status: ('A' for Active; 'I' for Inactive)
REMARK    1  A    between atoms: C_1  and  C_2
REMARK    2  A    between atoms: C_8  and  C_10
REMARK    3  A    between atoms: N_11  and  N_12
REMARK    4  A    between atoms: C_28  and  C_32
REMARK    5  A    between atoms: C_28  and  C_33
REMARK                            x       y       z     vdW  Elec       q    Type
REMARK                         _______ _______ _______ _____ _____    ______ ____
ROOT
ATOM      1  N   UNL     1      -1.606   7.702   0.057  0.00  0.00    -0.184 N 
ATOM      2  C   UNL     1      -0.253   7.575   0.038  0.00  0.00    +0.227 A 
ATOM      3  N   UNL     1       0.329   6.409   0.027  0.00  0.00    -0.233 NA
ATOM      4  C   UNL     1      -0.389   5.272   0.035  0.00  0.00    +0.103 A 
ATOM      5  C   UNL     1      -0.035   3.847   0.027  0.00  0.00    +0.029 A 
ATOM      6  C   UNL     1       1.180   3.159   0.008  0.00  0.00    +0.050 A 
ATOM      7  C   UNL     1       1.185   1.780   0.006  0.00  0.00    +0.124 A 
ATOM      8  C   UNL     1      -0.013   1.076   0.021  0.00  0.00    +0.040 A 
ATOM      9  C   UNL     1      -1.218   1.741   0.035  0.00  0.00    +0.029 A 
ATOM     10  C   UNL     1      -1.246   3.134   0.043  0.00  0.00    +0.049 A 
ATOM     11  N   UNL     1      -2.281   4.045   0.059  0.00  0.00    -0.349 N 
ATOM     12  H   UNL     1      -3.224   3.815   0.072  0.00  0.00    +0.166 HD
ATOM     13  C   UNL     1      -1.781   5.333   0.055  0.00  0.00    +0.133 A 
ATOM     14  C   UNL     1      -2.396   6.606   0.066  0.00  0.00    +0.298 A 
ATOM     15  O   UNL     1      -3.611   6.713   0.083  0.00  0.00    -0.263 OA
ATOM     16  F   UNL     1       2.359   1.112  -0.013  0.00  0.00    -0.205 F 
ENDROOT
BRANCH   1  18
ATOM     17  C   UNL     1      -1.443  10.016   0.162  0.00  0.00    +0.110 C 
ATOM     18  N   UNL     1      -2.185   8.977   0.068  0.00  0.00    -0.175 NA
BRANCH  17  25
ATOM     19  C   UNL     1      -1.884  11.570  -2.206  0.00  0.00    +0.008 C 
ATOM     20  C   UNL     1      -1.614  12.273  -0.875  0.00  0.00    -0.001 C 
ATOM     21  C   UNL     1      -2.414  13.567  -0.803  0.00  0.00    +0.034 C 
ATOM     22  C   UNL     1      -2.363  14.177   0.583  0.00  0.00    -0.069 C 
ATOM     23  C   UNL     1      -2.033  13.497   1.639  0.00  0.00    -0.064 C 
ATOM     24  C   UNL     1      -1.615  12.042   1.583  0.00  0.00    +0.040 C 
ATOM     25  C   UNL     1      -2.071  11.381   0.288  0.00  0.00    +0.039 C 
ATOM     26  C   UNL     1      -2.019  14.096   3.031  0.00  0.00    -0.014 C 
ATOM     27  C   UNL     1      -1.971  15.618   2.984  0.00  0.00    +0.011 C 
ATOM     28  C   UNL     1      -3.088  16.088   2.042  0.00  0.00    +0.005 C 
ATOM     29  C   UNL     1      -2.715  15.649   0.632  0.00  0.00    +0.031 C 
ATOM     30  C   UNL     1      -3.282  13.659   3.776  0.00  0.00    +0.015 C 
ATOM     31  C   UNL     1      -0.792  13.581   3.785  0.00  0.00    +0.015 C 
ENDBRANCH  17  25
ENDBRANCH   1  18
TORSDOF 2
