REMARK  Name = ZINC63375763
REMARK  9 active torsions:
REMARK  status: ('A' for Active; 'I' for Inactive)
REMARK    1  A    between atoms: C_1  and  C_2
REMARK    2  A    between atoms: C_2  and  C_3
REMARK    3  A    between atoms: C_12  and  O_14
REMARK    4  A    between atoms: O_14  and  C_15
REMARK    5  A    between atoms: C_15  and  C_17
REMARK    6  A    between atoms: C_15  and  C_18
REMARK    7  A    between atoms: N_20  and  C_21
REMARK    8  A    between atoms: C_21  and  C_22
REMARK    9  A    between atoms: C_22  and  C_23
REMARK                            x       y       z     vdW  Elec       q    Type
REMARK                         _______ _______ _______ _____ _____    ______ ____
ROOT
ATOM      1  C   UNL     1      -1.214  -1.445  -7.233  0.00  0.00    +0.256 C 
ATOM      2  C   UNL     1      -1.257  -2.963  -7.419  0.00  0.00    +0.062 C 
ENDROOT
BRANCH   1   3
ATOM      3  C   UNL     1      -1.774  -0.773  -8.460  0.00  0.00    +0.254 C 
ATOM      4  O   UNL     1      -2.746  -0.054  -8.367  0.00  0.00    -0.272 OA
ATOM      5  N   UNL     1      -1.193  -0.970  -9.660  0.00  0.00    -0.312 N 
ATOM      6  H   UNL     1      -0.415  -1.545  -9.734  0.00  0.00    +0.149 HD
BRANCH   5   7
ATOM      7  C   UNL     1      -1.737  -0.316 -10.853  0.00  0.00    +0.108 C 
BRANCH   7   8
ATOM      8  C   UNL     1      -0.899  -0.704 -12.073  0.00  0.00    +0.052 C 
BRANCH   8   9
ATOM      9  C   UNL     1      -1.459  -0.031 -13.301  0.00  0.00    -0.040 C 
ATOM     10  C   UNL     1      -1.047   1.136 -13.847  0.00  0.00    -0.001 A 
ATOM     11  C   UNL     1       0.003   2.092 -13.476  0.00  0.00    +0.010 A 
ATOM     12  C   UNL     1       0.181   3.197 -14.234  0.00  0.00    +0.001 A 
ATOM     13  C   UNL     1      -0.610   3.452 -15.363  0.00  0.00    +0.002 A 
ATOM     14  C   UNL     1      -1.594   2.621 -15.767  0.00  0.00    +0.026 A 
ATOM     15  C   UNL     1      -1.869   1.428 -15.043  0.00  0.00    +0.043 A 
ATOM     16  N   UNL     1      -2.753   0.478 -15.229  0.00  0.00    -0.380 N 
ATOM     17  C   UNL     1      -2.589  -0.527 -14.174  0.00  0.00    +0.144 C 
ATOM     18  H   UNL     1      -3.405   0.445 -15.947  0.00  0.00    +0.160 HD
ENDBRANCH   8   9
ENDBRANCH   7   8
ENDBRANCH   5   7
ENDBRANCH   1   3
BRANCH   1  19
ATOM     19  O   UNL     1      -1.996  -1.083  -6.093  0.00  0.00    -0.478 OA
BRANCH  19  29
ATOM     20  C   UNL     1       0.508  -1.341  -1.104  0.00  0.00    -0.030 A 
ATOM     21  C   UNL     1       1.762  -1.862  -1.055  0.00  0.00    +0.096 A 
ATOM     22  C   UNL     1       2.383  -2.308  -2.240  0.00  0.00    +0.337 A 
ATOM     23  O   UNL     1       3.507  -2.772  -2.183  0.00  0.00    -0.245 OA
ATOM     24  O   UNL     1       1.767  -2.233  -3.430  0.00  0.00    -0.422 OA
ATOM     25  C   UNL     1       0.521  -1.726  -3.548  0.00  0.00    +0.143 A 
ATOM     26  C   UNL     1      -0.160  -1.267  -2.404  0.00  0.00    +0.022 A 
ATOM     27  C   UNL     1      -1.454  -0.746  -2.521  0.00  0.00    +0.035 A 
ATOM     28  C   UNL     1      -2.054  -0.689  -3.746  0.00  0.00    +0.083 A 
ATOM     29  C   UNL     1      -1.386  -1.146  -4.882  0.00  0.00    +0.143 A 
ATOM     30  C   UNL     1      -0.101  -1.655  -4.785  0.00  0.00    +0.094 A 
ATOM     31 CL   UNL     1      -3.659  -0.042  -3.891  0.00  0.00    -0.080 Cl
BRANCH  20  33
ATOM     32  C   UNL     1       0.035   0.649   0.298  0.00  0.00    +0.009 C 
ATOM     33  C   UNL     1      -0.178  -0.859   0.148  0.00  0.00    +0.033 C 
ENDBRANCH  20  33
ENDBRANCH  19  29
ENDBRANCH   1  19
TORSDOF 7
