REMARK  Name = ZINC04104669
REMARK  6 active torsions:
REMARK  status: ('A' for Active; 'I' for Inactive)
REMARK    1  A    between atoms: C_1  and  C_2
REMARK    2  A    between atoms: C_5  and  O_28
REMARK    3  A    between atoms: C_9  and  O_27
REMARK    4  A    between atoms: C_18  and  C_26
REMARK    5  A    between atoms: C_23  and  C_24
REMARK    6  A    between atoms: C_23  and  O_25
REMARK                            x       y       z     vdW  Elec       q    Type
REMARK                         _______ _______ _______ _____ _____    ______ ____
ROOT
ATOM      1  C   UNL     1       2.790   4.280   2.439  0.00  0.00    +0.016 C 
ATOM      2  C   UNL     1       3.258   3.292   1.364  0.00  0.00    -0.005 C 
ATOM      3  C   UNL     1       2.555   3.688   0.075  0.00  0.00    +0.014 C 
ATOM      4  C   UNL     1       1.151   3.087   0.008  0.00  0.00    +0.036 C 
ATOM      5  C   UNL     1       1.285   1.561  -0.002  0.00  0.00    +0.137 C 
ATOM      6  C   UNL     1       2.049   1.136   1.218  0.00  0.00    +0.006 C 
ATOM      7  C   UNL     1       2.923   1.900   1.811  0.00  0.00    -0.037 C 
ATOM      8  C   UNL     1       3.661   1.324   3.005  0.00  0.00    +0.141 C 
ATOM      9  C   UNL     1       5.167   1.502   2.785  0.00  0.00    +0.040 C 
ATOM     10  C   UNL     1       5.492   2.959   2.479  0.00  0.00    -0.001 C 
ATOM     11  C   UNL     1       4.772   3.426   1.215  0.00  0.00    +0.003 C 
ATOM     12  C   UNL     1       5.275   2.564   0.053  0.00  0.00    +0.005 C 
ATOM     13  C   UNL     1       6.745   2.896  -0.177  0.00  0.00    +0.010 C 
ATOM     14  C   UNL     1       7.617   2.727   1.038  0.00  0.00    -0.000 C 
ATOM     15  C   UNL     1       6.995   3.183   2.360  0.00  0.00    +0.001 C 
ATOM     16  C   UNL     1       7.701   2.317   3.437  0.00  0.00    +0.007 C 
ATOM     17  C   UNL     1       7.993   0.979   2.731  0.00  0.00    +0.035 C 
ATOM     18  C   UNL     1       8.203   1.331   1.243  0.00  0.00    +0.069 C 
ATOM     19  C   UNL     1       7.557   0.270   0.357  0.00  0.00    +0.042 C 
ATOM     20  C   UNL     1       8.837   3.660   0.800  0.00  0.00    +0.014 C 
ENDROOT
BRANCH  18  21
ATOM     21  O   UNL     1       9.615   1.369   0.971  0.00  0.00    -0.388 OA
ATOM     22  H   UNL     1      10.060   0.517   1.080  0.00  0.00    +0.210 HD
ENDBRANCH  18  21
BRANCH   8  23
ATOM     23  O   UNL     1       3.260   1.962   4.215  0.00  0.00    -0.387 OA
ATOM     24  H   UNL     1       3.699   1.619   5.005  0.00  0.00    +0.210 HD
ENDBRANCH   8  23
BRANCH   5  25
ATOM     25  O   UNL     1      -0.011   0.963   0.007  0.00  0.00    -0.388 OA
ATOM     26  H   UNL     1       0.002  -0.004   0.002  0.00  0.00    +0.210 HD
ENDBRANCH   5  25
TORSDOF 3
