REMARK  Name = ZINC01829983
REMARK  9 active torsions:
REMARK  status: ('A' for Active; 'I' for Inactive)
REMARK    1  A    between atoms: C_1  and  C_2
REMARK    2  A    between atoms: C_5  and  O_9
REMARK    3  A    between atoms: C_7  and  C_8
REMARK    4  A    between atoms: O_9  and  C_10
REMARK    5  A    between atoms: C_10  and  C_11
REMARK    6  A    between atoms: C_11  and  N_12
REMARK    7  A    between atoms: C_14  and  C_21
REMARK    8  A    between atoms: C_29  and  C_30
REMARK    9  A    between atoms: C_29  and  C_31
REMARK                            x       y       z     vdW  Elec       q    Type
REMARK                         _______ _______ _______ _____ _____    ______ ____
ROOT
ATOM      1  N   UNL     1      -0.360  -6.345  -2.606  0.00  0.00    -0.343 N 
ATOM      2  C   UNL     1      -1.351  -6.982  -3.261  0.00  0.00    +0.095 A 
ATOM      3  C   UNL     1      -0.818  -7.722  -4.299  0.00  0.00    +0.001 A 
ATOM      4  C   UNL     1       0.641  -7.502  -4.254  0.00  0.00    +0.007 A 
ATOM      5  C   UNL     1       0.864  -6.628  -3.178  0.00  0.00    +0.050 A 
ATOM      6  C   UNL     1       2.163  -6.227  -2.885  0.00  0.00    +0.026 A 
ATOM      7  C   UNL     1       3.214  -6.684  -3.651  0.00  0.00    +0.002 A 
ATOM      8  C   UNL     1       2.991  -7.544  -4.715  0.00  0.00    +0.001 A 
ATOM      9  C   UNL     1       1.711  -7.960  -5.017  0.00  0.00    +0.010 A 
ENDROOT
BRANCH   3  10
ATOM     10  C   UNL     1      -1.527  -8.529  -5.218  0.00  0.00    +0.027 C 
ATOM     11  C   UNL     1      -2.654  -9.218  -4.808  0.00  0.00    +0.085 A 
ATOM     12  C   UNL     1      -3.529  -9.937  -5.773  0.00  0.00    +0.160 A 
ATOM     13  N   UNL     1      -3.079 -10.519  -6.854  0.00  0.00    -0.281 NA
ATOM     14  N   UNL     1      -4.891  -9.931  -5.407  0.00  0.00    -0.212 N 
ATOM     15  N   UNL     1      -5.945 -10.094  -6.282  0.00  0.00    -0.283 N 
ATOM     16  H   UNL     1      -5.789 -10.158  -7.238  0.00  0.00    +0.188 HD
ATOM     17  C   UNL     1      -7.240 -10.167  -5.766  0.00  0.00    +0.095 A 
ATOM     18  C   UNL     1      -8.389 -10.354  -6.410  0.00  0.00    -0.044 C 
ATOM     19  C   UNL     1      -8.394 -10.523  -7.908  0.00  0.00    +0.041 C 
ATOM     20  C   UNL     1      -9.685 -10.399  -5.643  0.00  0.00    +0.041 C 
ATOM     21  S   UNL     1      -6.956  -9.943  -4.016  0.00  0.00    -0.031 S 
ATOM     22  C   UNL     1      -5.194  -9.755  -4.070  0.00  0.00    +0.199 A 
ATOM     23  N   UNL     1      -4.360  -9.488  -3.099  0.00  0.00    -0.182 NA
ATOM     24  C   UNL     1      -3.053  -9.284  -3.383  0.00  0.00    +0.283 A 
ATOM     25  O   UNL     1      -2.228  -9.155  -2.494  0.00  0.00    -0.265 OA
ATOM     26  H   UNL     1      -2.132 -10.494  -7.060  0.00  0.00    +0.188 HD
ENDBRANCH   3  10
BRANCH   1  27
ATOM     27  C   UNL     1      -0.556  -5.468  -1.450  0.00  0.00    +0.163 C 
BRANCH  27  28
ATOM     28  C   UNL     1      -0.651  -4.016  -1.921  0.00  0.00    +0.250 C 
BRANCH  28  29
ATOM     29  O   UNL     1      -0.842  -3.160  -0.792  0.00  0.00    -0.490 OA
BRANCH  29  34
ATOM     30  C   UNL     1      -1.279   2.361  -1.814  0.00  0.00    +0.044 C 
ATOM     31  C   UNL     1      -1.162   0.884  -1.541  0.00  0.00    -0.047 A 
ATOM     32  C   UNL     1      -0.975   0.001  -2.588  0.00  0.00    +0.007 A 
ATOM     33  C   UNL     1      -0.868  -1.354  -2.340  0.00  0.00    +0.046 A 
ATOM     34  C   UNL     1      -0.947  -1.828  -1.039  0.00  0.00    +0.121 A 
ATOM     35  C   UNL     1      -1.134  -0.940   0.010  0.00  0.00    +0.049 A 
ATOM     36  C   UNL     1      -1.236   0.414  -0.242  0.00  0.00    -0.044 A 
ATOM     37  C   UNL     1      -1.433   1.380   0.897  0.00  0.00    +0.044 C 
ENDBRANCH  29  34
ENDBRANCH  28  29
ENDBRANCH  27  28
ENDBRANCH   1  27
TORSDOF 5
