REMARK  Name = ZINC63676482
REMARK  8 active torsions:
REMARK  status: ('A' for Active; 'I' for Inactive)
REMARK    1  A    between atoms: C_7  and  C_10
REMARK    2  A    between atoms: C_10  and  C_11
REMARK    3  A    between atoms: C_11  and  N_12
REMARK    4  A    between atoms: C_13  and  C_15
REMARK    5  A    between atoms: N_17  and  C_18
REMARK    6  A    between atoms: C_18  and  C_19
REMARK    7  A    between atoms: N_21  and  S_26
REMARK    8  A    between atoms: S_26  and  C_29
REMARK                            x       y       z     vdW  Elec       q    Type
REMARK                         _______ _______ _______ _____ _____    ______ ____
ROOT
ATOM      1  C   UNL     1      -1.731  -6.583  -2.606  0.00  0.00    +0.299 C 
ATOM      2  O   UNL     1      -2.182  -7.004  -1.561  0.00  0.00    -0.265 OA
ATOM      3  N   UNL     1      -2.085  -7.157  -3.772  0.00  0.00    -0.304 N 
ATOM      4  H   UNL     1      -1.724  -6.821  -4.608  0.00  0.00    +0.149 HD
ENDROOT
BRANCH   1   6
ATOM      5  N   UNL     1      -0.429  -4.853  -1.432  0.00  0.00    -0.307 N 
ATOM      6  C   UNL     1      -0.783  -5.428  -2.599  0.00  0.00    +0.299 C 
ATOM      7  O   UNL     1      -0.332  -5.007  -3.644  0.00  0.00    -0.265 OA
ATOM      8  H   UNL     1      -0.790  -5.189  -0.597  0.00  0.00    +0.149 HD
BRANCH   5   9
ATOM      9  C   UNL     1       0.500  -3.721  -1.425  0.00  0.00    +0.109 C 
BRANCH   9  10
ATOM     10  C   UNL     1       0.732  -3.260   0.015  0.00  0.00    +0.052 C 
BRANCH  10  17
ATOM     11  C   UNL     1       0.083   1.282   0.059  0.00  0.00    +0.001 A 
ATOM     12  C   UNL     1       1.275   2.020   0.060  0.00  0.00    +0.002 A 
ATOM     13  C   UNL     1       2.493   1.438   0.050  0.00  0.00    +0.026 A 
ATOM     14  C   UNL     1       2.613   0.021   0.037  0.00  0.00    +0.043 A 
ATOM     15  N   UNL     1       3.661  -0.766   0.025  0.00  0.00    -0.380 N 
ATOM     16  C   UNL     1       3.199  -2.159   0.015  0.00  0.00    +0.144 C 
ATOM     17  C   UNL     1       1.688  -2.095   0.022  0.00  0.00    -0.040 C 
ATOM     18  C   UNL     1       1.369  -0.781   0.035  0.00  0.00    -0.001 A 
ATOM     19  C   UNL     1       0.084  -0.070   0.047  0.00  0.00    +0.010 A 
ATOM     20  H   UNL     1       4.586  -0.476   0.024  0.00  0.00    +0.160 HD
ENDBRANCH  10  17
ENDBRANCH   9  10
ENDBRANCH   5   9
ENDBRANCH   1   6
BRANCH   3  21
ATOM     21  C   UNL     1      -3.014  -8.290  -3.779  0.00  0.00    +0.154 C 
BRANCH  21  22
ATOM     22  C   UNL     1      -3.246  -8.751  -5.220  0.00  0.00    +0.226 C 
ATOM     23  N   UNL     1      -1.953  -9.020  -5.866  0.00  0.00    -0.147 NA
ATOM     24  C   UNL     1      -1.938  -9.273  -7.315  0.00  0.00    +0.114 C 
ATOM     25  C   UNL     1      -2.719  -8.148  -8.007  0.00  0.00    +0.045 C 
ATOM     26  C   UNL     1      -4.090  -8.011  -7.339  0.00  0.00    +0.163 C 
ATOM     27  O   UNL     1      -3.922  -7.722  -5.949  0.00  0.00    -0.358 OA
BRANCH  23  28
ATOM     28  S   UNL     1      -0.551  -9.037  -4.986  0.00  0.00    +0.069 S 
ATOM     29  O   UNL     1       0.300  -8.053  -5.559  0.00  0.00    -0.152 OA
ATOM     30  O   UNL     1      -0.930  -9.012  -3.617  0.00  0.00    -0.152 OA
BRANCH  28  31
ATOM     31  C   UNL     1       0.222 -10.595  -5.267  0.00  0.00    +0.143 A 
ATOM     32  C   UNL     1       1.120 -10.943  -6.220  0.00  0.00    +0.036 A 
ATOM     33  C   UNL     1       1.597 -12.240  -6.250  0.00  0.00    +0.010 A 
ATOM     34  C   UNL     1       1.153 -13.126  -5.325  0.00  0.00    +0.047 A 
ATOM     35  S   UNL     1       0.030 -12.124  -4.364  0.00  0.00    -0.077 S 
ENDBRANCH  28  31
ENDBRANCH  23  28
ENDBRANCH  21  22
ENDBRANCH   3  21
TORSDOF 8
