REMARK  Name = ZINC63491753
REMARK  13 active torsions:
REMARK  status: ('A' for Active; 'I' for Inactive)
REMARK    1  A    between atoms: C_1  and  C_2
REMARK    2  A    between atoms: C_2  and  O_3
REMARK    3  A    between atoms: O_3  and  C_4
REMARK    4  A    between atoms: C_6  and  C_16
REMARK    5  A    between atoms: C_8  and  O_13
REMARK    6  A    between atoms: C_9  and  O_10
REMARK    7  A    between atoms: O_10  and  C_11
REMARK    8  A    between atoms: C_11  and  C_12
REMARK    9  A    between atoms: O_13  and  C_14
REMARK   10  A    between atoms: C_14  and  C_15
REMARK   11  A    between atoms: C_24  and  O_40
REMARK   12  A    between atoms: C_31  and  C_33
REMARK   13  A    between atoms: O_40  and  C_41
REMARK                            x       y       z     vdW  Elec       q    Type
REMARK                         _______ _______ _______ _____ _____    ______ ____
ROOT
ATOM      1  C   UNL     1       1.014  -5.424   1.776  0.00  0.00    +0.247 C 
ATOM      2  O   UNL     1       2.094  -4.897   1.587  0.00  0.00    -0.270 OA
ATOM      3  N   UNL     1       0.688  -6.550   1.112  0.00  0.00    -0.288 N 
ATOM      4  C   UNL     1      -0.628  -7.161   1.324  0.00  0.00    +0.113 C 
ATOM      5  C   UNL     1      -1.368  -7.265  -0.022  0.00  0.00    +0.052 C 
ATOM      6  C   UNL     1      -0.375  -7.805  -1.021  0.00  0.00    -0.035 C 
ATOM      7  C   UNL     1      -0.445  -8.828  -1.863  0.00  0.00    +0.003 A 
ATOM      8  C   UNL     1      -1.545  -9.740  -2.212  0.00  0.00    +0.055 A 
ATOM      9  C   UNL     1      -1.266 -10.715  -3.121  0.00  0.00    +0.121 A 
ATOM     10  C   UNL     1      -0.012 -10.888  -3.725  0.00  0.00    +0.047 A 
ATOM     11  C   UNL     1       1.067 -10.101  -3.483  0.00  0.00    +0.029 A 
ATOM     12  C   UNL     1       0.886  -9.004  -2.522  0.00  0.00    +0.043 A 
ATOM     13  N   UNL     1       1.718  -8.092  -2.117  0.00  0.00    -0.375 N 
ATOM     14  C   UNL     1       1.009  -7.193  -1.206  0.00  0.00    +0.131 C 
ATOM     15  C   UNL     1       1.653  -7.150   0.178  0.00  0.00    +0.133 C 
ATOM     16  H   UNL     1       2.651  -8.020  -2.374  0.00  0.00    +0.160 HD
ENDROOT
BRANCH  15  17
ATOM     17  C   UNL     1       2.905  -6.312   0.130  0.00  0.00    -0.025 A 
ATOM     18  C   UNL     1       2.944  -5.174  -0.655  0.00  0.00    +0.008 A 
ATOM     19  C   UNL     1       4.091  -4.405  -0.700  0.00  0.00    +0.038 A 
ATOM     20  C   UNL     1       5.201  -4.773   0.041  0.00  0.00    +0.123 A 
ATOM     21  C   UNL     1       5.161  -5.913   0.826  0.00  0.00    +0.038 A 
ATOM     22  C   UNL     1       4.011  -6.678   0.874  0.00  0.00    +0.008 A 
ATOM     23  F   UNL     1       6.323  -4.022  -0.002  0.00  0.00    -0.205 F 
ENDBRANCH  15  17
BRANCH   1  26
ATOM     24  C   UNL     1      -0.987  -2.887   3.694  0.00  0.00    +0.166 A 
ATOM     25  C   UNL     1      -0.094  -3.442   2.797  0.00  0.00    +0.062 A 
ATOM     26  C   UNL     1       0.061  -4.829   2.734  0.00  0.00    +0.044 A 
ATOM     27  C   UNL     1      -0.688  -5.652   3.578  0.00  0.00    +0.062 A 
ATOM     28  C   UNL     1      -1.581  -5.092   4.473  0.00  0.00    +0.166 A 
ATOM     29  C   UNL     1      -1.729  -3.709   4.538  0.00  0.00    +0.204 A 
BRANCH  24  30
ATOM     30  O   UNL     1      -1.138  -1.537   3.756  0.00  0.00    -0.488 OA
BRANCH  30  32
ATOM     31  C   UNL     1      -0.649   0.730   3.076  0.00  0.00    +0.048 C 
ATOM     32  C   UNL     1      -0.345  -0.754   2.861  0.00  0.00    +0.226 C 
ENDBRANCH  30  32
ENDBRANCH  24  30
BRANCH  29  33
ATOM     33  O   UNL     1      -2.603  -3.162   5.423  0.00  0.00    -0.485 OA
BRANCH  33  34
ATOM     34  C   UNL     1      -3.944  -2.963   4.971  0.00  0.00    +0.226 C 
ATOM     35  C   UNL     1      -4.774  -2.342   6.096  0.00  0.00    +0.048 C 
ENDBRANCH  33  34
ENDBRANCH  29  33
BRANCH  28  36
ATOM     36  O   UNL     1      -2.311  -5.893   5.295  0.00  0.00    -0.488 OA
BRANCH  36  37
ATOM     37  C   UNL     1      -2.104  -7.302   5.179  0.00  0.00    +0.226 C 
ATOM     38  C   UNL     1      -3.006  -8.034   6.175  0.00  0.00    +0.048 C 
ENDBRANCH  36  37
ENDBRANCH  28  36
ENDBRANCH   1  26
BRANCH   9  39
ATOM     39  O   UNL     1      -2.263 -11.573  -3.463  0.00  0.00    -0.495 OA
ATOM     40  C   UNL     1      -1.946 -12.587  -4.418  0.00  0.00    +0.277 C 
ENDBRANCH   9  39
TORSDOF 9
