REMARK  Name = ZINC26807807
REMARK  10 active torsions:
REMARK  status: ('A' for Active; 'I' for Inactive)
REMARK    1  A    between atoms: C_1  and  C_2
REMARK    2  A    between atoms: C_5  and  C_9
REMARK    3  A    between atoms: C_6  and  C_8
REMARK    4  A    between atoms: C_9  and  C_10
REMARK    5  A    between atoms: C_10  and  C_11
REMARK    6  A    between atoms: N_13  and  N_14
REMARK    7  A    between atoms: N_14  and  C_15
REMARK    8  A    between atoms: C_15  and  N_17
REMARK    9  A    between atoms: N_17  and  C_18
REMARK   10  A    between atoms: C_18  and  C_19
REMARK                            x       y       z     vdW  Elec       q    Type
REMARK                         _______ _______ _______ _____ _____    ______ ____
ROOT
ATOM      1  C   UNL     1       1.178  -0.662  -0.013  0.00  0.00    +0.229 C 
ATOM      2  O   UNL     1       2.220  -0.041  -0.019  0.00  0.00    -0.274 OA
ATOM      3  N   UNL     1       0.002  -0.004   0.002  0.00  0.00    -0.235 N 
ATOM      4  H   UNL     1      -0.943  -0.567   0.008  0.00  0.00    +0.173 HD
ENDROOT
BRANCH   3   5
ATOM      5  N   UNL     1      -0.017   1.397   0.010  0.00  0.00    -0.246 N 
ATOM      6  H   UNL     1       0.928   1.960   0.008  0.00  0.00    +0.172 HD
BRANCH   5   7
ATOM      7  C   UNL     1      -1.193   2.055   0.019  0.00  0.00    +0.147 C 
ATOM      8  S   UNL     1      -1.216   3.767   0.028  0.00  0.00    -0.017 S 
BRANCH   7   9
ATOM      9  N   UNL     1      -2.351   1.365   0.021  0.00  0.00    -0.323 N 
ATOM     10  H   UNL     1      -2.336   0.265   0.015  0.00  0.00    +0.148 HD
BRANCH   9  11
ATOM     11  C   UNL     1      -3.630   2.080   0.031  0.00  0.00    +0.134 C 
BRANCH  11  12
ATOM     12  C   UNL     1      -4.779   1.070   0.030  0.00  0.00    +0.135 C 
ATOM     13  C   UNL     1      -6.136   1.800  -0.085  0.00  0.00    +0.035 C 
ATOM     14  C   UNL     1      -7.081   0.981   0.823  0.00  0.00    +0.031 C 
ATOM     15  C   UNL     1      -6.183  -0.146   1.380  0.00  0.00    +0.160 C 
ATOM     16  O   UNL     1      -4.839   0.377   1.296  0.00  0.00    -0.375 OA
ENDBRANCH  11  12
ENDBRANCH   9  11
ENDBRANCH   7   9
ENDBRANCH   5   7
ENDBRANCH   3   5
BRANCH   1  17
ATOM     17  C   UNL     1       1.199  -2.169  -0.021  0.00  0.00    +0.102 C 
BRANCH  17  18
ATOM     18  C   UNL     1       2.648  -2.659  -0.037  0.00  0.00    +0.044 C 
BRANCH  18  23
ATOM     19  C   UNL     1       2.728  -8.437  -0.069  0.00  0.00    +0.044 C 
ATOM     20  C   UNL     1       2.707  -6.930  -0.061  0.00  0.00    -0.050 A 
ATOM     21  C   UNL     1       2.814  -6.244   1.134  0.00  0.00    +0.003 A 
ATOM     22  C   UNL     1       2.799  -4.862   1.142  0.00  0.00    +0.004 A 
ATOM     23  C   UNL     1       2.668  -4.166  -0.046  0.00  0.00    -0.044 A 
ATOM     24  C   UNL     1       2.562  -4.852  -1.241  0.00  0.00    -0.047 A 
ATOM     25  C   UNL     1       2.581  -6.234  -1.248  0.00  0.00    +0.007 A 
ATOM     26  C   UNL     1       2.425  -4.093  -2.536  0.00  0.00    +0.044 C 
ENDBRANCH  18  23
ENDBRANCH  17  18
ENDBRANCH   1  17
TORSDOF 8
