REMARK  Name = ZINC39344718
REMARK  12 active torsions:
REMARK  status: ('A' for Active; 'I' for Inactive)
REMARK    1  A    between atoms: C_1  and  C_2
REMARK    2  A    between atoms: C_4  and  C_9
REMARK    3  A    between atoms: C_5  and  C_8
REMARK    4  A    between atoms: C_9  and  O_10
REMARK    5  A    between atoms: O_10  and  C_11
REMARK    6  A    between atoms: N_14  and  C_24
REMARK    7  A    between atoms: N_18  and  C_20
REMARK    8  A    between atoms: C_20  and  C_21
REMARK    9  A    between atoms: C_21  and  C_22
REMARK   10  A    between atoms: C_21  and  C_23
REMARK   11  A    between atoms: C_24  and  C_25
REMARK   12  A    between atoms: C_30  and  C_31
REMARK                            x       y       z     vdW  Elec       q    Type
REMARK                         _______ _______ _______ _____ _____    ______ ____
ROOT
ATOM      1  C   UNL     1      -4.953  -0.543  -1.039  0.00  0.00    +0.119 C 
ATOM      2  C   UNL     1      -6.172  -0.800  -0.176  0.00  0.00    -0.045 C 
ATOM      3  N   UNL     1      -7.442  -0.650  -0.872  0.00  0.00    +0.388 N 
ATOM      4  C   UNL     1      -7.627  -1.712  -1.869  0.00  0.00    +0.019 C 
ATOM      5  C   UNL     1      -6.970  -1.282  -3.163  0.00  0.00    +0.199 C 
ATOM      6  O   UNL     1      -7.657  -0.966  -4.112  0.00  0.00    -0.278 OA
ATOM      7  N   UNL     1      -5.639  -1.247  -3.267  0.00  0.00    -0.300 N 
ATOM      8  C   UNL     1      -4.807  -1.626  -2.111  0.00  0.00    +0.137 C 
ATOM      9  H   UNL     1      -7.462   0.246  -1.335  0.00  0.00    -0.081 HD
ENDROOT
BRANCH   1  10
ATOM     10  O   UNL     1      -3.786  -0.537  -0.214  0.00  0.00    -0.372 OA
BRANCH  10  11
ATOM     11  C   UNL     1      -2.745   0.320  -0.686  0.00  0.00    +0.195 C 
BRANCH  11  14
ATOM     12  C   UNL     1      -0.246  -1.722  -0.518  0.00  0.00    +0.045 C 
ATOM     13  C   UNL     1      -0.854  -1.009   0.692  0.00  0.00    +0.175 C 
ATOM     14  C   UNL     1      -1.569   0.248   0.255  0.00  0.00    +0.007 C 
ATOM     15  C   UNL     1      -0.982   1.269   0.843  0.00  0.00    +0.040 C 
ATOM     16  N   UNL     1       0.065   0.849   1.643  0.00  0.00    -0.269 N 
ATOM     17  O   UNL     1       0.182  -0.564   1.580  0.00  0.00    -0.267 OA
ATOM     18  C   UNL     1      -1.397   2.707   0.669  0.00  0.00    +0.065 C 
ATOM     19  H   UNL     1       0.635   1.432   2.168  0.00  0.00    +0.194 HD
ENDBRANCH  11  14
ENDBRANCH  10  11
ENDBRANCH   1  10
BRANCH   7  20
ATOM     20  C   UNL     1      -5.010  -0.836  -4.524  0.00  0.00    +0.110 C 
BRANCH  20  21
ATOM     21  C   UNL     1      -4.791   0.678  -4.513  0.00  0.00    +0.000 C 
ATOM     22  C   UNL     1      -4.022   1.092  -5.770  0.00  0.00    +0.009 C 
ATOM     23  C   UNL     1      -6.146   1.389  -4.487  0.00  0.00    +0.009 C 
ENDBRANCH  20  21
ENDBRANCH   7  20
BRANCH   3  24
ATOM     24  C   UNL     1      -8.537  -0.711   0.106  0.00  0.00    -0.063 C 
BRANCH  24  25
ATOM     25  C   UNL     1      -9.861  -0.386  -0.590  0.00  0.00    +0.066 C 
ATOM     26  C   UNL     1      -9.907   1.073  -0.997  0.00  0.00    +0.115 C 
ATOM     27  N   UNL     1     -10.903   1.593  -0.357  0.00  0.00    -0.161 NA
ATOM     28  N   UNL     1     -11.559   0.669   0.450  0.00  0.00    -0.153 NA
ATOM     29  C   UNL     1     -11.020  -0.521   0.378  0.00  0.00    +0.077 C 
BRANCH  29  30
ATOM     30  C   UNL     1     -11.448  -1.738   1.087  0.00  0.00    -0.001 A 
ATOM     31  C   UNL     1     -10.755  -2.939   0.902  0.00  0.00    +0.010 A 
ATOM     32  C   UNL     1     -11.162  -4.074   1.570  0.00  0.00    +0.001 A 
ATOM     33  C   UNL     1     -12.253  -4.028   2.420  0.00  0.00    +0.000 A 
ATOM     34  C   UNL     1     -12.944  -2.844   2.607  0.00  0.00    +0.001 A 
ATOM     35  C   UNL     1     -12.546  -1.698   1.952  0.00  0.00    +0.010 A 
ENDBRANCH  29  30
ENDBRANCH  24  25
ENDBRANCH   3  24
TORSDOF 8
