REMARK  Name = ZINC09754277
REMARK  12 active torsions:
REMARK  status: ('A' for Active; 'I' for Inactive)
REMARK    1  A    between atoms: C_1  and  C_2
REMARK    2  A    between atoms: C_8  and  N_10
REMARK    3  A    between atoms: C_14  and  C_16
REMARK    4  A    between atoms: C_16  and  O_17
REMARK    5  A    between atoms: O_17  and  C_18
REMARK    6  A    between atoms: C_18  and  C_20
REMARK    7  A    between atoms: C_24  and  S_26
REMARK    8  A    between atoms: S_26  and  N_29
REMARK    9  A    between atoms: N_29  and  C_30
REMARK   10  A    between atoms: N_29  and  C_31
REMARK   11  A    between atoms: C_31  and  C_32
REMARK   12  A    between atoms: C_31  and  C_33
REMARK                            x       y       z     vdW  Elec       q    Type
REMARK                         _______ _______ _______ _____ _____    ______ ____
ROOT
ATOM      1  O   UNL     1      -5.731  -3.915  -1.309  0.00  0.00    -0.452 OA
ENDROOT
BRANCH   1   2
ATOM      2  C   UNL     1      -4.442  -3.705  -0.978  0.00  0.00    +0.340 C 
ATOM      3  O   UNL     1      -3.594  -4.516  -1.293  0.00  0.00    -0.245 OA
BRANCH   2   4
ATOM      4  C   UNL     1      -4.060  -2.489  -0.232  0.00  0.00    +0.061 A 
ATOM      5  C   UNL     1      -5.032  -1.554   0.132  0.00  0.00    +0.015 A 
ATOM      6  C   UNL     1      -4.669  -0.421   0.828  0.00  0.00    +0.003 A 
ATOM      7  C   UNL     1      -3.345  -0.211   1.172  0.00  0.00    +0.028 A 
ATOM      8  C   UNL     1      -2.376  -1.129   0.810  0.00  0.00    +0.106 A 
ATOM      9  C   UNL     1      -2.725  -2.268   0.113  0.00  0.00    +0.043 A 
BRANCH   8  10
ATOM     10  S   UNL     1      -0.692  -0.848   1.246  0.00  0.00    +0.061 S 
ATOM     11  O   UNL     1      -0.062  -2.122   1.274  0.00  0.00    -0.153 OA
ATOM     12  O   UNL     1      -0.703   0.021   2.370  0.00  0.00    -0.153 OA
BRANCH  10  13
ATOM     13  N   UNL     1       0.002  -0.004   0.002  0.00  0.00    -0.177 NA
ATOM     14  C   UNL     1       0.636  -0.722  -1.107  0.00  0.00    +0.132 C 
BRANCH  13  15
ATOM     15  C   UNL     1      -0.018   1.461   0.010  0.00  0.00    +0.073 C 
ATOM     16  C   UNL     1       1.418   1.990  -0.001  0.00  0.00    +0.025 C 
ATOM     17  C   UNL     1      -0.758   1.968  -1.230  0.00  0.00    +0.025 C 
ENDBRANCH  13  15
ENDBRANCH  10  13
ENDBRANCH   8  10
ENDBRANCH   2   4
ENDBRANCH   1   2
BRANCH   1  18
ATOM     18  C   UNL     1      -6.033  -5.131  -2.042  0.00  0.00    +0.328 C 
BRANCH  18  23
ATOM     19  N   UNL     1      -9.864  -7.347  -3.921  0.00  0.00    -0.296 N 
ATOM     20  C   UNL     1      -9.349  -6.299  -3.247  0.00  0.00    +0.306 C 
ATOM     21  O   UNL     1     -10.079  -5.405  -2.865  0.00  0.00    -0.252 OA
ATOM     22  N   UNL     1      -8.026  -6.243  -2.996  0.00  0.00    -0.237 N 
ATOM     23  C   UNL     1      -7.512  -5.195  -2.323  0.00  0.00    +0.258 C 
ATOM     24  O   UNL     1      -8.240  -4.303  -1.942  0.00  0.00    -0.272 OA
ATOM     25  H   UNL     1      -9.281  -8.061  -4.225  0.00  0.00    +0.151 HD
ATOM     26  H   UNL     1      -7.444  -6.956  -3.301  0.00  0.00    +0.159 HD
BRANCH  19  33
ATOM     27  C   UNL     1     -11.413  -9.653  -3.100  0.00  0.00    +0.009 C 
ATOM     28  C   UNL     1     -11.724  -8.868  -4.376  0.00  0.00    +0.006 C 
ATOM     29  C   UNL     1     -10.956  -9.478  -5.551  0.00  0.00    +0.005 C 
ATOM     30  C   UNL     1     -11.268  -8.693  -6.826  0.00  0.00    +0.000 C 
ATOM     31  C   UNL     1     -10.845  -7.234  -6.643  0.00  0.00    +0.002 C 
ATOM     32  C   UNL     1     -11.613  -6.624  -5.469  0.00  0.00    +0.022 C 
ATOM     33  C   UNL     1     -11.302  -7.409  -4.193  0.00  0.00    +0.077 C 
ENDBRANCH  19  33
ENDBRANCH  18  23
ENDBRANCH   1  18
TORSDOF 8
