REMARK  Name = ZINC16265791
REMARK  11 active torsions:
REMARK  status: ('A' for Active; 'I' for Inactive)
REMARK    1  A    between atoms: C_1  and  C_2
REMARK    2  A    between atoms: C_3  and  C_34
REMARK    3  A    between atoms: C_6  and  N_7
REMARK    4  A    between atoms: N_7  and  S_8
REMARK    5  A    between atoms: S_8  and  C_11
REMARK    6  A    between atoms: C_14  and  N_17
REMARK    7  A    between atoms: N_17  and  S_18
REMARK    8  A    between atoms: S_18  and  C_21
REMARK    9  A    between atoms: C_30  and  N_31
REMARK   10  A    between atoms: N_31  and  C_32
REMARK   11  A    between atoms: N_31  and  C_33
REMARK                            x       y       z     vdW  Elec       q    Type
REMARK                         _______ _______ _______ _____ _____    ______ ____
ROOT
ATOM      1  C   UNL     1       4.595  -1.378   4.254  0.00  0.00    +0.109 A 
ATOM      2  C   UNL     1       4.712  -2.349   5.232  0.00  0.00    +0.030 A 
ATOM      3  C   UNL     1       3.598  -2.761   5.935  0.00  0.00    +0.026 A 
ATOM      4  C   UNL     1       2.357  -2.200   5.659  0.00  0.00    +0.048 A 
ATOM      5  C   UNL     1       2.242  -1.229   4.673  0.00  0.00    +0.026 A 
ATOM      6  C   UNL     1       3.361  -0.817   3.977  0.00  0.00    +0.030 A 
ENDROOT
BRANCH   1   7
ATOM      7  S   UNL     1       6.019  -0.855   3.359  0.00  0.00    +0.075 S 
ATOM      8  O   UNL     1       5.739   0.452   2.877  0.00  0.00    -0.150 OA
ATOM      9  O   UNL     1       7.143  -1.139   4.181  0.00  0.00    -0.150 OA
BRANCH   7  10
ATOM     10  N   UNL     1       6.147  -1.832   2.028  0.00  0.00    -0.183 N 
ATOM     11  H   UNL     1       6.906  -2.430   1.936  0.00  0.00    +0.177 HD
BRANCH  10  17
ATOM     12  C   UNL     1       6.142  -3.551  -0.584  0.00  0.00    +0.051 C 
ATOM     13  C   UNL     1       5.140  -2.533  -0.103  0.00  0.00    +0.035 A 
ATOM     14  C   UNL     1       3.951  -2.120  -0.735  0.00  0.00    +0.085 A 
ATOM     15  N   UNL     1       3.411  -1.221   0.040  0.00  0.00    -0.081 NA
ATOM     16  O   UNL     1       4.073  -1.028   1.033  0.00  0.00    -0.338 OA
ATOM     17  C   UNL     1       5.173  -1.796   1.048  0.00  0.00    +0.240 A 
ATOM     18  C   UNL     1       3.411  -2.616  -2.052  0.00  0.00    +0.069 C 
ENDBRANCH  10  17
ENDBRANCH   7  10
ENDBRANCH   1   7
BRANCH   4  19
ATOM     19  N   UNL     1       1.228  -2.615   6.368  0.00  0.00    -0.216 N 
ATOM     20  H   UNL     1       1.062  -3.561   6.505  0.00  0.00    +0.174 HD
BRANCH  19  21
ATOM     21  S   UNL     1       0.172  -1.493   6.975  0.00  0.00    +0.073 S 
ATOM     22  O   UNL     1       0.960  -0.503   7.623  0.00  0.00    -0.150 OA
ATOM     23  O   UNL     1      -0.847  -2.217   7.650  0.00  0.00    -0.150 OA
BRANCH  21  24
ATOM     24  C   UNL     1      -0.597  -0.704   5.600  0.00  0.00    +0.116 A 
ATOM     25  C   UNL     1      -0.407   0.626   5.380  0.00  0.00    +0.029 A 
ATOM     26  C   UNL     1      -1.007   1.267   4.299  0.00  0.00    +0.003 A 
ATOM     27  C   UNL     1      -1.800   0.580   3.429  0.00  0.00    +0.010 A 
ATOM     28  C   UNL     1      -2.013  -0.793   3.620  0.00  0.00    +0.005 A 
ATOM     29  C   UNL     1      -1.409  -1.445   4.724  0.00  0.00    +0.010 A 
ATOM     30  C   UNL     1      -1.627  -2.820   4.920  0.00  0.00    +0.010 A 
ATOM     31  C   UNL     1      -2.418  -3.513   4.056  0.00  0.00    +0.002 A 
ATOM     32  C   UNL     1      -3.022  -2.883   2.971  0.00  0.00    +0.024 A 
ATOM     33  C   UNL     1      -2.833  -1.536   2.744  0.00  0.00    +0.037 A 
BRANCH  33  34
ATOM     34  N   UNL     1      -3.443  -0.915   1.656  0.00  0.00    -0.336 N 
ATOM     35  C   UNL     1      -4.905  -1.032   1.734  0.00  0.00    +0.129 C 
ATOM     36  C   UNL     1      -2.938  -1.460   0.388  0.00  0.00    +0.129 C 
ENDBRANCH  33  34
ENDBRANCH  21  24
ENDBRANCH  19  21
ENDBRANCH   4  19
TORSDOF 7
