REMARK  Name = ZINC39665523
REMARK  10 active torsions:
REMARK  status: ('A' for Active; 'I' for Inactive)
REMARK    1  A    between atoms: C_1  and  C_2
REMARK    2  A    between atoms: C_6  and  C_8
REMARK    3  A    between atoms: C_12  and  C_21
REMARK    4  A    between atoms: N_23  and  C_24
REMARK    5  A    between atoms: C_24  and  C_25
REMARK    6  A    between atoms: C_25  and  C_27
REMARK    7  A    between atoms: C_25  and  O_28
REMARK    8  A    between atoms: O_28  and  C_29
REMARK    9  A    between atoms: C_32  and  O_35
REMARK   10  A    between atoms: O_35  and  C_36
REMARK                            x       y       z     vdW  Elec       q    Type
REMARK                         _______ _______ _______ _____ _____    ______ ____
ROOT
ATOM      1  C   UNL     1       0.072  -2.777   2.388  0.00  0.00    +0.247 C 
ATOM      2  O   UNL     1       0.017  -2.160   1.342  0.00  0.00    -0.270 OA
ATOM      3  N   UNL     1       0.175  -4.121   2.373  0.00  0.00    -0.296 N 
ATOM      4  C   UNL     1       0.310  -5.008   1.194  0.00  0.00    +0.121 C 
ATOM      5  C   UNL     1       1.318  -6.093   1.635  0.00  0.00    +0.100 C 
ATOM      6  C   UNL     1       1.226  -6.113   3.170  0.00  0.00    -0.004 C 
ATOM      7  C   UNL     1       0.185  -5.044   3.533  0.00  0.00    +0.115 C 
ATOM      8  C   UNL     1       2.576  -5.756   3.785  0.00  0.00    -0.010 C 
ATOM      9  C   UNL     1       2.474  -5.839   5.311  0.00  0.00    -0.082 C 
ATOM     10  N   UNL     1       2.079  -7.197   5.704  0.00  0.00    +0.379 N 
ATOM     11  C   UNL     1       0.739  -7.498   5.186  0.00  0.00    -0.082 C 
ATOM     12  C   UNL     1       0.767  -7.485   3.655  0.00  0.00    -0.010 C 
ATOM     13  H   UNL     1       2.740  -7.860   5.329  0.00  0.00    -0.086 HD
ATOM     14  H   UNL     1       2.072  -7.265   6.711  0.00  0.00    -0.086 HD
ENDROOT
BRANCH   1  20
ATOM     15  C   UNL     1       1.191   1.244   5.123  0.00  0.00    +0.044 C 
ATOM     16  C   UNL     1       0.563  -0.120   4.997  0.00  0.00    -0.050 A 
ATOM     17  C   UNL     1      -0.057  -0.698   6.090  0.00  0.00    +0.003 A 
ATOM     18  C   UNL     1      -0.636  -1.950   5.983  0.00  0.00    +0.001 A 
ATOM     19  C   UNL     1      -0.598  -2.631   4.783  0.00  0.00    +0.013 A 
ATOM     20  C   UNL     1       0.027  -2.053   3.677  0.00  0.00    +0.037 A 
ATOM     21  C   UNL     1       0.604  -0.787   3.790  0.00  0.00    +0.016 A 
ENDBRANCH   1  20
BRANCH   5  22
ATOM     22  C   UNL     1       2.712  -5.724   1.196  0.00  0.00    +0.218 C 
ATOM     23  O   UNL     1       3.054  -4.560   1.178  0.00  0.00    -0.275 OA
ATOM     24  N   UNL     1       3.578  -6.686   0.822  0.00  0.00    -0.312 N 
ATOM     25  H   UNL     1       3.304  -7.617   0.836  0.00  0.00    +0.149 HD
BRANCH  24  26
ATOM     26  C   UNL     1       4.932  -6.327   0.395  0.00  0.00    +0.148 C 
BRANCH  26  27
ATOM     27  C   UNL     1       5.704  -7.596   0.027  0.00  0.00    +0.187 C 
ATOM     28  C   UNL     1       7.154  -7.234  -0.299  0.00  0.00    +0.053 C 
BRANCH  27  29
ATOM     29  O   UNL     1       5.098  -8.209  -1.113  0.00  0.00    -0.488 OA
BRANCH  29  30
ATOM     30  C   UNL     1       5.298  -9.545  -1.274  0.00  0.00    +0.121 A 
ATOM     31  C   UNL     1       4.824 -10.184  -2.410  0.00  0.00    +0.049 A 
ATOM     32  C   UNL     1       5.027 -11.540  -2.575  0.00  0.00    +0.049 A 
ATOM     33  C   UNL     1       5.705 -12.263  -1.605  0.00  0.00    +0.120 A 
ATOM     34  C   UNL     1       6.180 -11.623  -0.469  0.00  0.00    +0.049 A 
ATOM     35  C   UNL     1       5.981 -10.266  -0.307  0.00  0.00    +0.049 A 
BRANCH  33  36
ATOM     36  O   UNL     1       5.904 -13.598  -1.766  0.00  0.00    -0.495 OA
ATOM     37  C   UNL     1       6.610 -14.279  -0.727  0.00  0.00    +0.277 C 
ENDBRANCH  33  36
ENDBRANCH  29  30
ENDBRANCH  27  29
ENDBRANCH  26  27
ENDBRANCH  24  26
ENDBRANCH   5  22
TORSDOF 7
