REMARK  Name = ZINC39354264
REMARK  9 active torsions:
REMARK  status: ('A' for Active; 'I' for Inactive)
REMARK    1  A    between atoms: C_1  and  C_2
REMARK    2  A    between atoms: C_2  and  O_3
REMARK    3  A    between atoms: O_3  and  C_4
REMARK    4  A    between atoms: C_4  and  C_6
REMARK    5  A    between atoms: C_9  and  N_12
REMARK    6  A    between atoms: C_13  and  C_15
REMARK    7  A    between atoms: C_15  and  C_16
REMARK    8  A    between atoms: N_22  and  N_23
REMARK    9  A    between atoms: C_24  and  C_25
REMARK                            x       y       z     vdW  Elec       q    Type
REMARK                         _______ _______ _______ _____ _____    ______ ____
ROOT
ATOM      1  C   UNL     1      -8.127  -7.507  -0.265  0.00  0.00    +0.149 C 
ATOM      2  C   UNL     1      -9.503  -8.141  -0.399  0.00  0.00    +0.233 C 
ATOM      3  O   UNL     1     -10.249  -7.929  -1.331  0.00  0.00    -0.274 OA
ATOM      4  N   UNL     1      -9.805  -8.950   0.608  0.00  0.00    -0.263 N 
ATOM      5  C   UNL     1      -8.950  -9.175   1.648  0.00  0.00    +0.183 C 
ATOM      6  N   UNL     1      -9.157  -9.963   2.700  0.00  0.00    -0.127 NA
ATOM      7  S   UNL     1      -7.581  -8.251   1.325  0.00  0.00    -0.075 S 
ATOM      8  H   UNL     1     -10.665  -9.398   0.605  0.00  0.00    +0.157 HD
ENDROOT
BRANCH   6   9
ATOM      9  N   UNL     1     -10.265 -10.614   2.811  0.00  0.00    -0.155 NA
ATOM     10  C   UNL     1     -10.470 -11.397   3.857  0.00  0.00    +0.141 C 
BRANCH  10  11
ATOM     11  C   UNL     1     -11.663 -12.098   3.976  0.00  0.00    +0.000 C 
ATOM     12  C   UNL     1     -12.040 -12.959   5.015  0.00  0.00    +0.004 A 
ATOM     13  C   UNL     1     -11.387 -13.371   6.194  0.00  0.00    +0.010 A 
ATOM     14  C   UNL     1     -12.007 -14.236   7.040  0.00  0.00    +0.001 A 
ATOM     15  C   UNL     1     -13.283 -14.732   6.772  0.00  0.00    +0.002 A 
ATOM     16  C   UNL     1     -13.967 -14.378   5.656  0.00  0.00    +0.026 A 
ATOM     17  C   UNL     1     -13.385 -13.479   4.727  0.00  0.00    +0.043 A 
ATOM     18  N   UNL     1     -13.836 -12.986   3.588  0.00  0.00    -0.380 N 
ATOM     19  C   UNL     1     -12.831 -12.086   3.015  0.00  0.00    +0.150 C 
ATOM     20  H   UNL     1     -14.700 -13.186   3.194  0.00  0.00    +0.160 HD
ENDBRANCH  10  11
ENDBRANCH   6   9
BRANCH   1  21
ATOM     21  C   UNL     1      -8.224  -5.984  -0.162  0.00  0.00    +0.120 C 
BRANCH  21  23
ATOM     22  N   UNL     1      -6.679  -4.063   0.043  0.00  0.00    -0.285 N 
ATOM     23  C   UNL     1      -6.840  -5.397  -0.058  0.00  0.00    +0.219 C 
ATOM     24  O   UNL     1      -5.870  -6.126  -0.067  0.00  0.00    -0.275 OA
ATOM     25  H   UNL     1      -7.454  -3.486   0.127  0.00  0.00    +0.155 HD
BRANCH  22  29
ATOM     26  C   UNL     1      -2.853  -2.417  -0.002  0.00  0.00    +0.059 A 
ATOM     27  C   UNL     1      -3.132  -3.562  -0.754  0.00  0.00    +0.017 A 
ATOM     28  C   UNL     1      -4.397  -4.104  -0.737  0.00  0.00    +0.024 A 
ATOM     29  C   UNL     1      -5.398  -3.512   0.028  0.00  0.00    +0.033 A 
ATOM     30  C   UNL     1      -5.124  -2.373   0.778  0.00  0.00    +0.024 A 
ATOM     31  C   UNL     1      -3.859  -1.829   0.770  0.00  0.00    +0.017 A 
BRANCH  26  32
ATOM     32  C   UNL     1      -1.498  -1.835  -0.018  0.00  0.00    +0.339 C 
ATOM     33  O   UNL     1      -1.256  -0.843   0.640  0.00  0.00    -0.245 OA
BRANCH  32  34
ATOM     34  O   UNL     1      -0.529  -2.402  -0.762  0.00  0.00    -0.461 OA
BRANCH  34  36
ATOM     35  C   UNL     1       1.720  -2.565  -1.630  0.00  0.00    +0.048 C 
ATOM     36  C   UNL     1       0.759  -1.785  -0.731  0.00  0.00    +0.229 C 
ENDBRANCH  34  36
ENDBRANCH  32  34
ENDBRANCH  26  32
ENDBRANCH  22  29
ENDBRANCH  21  23
ENDBRANCH   1  21
TORSDOF 8
