REMARK  Name = ZINC40317097
REMARK  14 active torsions:
REMARK  status: ('A' for Active; 'I' for Inactive)
REMARK    1  A    between atoms: C_1  and  C_2
REMARK    2  A    between atoms: C_2  and  C_3
REMARK    3  A    between atoms: C_3  and  O_4
REMARK    4  A    between atoms: O_4  and  C_5
REMARK    5  A    between atoms: C_8  and  C_11
REMARK    6  A    between atoms: C_11  and  N_12
REMARK    7  A    between atoms: N_12  and  C_13
REMARK    8  A    between atoms: N_12  and  C_19
REMARK    9  A    between atoms: C_13  and  C_14
REMARK   10  A    between atoms: C_19  and  C_20
REMARK   11  A    between atoms: C_20  and  C_22
REMARK   12  A    between atoms: C_20  and  O_31
REMARK   13  A    between atoms: C_22  and  O_23
REMARK   14  A    between atoms: O_23  and  C_24
REMARK                            x       y       z     vdW  Elec       q    Type
REMARK                         _______ _______ _______ _____ _____    ______ ____
ROOT
ATOM      1  N   UNL     1      -6.838  -4.919  -0.987  0.00  0.00    +0.389 N 
ATOM      2  H   UNL     1      -6.393  -5.609  -1.574  0.00  0.00    -0.081 HD
ENDROOT
BRANCH   1   3
ATOM      3  C   UNL     1      -5.930  -4.547   0.106  0.00  0.00    -0.042 C 
BRANCH   3   7
ATOM      4  C   UNL     1      -4.645  -8.072   2.153  0.00  0.00    +0.121 A 
ATOM      5  C   UNL     1      -3.993  -7.661   1.000  0.00  0.00    +0.046 A 
ATOM      6  C   UNL     1      -4.410  -6.522   0.340  0.00  0.00    +0.005 A 
ATOM      7  C   UNL     1      -5.477  -5.790   0.828  0.00  0.00    -0.064 A 
ATOM      8  C   UNL     1      -6.129  -6.197   1.978  0.00  0.00    +0.005 A 
ATOM      9  C   UNL     1      -5.719  -7.339   2.638  0.00  0.00    +0.046 A 
BRANCH   4  10
ATOM     10  O   UNL     1      -4.237  -9.193   2.804  0.00  0.00    -0.492 OA
BRANCH  10  11
ATOM     11  C   UNL     1      -3.055  -9.832   2.316  0.00  0.00    +0.229 C 
BRANCH  11  13
ATOM     12  C   UNL     1      -1.423 -11.680   2.716  0.00  0.00    +0.007 C 
ATOM     13  C   UNL     1      -2.688 -10.996   3.238  0.00  0.00    +0.038 C 
ENDBRANCH  11  13
ENDBRANCH  10  11
ENDBRANCH   4  10
ENDBRANCH   3   7
ENDBRANCH   1   3
BRANCH   1  14
ATOM     14  C   UNL     1      -7.157  -3.728  -1.785  0.00  0.00    -0.003 C 
BRANCH  14  15
ATOM     15  C   UNL     1      -5.886  -3.141  -2.341  0.00  0.00    +0.089 A 
ATOM     16  C   UNL     1      -5.349  -3.421  -3.543  0.00  0.00    +0.042 A 
ATOM     17  C   UNL     1      -4.168  -2.653  -3.653  0.00  0.00    +0.041 A 
ATOM     18  C   UNL     1      -4.053  -1.949  -2.512  0.00  0.00    +0.195 A 
ATOM     19  O   UNL     1      -5.099  -2.244  -1.724  0.00  0.00    -0.470 OA
ENDBRANCH  14  15
ENDBRANCH   1  14
BRANCH   1  20
ATOM     20  C   UNL     1      -8.076  -5.479  -0.427  0.00  0.00    -0.043 C 
BRANCH  20  21
ATOM     21  C   UNL     1      -8.925  -6.070  -1.554  0.00  0.00    +0.135 C 
BRANCH  21  22
ATOM     22  O   UNL     1      -9.417  -5.015  -2.383  0.00  0.00    -0.390 OA
ATOM     23  H   UNL     1      -9.969  -4.373  -1.916  0.00  0.00    +0.210 HD
ENDBRANCH  21  22
BRANCH  21  24
ATOM     24  C   UNL     1     -10.103  -6.840  -0.956  0.00  0.00    +0.258 C 
BRANCH  24  25
ATOM     25  O   UNL     1     -10.829  -7.488  -2.002  0.00  0.00    -0.488 OA
BRANCH  25  26
ATOM     26  C   UNL     1     -11.915  -8.221  -1.637  0.00  0.00    +0.135 A 
ATOM     27  C   UNL     1     -12.277  -8.309  -0.301  0.00  0.00    +0.047 A 
ATOM     28  C   UNL     1     -13.380  -9.054   0.067  0.00  0.00    +0.004 A 
ATOM     29  C   UNL     1     -14.124  -9.712  -0.895  0.00  0.00    +0.001 A 
ATOM     30  C   UNL     1     -13.766  -9.626  -2.228  0.00  0.00    +0.019 A 
ATOM     31  C   UNL     1     -12.666  -8.877  -2.602  0.00  0.00    +0.059 A 
ATOM     32 BR   UNL     1     -12.182  -8.753  -4.426  0.00  0.00    -0.047 Br
ENDBRANCH  25  26
ENDBRANCH  24  25
ENDBRANCH  21  24
ENDBRANCH  20  21
ENDBRANCH   1  20
TORSDOF 13
