REMARK  Name = ZINC59507067
REMARK  3 active torsions:
REMARK  status: ('A' for Active; 'I' for Inactive)
REMARK    1  A    between atoms: C_1  and  C_2
REMARK    2  A    between atoms: C_7  and  N_8
REMARK    3  A    between atoms: C_9  and  C_20
REMARK                            x       y       z     vdW  Elec       q    Type
REMARK                         _______ _______ _______ _____ _____    ______ ____
ROOT
ATOM      1  N   UNL     1       0.134   0.114   2.618  0.00  0.00    -0.244 N 
ATOM      2  C   UNL     1      -1.246   0.413   3.002  0.00  0.00    +0.198 C 
ATOM      3  N   UNL     1      -1.318   1.722   3.661  0.00  0.00    -0.321 N 
ATOM      4  C   UNL     1      -0.348   2.053   4.601  0.00  0.00    +0.041 A 
ATOM      5  C   UNL     1      -0.615   2.917   5.650  0.00  0.00    +0.024 A 
ATOM      6  C   UNL     1       0.384   3.225   6.553  0.00  0.00    +0.002 A 
ATOM      7  C   UNL     1       1.650   2.675   6.418  0.00  0.00    +0.001 A 
ATOM      8  C   UNL     1       1.931   1.810   5.382  0.00  0.00    +0.015 A 
ATOM      9  C   UNL     1       0.931   1.487   4.466  0.00  0.00    +0.058 A 
ATOM     10  C   UNL     1       1.174   0.543   3.360  0.00  0.00    +0.254 C 
ATOM     11  O   UNL     1       2.302   0.159   3.117  0.00  0.00    -0.270 OA
ATOM     12  H   UNL     1      -2.029   2.346   3.445  0.00  0.00    +0.148 HD
ENDROOT
BRANCH   1  19
ATOM     13  C   UNL     1       0.508   1.507   0.165  0.00  0.00    +0.045 C 
ATOM     14  C   UNL     1       0.566   0.003   0.244  0.00  0.00    -0.029 A 
ATOM     15  C   UNL     1       0.813  -0.741  -0.893  0.00  0.00    +0.005 A 
ATOM     16  C   UNL     1       0.866  -2.120  -0.821  0.00  0.00    +0.000 A 
ATOM     17  C   UNL     1       0.674  -2.761   0.390  0.00  0.00    +0.002 A 
ATOM     18  C   UNL     1       0.427  -2.023   1.531  0.00  0.00    +0.024 A 
ATOM     19  C   UNL     1       0.378  -0.636   1.463  0.00  0.00    +0.042 A 
ENDBRANCH   1  19
BRANCH   2  20
ATOM     20  C   UNL     1      -1.741  -0.647   3.951  0.00  0.00    -0.009 A 
ATOM     21  C   UNL     1      -2.908  -1.333   3.672  0.00  0.00    +0.008 A 
ATOM     22  C   UNL     1      -3.363  -2.307   4.542  0.00  0.00    +0.015 A 
ATOM     23  C   UNL     1      -2.649  -2.594   5.691  0.00  0.00    +0.018 A 
ATOM     24  C   UNL     1      -1.481  -1.907   5.970  0.00  0.00    +0.015 A 
ATOM     25  C   UNL     1      -1.025  -0.938   5.097  0.00  0.00    +0.008 A 
ATOM     26 BR   UNL     1      -3.271  -3.925   6.882  0.00  0.00    -0.050 Br
ENDBRANCH   2  20
TORSDOF 2
