REMARK  Name = ZINC12564176
REMARK  12 active torsions:
REMARK  status: ('A' for Active; 'I' for Inactive)
REMARK    1  A    between atoms: C_1  and  C_2
REMARK    2  A    between atoms: C_2  and  C_3
REMARK    3  A    between atoms: C_3  and  C_4
REMARK    4  A    between atoms: C_3  and  C_6
REMARK    5  A    between atoms: C_4  and  C_5
REMARK    6  A    between atoms: C_6  and  C_8
REMARK    7  A    between atoms: C_6  and  N_54
REMARK    8  A    between atoms: C_8  and  N_9
REMARK    9  A    between atoms: N_9  and  C_10
REMARK   10  A    between atoms: C_21  and  C_24
REMARK   11  A    between atoms: C_28  and  N_54
REMARK   12  A    between atoms: C_29  and  N_54
REMARK                            x       y       z     vdW  Elec       q    Type
REMARK                         _______ _______ _______ _____ _____    ______ ____
ROOT
ATOM      1  C   UNL     1      -4.242   3.832   7.103  0.00  0.00    +0.071 A 
ATOM      2  C   UNL     1      -3.813   4.715   6.089  0.00  0.00    +0.158 A 
ATOM      3  N   UNL     1      -3.276   4.253   4.995  0.00  0.00    -0.168 NA
ATOM      4  N   UNL     1      -3.122   2.877   4.793  0.00  0.00    -0.177 N 
ATOM      5  C   UNL     1      -3.518   1.998   5.734  0.00  0.00    +0.293 A 
ATOM      6  O   UNL     1      -3.376   0.799   5.553  0.00  0.00    -0.264 OA
ATOM      7  C   UNL     1      -4.093   2.469   6.923  0.00  0.00    +0.129 A 
ATOM      8 CL   UNL     1      -4.611   1.357   8.151  0.00  0.00    -0.076 Cl
ATOM      9  C   UNL     1      -2.548   2.412   3.608  0.00  0.00    +0.158 A 
ATOM     10  C   UNL     1      -2.139   3.320   2.638  0.00  0.00    +0.049 A 
ATOM     11  C   UNL     1      -1.567   2.845   1.470  0.00  0.00    +0.017 A 
ATOM     12  C   UNL     1      -1.433   1.473   1.310  0.00  0.00    +0.073 A 
ATOM     13  C   UNL     1      -1.861   0.629   2.316  0.00  0.00    +0.125 A 
ATOM     14  N   UNL     1      -2.398   1.111   3.420  0.00  0.00    -0.235 NA
ENDROOT
BRANCH  12  15
ATOM     15  C   UNL     1      -0.820   0.910   0.053  0.00  0.00    +0.419 C 
ATOM     16  F   UNL     1      -0.790  -0.486   0.134  0.00  0.00    -0.166 F 
ATOM     17  F   UNL     1       0.484   1.397  -0.088  0.00  0.00    -0.166 F 
ATOM     18  F   UNL     1      -1.584   1.297  -1.053  0.00  0.00    -0.166 F 
ENDBRANCH  12  15
BRANCH   1  19
ATOM     19  N   UNL     1      -4.808   4.326   8.267  0.00  0.00    -0.343 N 
ATOM     20  H   UNL     1      -5.101   3.715   8.960  0.00  0.00    +0.146 HD
BRANCH  19  21
ATOM     21  C   UNL     1      -4.962   5.771   8.450  0.00  0.00    +0.086 C 
BRANCH  21  22
ATOM     22  C   UNL     1      -5.608   6.047   9.809  0.00  0.00    -0.049 C 
BRANCH  22  25
ATOM     23  C   UNL     1      -3.710   6.269  11.296  0.00  0.00    -0.096 C 
ATOM     24  C   UNL     1      -5.664   5.029  12.006  0.00  0.00    -0.096 C 
ATOM     25  N   UNL     1      -4.805   5.380  10.856  0.00  0.00    +0.379 N 
ATOM     26  H   UNL     1      -4.399   4.520  10.468  0.00  0.00    -0.082 HD
ENDBRANCH  22  25
BRANCH  22  27
ATOM     27  C   UNL     1      -5.655   7.556  10.055  0.00  0.00    -0.024 C 
BRANCH  27  29
ATOM     28  C   UNL     1      -6.359   9.753   9.095  0.00  0.00    +0.004 C 
ATOM     29  C   UNL     1      -6.410   8.235   8.910  0.00  0.00    -0.002 C 
ENDBRANCH  27  29
BRANCH  27  30
ATOM     30  C   UNL     1      -6.375   7.835  11.376  0.00  0.00    -0.002 C 
ATOM     31  C   UNL     1      -7.743   7.151  11.366  0.00  0.00    +0.004 C 
ENDBRANCH  27  30
ENDBRANCH  22  27
ENDBRANCH  21  22
ENDBRANCH  19  21
ENDBRANCH   1  19
TORSDOF 8
