REMARK  Name = ZINC14470511
REMARK  7 active torsions:
REMARK  status: ('A' for Active; 'I' for Inactive)
REMARK    1  A    between atoms: C_1  and  N_2
REMARK    2  A    between atoms: N_2  and  C_3
REMARK    3  A    between atoms: N_2  and  S_10
REMARK    4  A    between atoms: C_3  and  C_4
REMARK    5  A    between atoms: S_10  and  C_13
REMARK    6  A    between atoms: C_26  and  C_29
REMARK    7  A    between atoms: C_33  and  N_35
REMARK                            x       y       z     vdW  Elec       q    Type
REMARK                         _______ _______ _______ _____ _____    ______ ____
ROOT
ATOM      1  C   UNL     1       0.527   2.487   1.738  0.00  0.00    +0.106 A 
ATOM      2  C   UNL     1      -0.837   2.514   1.510  0.00  0.00    +0.030 A 
ATOM      3  C   UNL     1      -1.694   2.886   2.527  0.00  0.00    +0.025 A 
ATOM      4  C   UNL     1      -1.184   3.243   3.769  0.00  0.00    +0.031 A 
ATOM      5  C   UNL     1       0.183   3.222   4.001  0.00  0.00    -0.018 A 
ATOM      6  C   UNL     1       1.033   2.841   2.972  0.00  0.00    +0.034 A 
ATOM      7  C   UNL     1       0.776   3.596   5.322  0.00  0.00    +0.049 C 
ATOM      8  C   UNL     1       1.236   2.376   6.084  0.00  0.00    -0.023 C 
ATOM      9  C   UNL     1       1.022   2.535   7.368  0.00  0.00    -0.030 C 
ATOM     10  C   UNL     1       0.396   3.890   7.637  0.00  0.00    +0.033 C 
ATOM     11  C   UNL     1      -0.240   4.257   6.273  0.00  0.00    +0.029 C 
ATOM     12  C   UNL     1      -1.587   3.534   6.183  0.00  0.00    +0.105 C 
ATOM     13  N   UNL     1      -2.066   3.593   4.798  0.00  0.00    -0.336 N 
ATOM     14  H   UNL     1      -2.972   3.877   4.596  0.00  0.00    +0.147 HD
ENDROOT
BRANCH  12  15
ATOM     15  C   UNL     1      -1.417   2.096   6.597  0.00  0.00    -0.025 A 
ATOM     16  C   UNL     1      -1.096   1.138   5.653  0.00  0.00    +0.007 A 
ATOM     17  C   UNL     1      -0.939  -0.182   6.032  0.00  0.00    +0.022 A 
ATOM     18  C   UNL     1      -1.104  -0.544   7.357  0.00  0.00    +0.071 A 
ATOM     19  C   UNL     1      -1.424   0.414   8.302  0.00  0.00    +0.145 A 
ATOM     20  C   UNL     1      -1.575   1.735   7.922  0.00  0.00    +0.039 A 
ATOM     21 CL   UNL     1      -0.906  -2.202   7.835  0.00  0.00    -0.081 Cl
BRANCH  19  22
ATOM     22  N   UNL     1      -1.600   0.027   9.720  0.00  0.00    +0.058 N 
ATOM     23  O   UNL     1      -1.882   0.872  10.551  0.00  0.00    -0.126 OA
ATOM     24  O   UNL     1      -1.461  -1.135  10.055  0.00  0.00    -0.126 OA
ENDBRANCH  19  22
ENDBRANCH  12  15
BRANCH   1  25
ATOM     25  S   UNL     1       1.623   2.007   0.445  0.00  0.00    +0.061 S 
ATOM     26  O   UNL     1       2.909   2.498   0.800  0.00  0.00    -0.153 OA
ATOM     27  O   UNL     1       0.986   2.353  -0.777  0.00  0.00    -0.153 OA
BRANCH  25  29
ATOM     28  C   UNL     1       2.808  -0.301   1.209  0.00  0.00    +0.132 C 
ATOM     29  N   UNL     1       1.722   0.354   0.476  0.00  0.00    -0.175 NA
BRANCH  29  30
ATOM     30  C   UNL     1       0.723  -0.452  -0.230  0.00  0.00    +0.144 C 
BRANCH  30  31
ATOM     31  C   UNL     1       1.255  -0.835  -1.587  0.00  0.00    -0.032 A 
ATOM     32  C   UNL     1       0.936  -0.071  -2.695  0.00  0.00    +0.005 A 
ATOM     33  C   UNL     1       1.427  -0.419  -3.939  0.00  0.00    +0.000 A 
ATOM     34  C   UNL     1       2.229  -1.537  -4.078  0.00  0.00    +0.000 A 
ATOM     35  C   UNL     1       2.545  -2.303  -2.971  0.00  0.00    +0.000 A 
ATOM     36  C   UNL     1       2.057  -1.952  -1.726  0.00  0.00    +0.005 A 
ENDBRANCH  30  31
ENDBRANCH  29  30
ENDBRANCH  25  29
ENDBRANCH   1  25
TORSDOF 6
