REMARK  Name = ZINC18142675
REMARK  12 active torsions:
REMARK  status: ('A' for Active; 'I' for Inactive)
REMARK    1  A    between atoms: C_1  and  O_2
REMARK    2  A    between atoms: O_2  and  C_3
REMARK    3  A    between atoms: C_6  and  C_11
REMARK    4  A    between atoms: C_8  and  O_9
REMARK    5  A    between atoms: O_9  and  C_10
REMARK    6  A    between atoms: C_16  and  C_26
REMARK    7  A    between atoms: C_28  and  O_36
REMARK    8  A    between atoms: C_29  and  O_34
REMARK    9  A    between atoms: C_30  and  O_32
REMARK   10  A    between atoms: O_32  and  C_33
REMARK   11  A    between atoms: O_34  and  C_35
REMARK   12  A    between atoms: O_36  and  C_37
REMARK                            x       y       z     vdW  Elec       q    Type
REMARK                         _______ _______ _______ _____ _____    ______ ____
ROOT
ATOM      1  C   UNL     1      -0.983   2.128   8.731  0.00  0.00    +0.032 C 
ATOM      2  C   UNL     1      -0.359   0.823   9.222  0.00  0.00    +0.059 C 
ATOM      3  C   UNL     1       0.457   0.186   8.111  0.00  0.00    +0.017 C 
ATOM      4  C   UNL     1       1.081   0.950   7.197  0.00  0.00    +0.036 C 
ATOM      5  C   UNL     1       1.925   0.449   6.051  0.00  0.00    +0.136 C 
ATOM      6  N   UNL     1       2.260  -0.958   6.120  0.00  0.00    -0.331 N 
ATOM      7  C   UNL     1       1.270  -1.936   6.035  0.00  0.00    +0.049 A 
ATOM      8  C   UNL     1       1.183  -2.785   4.944  0.00  0.00    +0.025 A 
ATOM      9  C   UNL     1       0.117  -3.662   4.848  0.00  0.00    +0.002 A 
ATOM     10  C   UNL     1      -0.853  -3.695   5.833  0.00  0.00    +0.002 A 
ATOM     11  C   UNL     1      -0.757  -2.864   6.936  0.00  0.00    +0.025 A 
ATOM     12  C   UNL     1       0.318  -1.998   7.042  0.00  0.00    +0.052 A 
ATOM     13  N   UNL     1       0.501  -1.170   8.143  0.00  0.00    -0.316 N 
ATOM     14  C   UNL     1       0.975   2.360   7.256  0.00  0.00    +0.163 C 
ATOM     15  O   UNL     1       1.565   3.028   6.430  0.00  0.00    -0.292 OA
ATOM     16  C   UNL     1       0.159   3.058   8.303  0.00  0.00    +0.088 C 
ATOM     17  H   UNL     1       3.187  -1.224   6.226  0.00  0.00    +0.147 HD
ATOM     18  H   UNL     1       0.672  -1.593   8.999  0.00  0.00    +0.152 HD
ENDROOT
BRANCH   1  22
ATOM     19  C   UNL     1      -3.218   3.944  11.893  0.00  0.00    +0.161 A 
ATOM     20  C   UNL     1      -1.860   3.713  12.044  0.00  0.00    +0.049 A 
ATOM     21  C   UNL     1      -1.140   3.126  11.021  0.00  0.00    +0.008 A 
ATOM     22  C   UNL     1      -1.772   2.768   9.844  0.00  0.00    -0.040 A 
ATOM     23  C   UNL     1      -3.126   3.000   9.684  0.00  0.00    +0.053 A 
ATOM     24  C   UNL     1      -3.854   3.584  10.709  0.00  0.00    +0.162 A 
BRANCH  19  26
ATOM     25  C   UNL     1      -3.209   4.865  14.085  0.00  0.00    +0.277 C 
ATOM     26  O   UNL     1      -3.928   4.522  12.899  0.00  0.00    -0.491 OA
ENDBRANCH  19  26
BRANCH  24  27
ATOM     27  O   UNL     1      -5.186   3.808  10.555  0.00  0.00    -0.491 OA
ATOM     28  C   UNL     1      -5.772   3.413   9.313  0.00  0.00    +0.277 C 
ENDBRANCH  24  27
ENDBRANCH   1  22
BRANCH   5  29
ATOM     29  C   UNL     1       1.181   0.699   4.764  0.00  0.00    -0.016 A 
ATOM     30  C   UNL     1       1.737   1.510   3.793  0.00  0.00    +0.055 A 
ATOM     31  C   UNL     1       1.056   1.742   2.608  0.00  0.00    +0.165 A 
ATOM     32  C   UNL     1      -0.188   1.160   2.398  0.00  0.00    +0.204 A 
ATOM     33  C   UNL     1      -0.747   0.350   3.379  0.00  0.00    +0.165 A 
ATOM     34  C   UNL     1      -0.057   0.118   4.559  0.00  0.00    +0.055 A 
BRANCH  33  35
ATOM     35  O   UNL     1      -1.966  -0.218   3.181  0.00  0.00    -0.491 OA
ATOM     36  C   UNL     1      -2.523  -0.958   4.270  0.00  0.00    +0.277 C 
ENDBRANCH  33  35
BRANCH  32  37
ATOM     37  O   UNL     1      -0.861   1.386   1.236  0.00  0.00    -0.488 OA
ATOM     38  C   UNL     1      -0.618   0.480   0.159  0.00  0.00    +0.277 C 
ENDBRANCH  32  37
BRANCH  31  39
ATOM     39  O   UNL     1       1.605   2.539   1.652  0.00  0.00    -0.491 OA
ATOM     40  C   UNL     1       2.886   3.104   1.936  0.00  0.00    +0.277 C 
ENDBRANCH  31  39
ENDBRANCH   5  29
TORSDOF 7
