REMARK  Name = ZINC33258606
REMARK  9 active torsions:
REMARK  status: ('A' for Active; 'I' for Inactive)
REMARK    1  A    between atoms: C_1  and  C_2
REMARK    2  A    between atoms: C_5  and  O_32
REMARK    3  A    between atoms: C_6  and  N_8
REMARK    4  A    between atoms: C_9  and  C_11
REMARK    5  A    between atoms: N_13  and  C_17
REMARK    6  A    between atoms: C_15  and  C_16
REMARK    7  A    between atoms: C_20  and  C_23
REMARK    8  A    between atoms: C_25  and  C_28
REMARK    9  A    between atoms: O_32  and  C_33
REMARK                            x       y       z     vdW  Elec       q    Type
REMARK                         _______ _______ _______ _____ _____    ______ ____
ROOT
ATOM      1  C   UNL     1       8.175  10.197   1.490  0.00  0.00    +0.078 A 
ATOM      2  C   UNL     1       7.432   9.155   0.972  0.00  0.00    +0.127 A 
ATOM      3  N   UNL     1       6.768   8.587   1.996  0.00  0.00    -0.239 N 
ATOM      4  N   UNL     1       7.088   9.279   3.170  0.00  0.00    -0.171 NA
ATOM      5  C   UNL     1       7.928  10.235   2.881  0.00  0.00    +0.072 A 
ATOM      6  C   UNL     1       8.527  11.212   3.860  0.00  0.00    +0.068 C 
ENDROOT
BRANCH   3   7
ATOM      7  C   UNL     1       5.899   7.494   1.902  0.00  0.00    +0.065 A 
ATOM      8  C   UNL     1       5.274   7.003   3.043  0.00  0.00    +0.028 A 
ATOM      9  C   UNL     1       4.419   5.927   2.953  0.00  0.00    +0.014 A 
ATOM     10  C   UNL     1       4.179   5.329   1.716  0.00  0.00    +0.023 A 
ATOM     11  C   UNL     1       4.811   5.820   0.574  0.00  0.00    +0.014 A 
ATOM     12  C   UNL     1       5.662   6.900   0.668  0.00  0.00    +0.028 A 
BRANCH  10  13
ATOM     13  C   UNL     1       3.259   4.170   1.617  0.00  0.00    +0.202 A 
ATOM     14  N   UNL     1       2.936   3.496   0.489  0.00  0.00    -0.191 NA
ATOM     15  C   UNL     1       2.101   2.560   0.867  0.00  0.00    +0.231 A 
ATOM     16  O   UNL     1       1.936   2.688   2.187  0.00  0.00    -0.337 OA
ATOM     17  N   UNL     1       2.608   3.609   2.602  0.00  0.00    -0.056 NA
BRANCH  15  18
ATOM     18  C   UNL     1       1.445   1.534  -0.022  0.00  0.00    +0.078 C 
ATOM     19  C   UNL     1      -0.091   1.603  -0.012  0.00  0.00    +0.013 C 
ATOM     20  C   UNL     1      -0.082   0.066  -0.019  0.00  0.00    +0.001 C 
ATOM     21  C   UNL     1       1.309   0.149   0.632  0.00  0.00    +0.013 C 
ENDBRANCH  15  18
ENDBRANCH  10  13
ENDBRANCH   3   7
BRANCH   1  23
ATOM     22  N   UNL     1       9.199  10.949  -0.599  0.00  0.00    -0.278 N 
ATOM     23  C   UNL     1       9.059  11.102   0.733  0.00  0.00    +0.252 C 
ATOM     24  O   UNL     1       9.661  11.986   1.310  0.00  0.00    -0.270 OA
ATOM     25  H   UNL     1       8.727  10.095  -1.107  0.00  0.00    +0.155 HD
BRANCH  22  31
ATOM     26  C   UNL     1      11.023  15.490  -1.075  0.00  0.00    +0.044 C 
ATOM     27  C   UNL     1      10.846  14.085  -1.591  0.00  0.00    -0.048 A 
ATOM     28  C   UNL     1      11.421  13.713  -2.792  0.00  0.00    +0.007 A 
ATOM     29  C   UNL     1      11.263  12.426  -3.270  0.00  0.00    +0.048 A 
ATOM     30  C   UNL     1      10.525  11.504  -2.546  0.00  0.00    +0.141 A 
ATOM     31  C   UNL     1       9.945  11.877  -1.335  0.00  0.00    +0.076 A 
ATOM     32  C   UNL     1      10.105  13.172  -0.865  0.00  0.00    +0.030 A 
BRANCH  30  33
ATOM     33  O   UNL     1      10.368  10.237  -3.015  0.00  0.00    -0.493 OA
ATOM     34  C   UNL     1      10.990   9.926  -4.263  0.00  0.00    +0.277 C 
ENDBRANCH  30  33
ENDBRANCH  22  31
ENDBRANCH   1  23
TORSDOF 6
