REMARK  Name = ZINC40467113
REMARK  4 active torsions:
REMARK  status: ('A' for Active; 'I' for Inactive)
REMARK    1  A    between atoms: C_1  and  C_2
REMARK    2  A    between atoms: C_6  and  N_8
REMARK    3  A    between atoms: N_10  and  C_22
REMARK    4  A    between atoms: C_14  and  C_15
REMARK                            x       y       z     vdW  Elec       q    Type
REMARK                         _______ _______ _______ _____ _____    ______ ____
ROOT
ATOM      1  N   UNL     1      -1.008  -2.269   2.408  0.00  0.00    -0.206 NA
ATOM      2  C   UNL     1      -0.480  -1.884   3.551  0.00  0.00    +0.174 C 
ATOM      3  N   UNL     1       0.283  -0.766   3.809  0.00  0.00    -0.214 N 
ATOM      4  C   UNL     1       0.738  -0.528   5.028  0.00  0.00    +0.263 C 
ATOM      5  O   UNL     1       1.414   0.455   5.274  0.00  0.00    -0.269 OA
ATOM      6  C   UNL     1       0.392  -1.503   6.074  0.00  0.00    +0.080 C 
ATOM      7  C   UNL     1       0.721  -1.505   7.397  0.00  0.00    +0.046 C 
ATOM      8  S   UNL     1      -0.585  -2.678   5.147  0.00  0.00    -0.048 S 
ENDROOT
BRANCH   1  14
ATOM      9  C   UNL     1       1.544  -1.171  -1.468  0.00  0.00    +0.065 C 
ATOM     10  C   UNL     1       0.343  -0.933  -0.590  0.00  0.00    +0.041 A 
ATOM     11  C   UNL     1      -0.567   0.048  -0.932  0.00  0.00    +0.023 A 
ATOM     12  C   UNL     1      -1.674   0.266  -0.121  0.00  0.00    +0.005 A 
ATOM     13  C   UNL     1      -1.829  -0.514   1.009  0.00  0.00    +0.048 A 
ATOM     14  C   UNL     1      -0.870  -1.491   1.297  0.00  0.00    +0.155 A 
ATOM     15  N   UNL     1       0.173  -1.669   0.491  0.00  0.00    -0.233 NA
ENDBRANCH   1  14
BRANCH   7  16
ATOM     16  C   UNL     1       0.976  -0.284   8.065  0.00  0.00    +0.040 A 
ATOM     17  C   UNL     1       1.466  -0.142   9.351  0.00  0.00    +0.027 A 
ATOM     18  C   UNL     1       1.563   1.230   9.604  0.00  0.00    +0.019 A 
ATOM     19  C   UNL     1       1.141   1.889   8.498  0.00  0.00    +0.083 A 
ATOM     20  N   UNL     1       0.787   0.980   7.552  0.00  0.00    -0.361 N 
ATOM     21  H   UNL     1       0.454   1.187   6.665  0.00  0.00    +0.165 HD
ENDBRANCH   7  16
BRANCH   3  22
ATOM     22  C   UNL     1       0.581   0.127   2.771  0.00  0.00    +0.043 A 
ATOM     23  C   UNL     1      -0.241   1.221   2.537  0.00  0.00    +0.024 A 
ATOM     24  C   UNL     1       0.056   2.099   1.513  0.00  0.00    +0.002 A 
ATOM     25  C   UNL     1       1.169   1.889   0.721  0.00  0.00    +0.000 A 
ATOM     26  C   UNL     1       1.990   0.800   0.952  0.00  0.00    +0.002 A 
ATOM     27  C   UNL     1       1.702  -0.078   1.978  0.00  0.00    +0.024 A 
ENDBRANCH   3  22
TORSDOF 3
