REMARK  Name = ZINC39592981
REMARK  6 active torsions:
REMARK  status: ('A' for Active; 'I' for Inactive)
REMARK    1  A    between atoms: C_1  and  C_2
REMARK    2  A    between atoms: C_2  and  O_3
REMARK    3  A    between atoms: O_3  and  C_4
REMARK    4  A    between atoms: C_8  and  C_10
REMARK    5  A    between atoms: C_13  and  C_19
REMARK    6  A    between atoms: C_22  and  C_25
REMARK                            x       y       z     vdW  Elec       q    Type
REMARK                         _______ _______ _______ _____ _____    ______ ____
ROOT
ATOM      1  C   UNL     1       2.209  -4.262  -3.800  0.00  0.00    +0.130 C 
ATOM      2  N   UNL     1       2.399  -5.510  -4.122  0.00  0.00    -0.168 NA
ATOM      3  N   UNL     1       3.069  -5.865  -5.287  0.00  0.00    -0.175 N 
ATOM      4  C   UNL     1       3.486  -7.099  -6.002  0.00  0.00    +0.230 C 
ATOM      5  N   UNL     1       4.175  -6.611  -7.206  0.00  0.00    -0.242 N 
ATOM      6  N   UNL     1       4.130  -5.214  -7.139  0.00  0.00    -0.161 NA
ATOM      7  C   UNL     1       3.520  -4.818  -6.080  0.00  0.00    +0.201 C 
ATOM      8  S   UNL     1       2.975  -3.393  -5.158  0.00  0.00    -0.029 S 
ATOM      9  H   UNL     1       4.580  -7.149  -7.904  0.00  0.00    +0.170 HD
ENDROOT
BRANCH   1  14
ATOM     10  C   UNL     1       0.777  -1.810  -1.336  0.00  0.00    +0.121 A 
ATOM     11  C   UNL     1       0.242  -2.668  -0.385  0.00  0.00    +0.045 A 
ATOM     12  C   UNL     1       0.346  -4.037  -0.545  0.00  0.00    +0.004 A 
ATOM     13  C   UNL     1       0.984  -4.560  -1.652  0.00  0.00    +0.011 A 
ATOM     14  C   UNL     1       1.525  -3.705  -2.613  0.00  0.00    +0.012 A 
ATOM     15  C   UNL     1       1.413  -2.324  -2.453  0.00  0.00    +0.056 A 
BRANCH  10  16
ATOM     16  O   UNL     1       0.671  -0.465  -1.174  0.00  0.00    -0.492 OA
BRANCH  16  18
ATOM     17  C   UNL     1      -0.019   1.526   0.010  0.00  0.00    +0.048 C 
ATOM     18  C   UNL     1       0.002  -0.004   0.002  0.00  0.00    +0.225 C 
ENDBRANCH  16  18
ENDBRANCH  10  16
ENDBRANCH   1  14
BRANCH   4  19
ATOM     19  C   UNL     1       2.262  -7.933  -6.385  0.00  0.00    +0.194 C 
ATOM     20  C   UNL     1       2.685  -9.227  -7.058  0.00  0.00    +0.035 C 
ATOM     21  C   UNL     1       2.142  -9.143  -8.288  0.00  0.00    +0.091 C 
ATOM     22  N   UNL     1       1.460  -7.976  -8.427  0.00  0.00    -0.154 NA
ATOM     23  N   UNL     1       1.473  -7.252  -7.425  0.00  0.00    -0.176 NA
BRANCH  21  24
ATOM     24  C   UNL     1       2.272 -10.178  -9.343  0.00  0.00    +0.002 A 
ATOM     25  C   UNL     1       2.993 -11.344  -9.094  0.00  0.00    +0.011 A 
ATOM     26  C   UNL     1       3.111 -12.304 -10.078  0.00  0.00    +0.020 A 
ATOM     27  C   UNL     1       2.515 -12.109 -11.312  0.00  0.00    +0.041 A 
ATOM     28  C   UNL     1       1.798 -10.953 -11.565  0.00  0.00    +0.020 A 
ATOM     29  C   UNL     1       1.669  -9.990 -10.585  0.00  0.00    +0.011 A 
ATOM     30 CL   UNL     1       2.668 -13.320 -12.547  0.00  0.00    -0.084 Cl
ENDBRANCH  21  24
ENDBRANCH   4  19
TORSDOF 5
