REMARK  Name = ZINC20150763
REMARK  8 active torsions:
REMARK  status: ('A' for Active; 'I' for Inactive)
REMARK    1  A    between atoms: C_1  and  O_2
REMARK    2  A    between atoms: O_2  and  C_3
REMARK    3  A    between atoms: C_3  and  C_5
REMARK    4  A    between atoms: C_5  and  C_33
REMARK    5  A    between atoms: C_10  and  C_13
REMARK    6  A    between atoms: N_20  and  C_23
REMARK    7  A    between atoms: C_33  and  C_34
REMARK    8  A    between atoms: C_37  and  O_40
REMARK                            x       y       z     vdW  Elec       q    Type
REMARK                         _______ _______ _______ _____ _____    ______ ____
ROOT
ATOM      1  C   UNL     1       0.657  -2.104  -1.120  0.00  0.00    +0.133 C 
ATOM      2  C   UNL     1       1.904  -2.556  -1.873  0.00  0.00    +0.121 C 
ATOM      3  C   UNL     1       2.944  -2.259  -0.727  0.00  0.00    +0.112 C 
ATOM      4  C   UNL     1       2.334  -2.875   0.458  0.00  0.00    +0.104 C 
ATOM      5  N   UNL     1       0.851  -2.697   0.244  0.00  0.00    -0.293 NA
ATOM      6  C   UNL     1       4.193  -2.250  -1.451  0.00  0.00    +0.232 C 
ATOM      7  O   UNL     1       5.279  -2.613  -1.053  0.00  0.00    -0.274 OA
ATOM      8  N   UNL     1       3.882  -1.742  -2.688  0.00  0.00    -0.210 N 
ATOM      9  C   UNL     1       2.525  -1.695  -2.928  0.00  0.00    +0.232 C 
ATOM     10  O   UNL     1       1.948  -1.084  -3.802  0.00  0.00    -0.274 OA
ATOM     11  H   UNL     1       0.444  -2.108   0.955  0.00  0.00    +0.124 HD
ENDROOT
BRANCH   8  12
ATOM     12  C   UNL     1       4.845  -1.323  -3.619  0.00  0.00    +0.048 A 
ATOM     13  C   UNL     1       4.447  -0.814  -4.848  0.00  0.00    +0.028 A 
ATOM     14  C   UNL     1       5.393  -0.403  -5.766  0.00  0.00    +0.051 A 
ATOM     15  C   UNL     1       6.744  -0.497  -5.463  0.00  0.00    +0.162 A 
ATOM     16  C   UNL     1       7.145  -1.004  -4.233  0.00  0.00    +0.164 A 
ATOM     17  C   UNL     1       6.194  -1.412  -3.311  0.00  0.00    +0.073 A 
ATOM     18  O   UNL     1       8.466  -1.096  -3.915  0.00  0.00    -0.485 OA
ATOM     19  C   UNL     1       9.396  -1.022  -5.001  0.00  0.00    +0.270 C 
ATOM     20  C   UNL     1       8.989   0.152  -5.902  0.00  0.00    +0.270 C 
ATOM     21  O   UNL     1       7.663  -0.091  -6.383  0.00  0.00    -0.485 OA
ENDBRANCH   8  12
BRANCH   4  22
ATOM     22  C   UNL     1       2.706  -4.332   0.543  0.00  0.00    +0.007 A 
ATOM     23  C   UNL     1       3.653  -4.928   1.309  0.00  0.00    +0.013 A 
ATOM     24  C   UNL     1       3.821  -6.297   1.223  0.00  0.00    +0.008 A 
ATOM     25  C   UNL     1       3.034  -7.004   0.375  0.00  0.00    +0.045 A 
ATOM     26  S   UNL     1       2.010  -5.724  -0.333  0.00  0.00    -0.100 S 
ENDBRANCH   4  22
BRANCH   1  27
ATOM     27  C   UNL     1       0.598  -0.600  -1.043  0.00  0.00    +0.328 C 
ATOM     28  O   UNL     1       1.088   0.070  -1.921  0.00  0.00    -0.249 OA
BRANCH  27  30
ATOM     29  C   UNL     1      -0.017   1.425   0.010  0.00  0.00    +0.280 C 
ATOM     30  O   UNL     1       0.002  -0.004   0.002  0.00  0.00    -0.467 OA
ENDBRANCH  27  30
ENDBRANCH   1  27
BRANCH   1  31
ATOM     31  C   UNL     1      -0.607  -2.660  -1.777  0.00  0.00    +0.069 C 
BRANCH  31  32
ATOM     32  C   UNL     1      -1.814  -2.245  -0.975  0.00  0.00    -0.045 A 
ATOM     33  C   UNL     1      -2.267  -3.049   0.055  0.00  0.00    +0.007 A 
ATOM     34  C   UNL     1      -3.373  -2.671   0.791  0.00  0.00    +0.045 A 
ATOM     35  C   UNL     1      -4.029  -1.484   0.497  0.00  0.00    +0.117 A 
ATOM     36  C   UNL     1      -3.572  -0.680  -0.536  0.00  0.00    +0.045 A 
ATOM     37  C   UNL     1      -2.462  -1.059  -1.266  0.00  0.00    +0.007 A 
BRANCH  35  38
ATOM     38  O   UNL     1      -5.118  -1.111   1.220  0.00  0.00    -0.507 OA
ATOM     39  H   UNL     1      -4.909  -0.573   1.996  0.00  0.00    +0.292 HD
ENDBRANCH  35  38
ENDBRANCH  31  32
ENDBRANCH   1  31
TORSDOF 7
