REMARK  Name = ZINC47411082
REMARK  3 active torsions:
REMARK  status: ('A' for Active; 'I' for Inactive)
REMARK    1  A    between atoms: C_1  and  C_2
REMARK    2  A    between atoms: C_8  and  N_10
REMARK    3  A    between atoms: C_11  and  C_13
REMARK                            x       y       z     vdW  Elec       q    Type
REMARK                         _______ _______ _______ _____ _____    ______ ____
ROOT
ATOM      1  N   UNL     1       0.056  -0.038   2.447  0.00  0.00    -0.307 N 
ATOM      2  C   UNL     1       0.738   0.093   3.602  0.00  0.00    +0.265 C 
ATOM      3  O   UNL     1       1.922  -0.180   3.644  0.00  0.00    -0.268 OA
ATOM      4  H   UNL     1      -0.888   0.180   2.413  0.00  0.00    +0.149 HD
ENDROOT
BRANCH   1  11
ATOM      5  C   UNL     1      -0.019   1.526   0.010  0.00  0.00    +0.009 C 
ATOM      6  C   UNL     1       0.002  -0.004   0.002  0.00  0.00    +0.006 C 
ATOM      7  C   UNL     1       0.718  -0.497  -1.257  0.00  0.00    +0.005 C 
ATOM      8  C   UNL     1       0.739  -2.027  -1.265  0.00  0.00    +0.000 C 
ATOM      9  C   UNL     1       1.479  -2.534  -0.026  0.00  0.00    +0.002 C 
ATOM     10  C   UNL     1       0.763  -2.041   1.233  0.00  0.00    +0.022 C 
ATOM     11  C   UNL     1       0.742  -0.511   1.242  0.00  0.00    +0.076 C 
ENDBRANCH   1  11
BRANCH   2  12
ATOM     12  C   UNL     1       0.046   0.570   4.818  0.00  0.00    +0.154 A 
ATOM     13  C   UNL     1       0.695   0.731   6.036  0.00  0.00    +0.155 A 
ATOM     14  N   UNL     1      -0.060   1.162   7.014  0.00  0.00    -0.198 NA
ATOM     15  S   UNL     1      -1.523   1.337   6.355  0.00  0.00    +0.116 S 
ATOM     16  N   UNL     1      -1.239   0.882   4.832  0.00  0.00    -0.186 NA
ENDBRANCH   2  12
TORSDOF 2
