REMARK  Name = ZINC19555684
REMARK  9 active torsions:
REMARK  status: ('A' for Active; 'I' for Inactive)
REMARK    1  A    between atoms: C_1  and  C_2
REMARK    2  A    between atoms: C_3  and  C_29
REMARK    3  A    between atoms: C_7  and  C_25
REMARK    4  A    between atoms: C_10  and  N_11
REMARK    5  A    between atoms: C_15  and  C_18
REMARK    6  A    between atoms: C_15  and  O_24
REMARK    7  A    between atoms: C_25  and  C_26
REMARK    8  A    between atoms: C_25  and  C_27
REMARK    9  A    between atoms: C_25  and  C_28
REMARK                            x       y       z     vdW  Elec       q    Type
REMARK                         _______ _______ _______ _____ _____    ______ ____
ROOT
ATOM      1  C   UNL     1       0.841   2.500   3.444  0.00  0.00    +0.049 C 
ATOM      2  C   UNL     1       0.305   1.093   3.376  0.00  0.00    +0.011 A 
ATOM      3  C   UNL     1       0.533   0.201   4.425  0.00  0.00    +0.047 A 
ATOM      4  N   UNL     1       0.067  -1.027   4.367  0.00  0.00    -0.233 NA
ATOM      5  C   UNL     1      -0.636  -1.450   3.306  0.00  0.00    +0.158 A 
ATOM      6  C   UNL     1      -1.230  -2.666   2.998  0.00  0.00    +0.073 A 
ATOM      7  C   UNL     1      -1.844  -2.532   1.760  0.00  0.00    +0.071 A 
ATOM      8  N   UNL     1      -1.640  -1.315   1.312  0.00  0.00    -0.168 NA
ATOM      9  N   UNL     1      -0.889  -0.606   2.256  0.00  0.00    -0.200 N 
ATOM     10  C   UNL     1      -0.410   0.677   2.286  0.00  0.00    +0.130 A 
ATOM     11  C   UNL     1       1.320   0.648   5.630  0.00  0.00    +0.066 C 
ENDROOT
BRANCH  10  12
ATOM     12  N   UNL     1      -0.650   1.539   1.237  0.00  0.00    -0.315 N 
ATOM     13  C   UNL     1      -0.148   0.995  -0.003  0.00  0.00    +0.106 C 
ATOM     14  C   UNL     1       0.498   2.080  -0.886  0.00  0.00    +0.022 C 
ATOM     15  C   UNL     1      -0.309   3.395  -0.881  0.00  0.00    +0.041 C 
ATOM     16  C   UNL     1      -1.795   3.174  -0.959  0.00  0.00    +0.094 C 
ATOM     17  C   UNL     1      -2.366   3.107   0.475  0.00  0.00    +0.058 C 
ATOM     18  C   UNL     1      -2.095   1.818   1.101  0.00  0.00    +0.109 C 
BRANCH  16  19
ATOM     19  C   UNL     1      -2.438   4.314  -1.706  0.00  0.00    +0.002 A 
ATOM     20  C   UNL     1      -2.601   4.249  -3.082  0.00  0.00    +0.009 A 
ATOM     21  C   UNL     1      -3.203   5.319  -3.727  0.00  0.00    +0.020 A 
ATOM     22  C   UNL     1      -3.608   6.411  -2.983  0.00  0.00    +0.111 A 
ATOM     23  N   UNL     1      -3.432   6.441  -1.677  0.00  0.00    -0.263 NA
ATOM     24  C   UNL     1      -2.868   5.440  -1.030  0.00  0.00    +0.117 A 
ENDBRANCH  16  19
BRANCH  16  25
ATOM     25  O   UNL     1      -2.061   1.946  -1.639  0.00  0.00    -0.384 OA
ATOM     26  H   UNL     1      -3.099   1.616  -1.792  0.00  0.00    +0.211 HD
ENDBRANCH  16  25
ENDBRANCH  10  12
BRANCH   7  27
ATOM     27  C   UNL     1      -2.611  -3.612   1.042  0.00  0.00    +0.006 C 
ATOM     28  C   UNL     1      -3.982  -3.787   1.699  0.00  0.00    +0.017 C 
ATOM     29  C   UNL     1      -2.795  -3.218  -0.425  0.00  0.00    +0.017 C 
ATOM     30  C   UNL     1      -1.835  -4.928   1.123  0.00  0.00    +0.017 C 
ENDBRANCH   7  27
TORSDOF 4
