REMARK  Name = ZINC43209062
REMARK  11 active torsions:
REMARK  status: ('A' for Active; 'I' for Inactive)
REMARK    1  A    between atoms: C_3  and  N_37
REMARK    2  A    between atoms: C_6  and  C_7
REMARK    3  A    between atoms: C_7  and  C_9
REMARK    4  A    between atoms: C_7  and  N_26
REMARK    5  A    between atoms: C_9  and  C_11
REMARK    6  A    between atoms: C_9  and  C_23
REMARK    7  A    between atoms: C_11  and  N_12
REMARK    8  A    between atoms: N_12  and  C_13
REMARK    9  A    between atoms: C_13  and  C_14
REMARK   10  A    between atoms: N_26  and  C_27
REMARK   11  A    between atoms: C_27  and  C_28
REMARK                            x       y       z     vdW  Elec       q    Type
REMARK                         _______ _______ _______ _____ _____    ______ ____
ROOT
ATOM      1  C   UNL     1      -1.293  -0.775   0.010  0.00  0.00    -0.028 C 
ENDROOT
BRANCH   1   7
ATOM      2  C   UNL     1      -0.017   1.378   0.010  0.00  0.00    +0.004 A 
ATOM      3  C   UNL     1       1.171   2.086   0.002  0.00  0.00    +0.033 A 
ATOM      4  C   UNL     1       2.377   1.411  -0.013  0.00  0.00    +0.126 A 
ATOM      5  C   UNL     1       2.396   0.029  -0.020  0.00  0.00    +0.033 A 
ATOM      6  C   UNL     1       1.208  -0.679  -0.012  0.00  0.00    +0.004 A 
ATOM      7  C   UNL     1       0.002  -0.004   0.002  0.00  0.00    -0.061 A 
BRANCH   4   8
ATOM      8  N   UNL     1       3.649   2.168  -0.022  0.00  0.00    +0.056 N 
ATOM      9  O   UNL     1       3.633   3.377  -0.016  0.00  0.00    -0.126 OA
ATOM     10  O   UNL     1       4.704   1.578  -0.035  0.00  0.00    -0.126 OA
ENDBRANCH   4   8
ENDBRANCH   1   7
BRANCH   1  11
ATOM     11  N   UNL     1      -1.162  -1.942   0.893  0.00  0.00    +0.387 N 
ATOM     12  H   UNL     1      -1.999  -2.503   0.835  0.00  0.00    -0.085 HD
ATOM     13  H   UNL     1      -0.367  -2.494   0.606  0.00  0.00    -0.085 HD
BRANCH  11  14
ATOM     14  C   UNL     1      -0.970  -1.490   2.277  0.00  0.00    -0.046 C 
BRANCH  14  15
ATOM     15  C   UNL     1      -0.836  -2.687   3.183  0.00  0.00    -0.061 A 
ATOM     16  C   UNL     1      -1.962  -3.245   3.760  0.00  0.00    +0.005 A 
ATOM     17  C   UNL     1      -1.844  -4.343   4.590  0.00  0.00    +0.050 A 
ATOM     18  C   UNL     1      -0.596  -4.887   4.848  0.00  0.00    +0.166 A 
ATOM     19  C   UNL     1       0.538  -4.325   4.268  0.00  0.00    +0.166 A 
ATOM     20  C   UNL     1       0.411  -3.228   3.431  0.00  0.00    +0.051 A 
ATOM     21  O   UNL     1       1.632  -5.034   4.672  0.00  0.00    -0.453 OA
ATOM     22  C   UNL     1       1.202  -5.779   5.826  0.00  0.00    +0.466 C 
ATOM     23  O   UNL     1      -0.213  -5.948   5.616  0.00  0.00    -0.453 OA
ENDBRANCH  14  15
ENDBRANCH  11  14
ENDBRANCH   1  11
BRANCH   1  24
ATOM     24  C   UNL     1      -1.616  -1.244  -1.410  0.00  0.00    +0.075 C 
BRANCH  24  25
ATOM     25  C   UNL     1      -0.506  -2.131  -1.911  0.00  0.00    +0.356 C 
ATOM     26  O   UNL     1      -0.744  -3.283  -2.232  0.00  0.00    -0.246 OA
ATOM     27  O   UNL     1       0.630  -1.697  -1.996  0.00  0.00    -0.246 OA
ENDBRANCH  24  25
BRANCH  24  28
ATOM     28  C   UNL     1      -1.752  -0.029  -2.329  0.00  0.00    -0.069 C 
BRANCH  28  29
ATOM     29  N   UNL     1      -2.180  -0.469  -3.664  0.00  0.00    +0.382 N 
ATOM     30  H   UNL     1      -1.494  -1.104  -4.044  0.00  0.00    -0.085 HD
ATOM     31  H   UNL     1      -3.070  -0.939  -3.594  0.00  0.00    -0.085 HD
BRANCH  29  32
ATOM     32  C   UNL     1      -2.310   0.697  -4.547  0.00  0.00    -0.047 C 
BRANCH  32  33
ATOM     33  C   UNL     1      -2.749   0.245  -5.916  0.00  0.00    -0.061 A 
ATOM     34  C   UNL     1      -1.804  -0.087  -6.868  0.00  0.00    +0.005 A 
ATOM     35  C   UNL     1      -2.201  -0.503  -8.125  0.00  0.00    +0.050 A 
ATOM     36  C   UNL     1      -3.549  -0.588  -8.433  0.00  0.00    +0.166 A 
ATOM     37  C   UNL     1      -4.501  -0.253  -7.474  0.00  0.00    +0.166 A 
ATOM     38  C   UNL     1      -4.096   0.158  -6.214  0.00  0.00    +0.051 A 
ATOM     39  O   UNL     1      -5.743  -0.417  -8.016  0.00  0.00    -0.453 OA
ATOM     40  C   UNL     1      -5.538  -0.463  -9.441  0.00  0.00    +0.466 C 
ATOM     41  O   UNL     1      -4.194  -0.962  -9.577  0.00  0.00    -0.453 OA
ENDBRANCH  32  33
ENDBRANCH  29  32
ENDBRANCH  28  29
ENDBRANCH  24  28
ENDBRANCH   1  24
TORSDOF 11
