REMARK  Name = ZINC13501110
REMARK  10 active torsions:
REMARK  status: ('A' for Active; 'I' for Inactive)
REMARK    1  A    between atoms: C_1  and  C_2
REMARK    2  A    between atoms: C_2  and  C_3
REMARK    3  A    between atoms: C_3  and  C_5
REMARK    4  A    between atoms: C_3  and  N_67
REMARK    5  A    between atoms: N_9  and  C_10
REMARK    6  A    between atoms: C_10  and  C_11
REMARK    7  A    between atoms: C_17  and  C_18
REMARK    8  A    between atoms: C_17  and  N_67
REMARK    9  A    between atoms: C_24  and  C_30
REMARK   10  A    between atoms: C_31  and  N_67
REMARK                            x       y       z     vdW  Elec       q    Type
REMARK                         _______ _______ _______ _____ _____    ______ ____
ROOT
ATOM      1  N   UNL     1       5.025   5.260   1.476  0.00  0.00    +0.391 N 
ATOM      2  H   UNL     1       4.334   5.935   1.823  0.00  0.00    -0.080 HD
ENDROOT
BRANCH   1   3
ATOM      3  C   UNL     1       4.724   3.929   2.044  0.00  0.00    -0.067 C 
ATOM      4  C   UNL     1       3.604   3.251   1.228  0.00  0.00    -0.015 C 
ATOM      5  C   UNL     1       2.745   2.525   2.293  0.00  0.00    -0.002 C 
ATOM      6  C   UNL     1       2.754   3.522   3.478  0.00  0.00    -0.002 C 
ATOM      7  C   UNL     1       4.184   4.101   3.474  0.00  0.00    -0.015 C 
ENDBRANCH   1   3
BRANCH   1   8
ATOM      8  C   UNL     1       6.374   5.695   1.895  0.00  0.00    +0.003 C 
BRANCH   8   9
ATOM      9  C   UNL     1       6.281   6.282   3.280  0.00  0.00    +0.138 A 
ATOM     10  N   UNL     1       5.882   5.666   4.366  0.00  0.00    -0.115 NA
ATOM     11  N   UNL     1       5.947   6.502   5.344  0.00  0.00    -0.023 NA
ATOM     12  N   UNL     1       6.370   7.637   4.909  0.00  0.00    -0.044 NA
ATOM     13  N   UNL     1       6.587   7.542   3.641  0.00  0.00    -0.228 N 
BRANCH  13  14
ATOM     14  C   UNL     1       7.075   8.606   2.759  0.00  0.00    +0.178 C 
BRANCH  14  15
ATOM     15  C   UNL     1       5.893   9.439   2.262  0.00  0.00    +0.140 C 
ATOM     16  C   UNL     1       6.403  10.595   1.375  0.00  0.00    +0.035 C 
ATOM     17  C   UNL     1       5.475  11.768   1.796  0.00  0.00    +0.031 C 
ATOM     18  C   UNL     1       5.266  11.452   3.299  0.00  0.00    +0.160 C 
ATOM     19  O   UNL     1       5.205  10.019   3.377  0.00  0.00    -0.375 OA
ENDBRANCH  14  15
ENDBRANCH  13  14
ENDBRANCH   8   9
BRANCH   8  21
ATOM     20  C   UNL     1       7.434   3.913   0.501  0.00  0.00    +0.002 C 
ATOM     21  C   UNL     1       7.339   4.508   1.907  0.00  0.00    -0.011 C 
ENDBRANCH   8  21
ENDBRANCH   1   8
BRANCH   1  22
ATOM     22  C   UNL     1       4.947   5.209   0.000  0.00  0.00    -0.036 C 
BRANCH  22  23
ATOM     23  C   UNL     1       4.810   6.614  -0.525  0.00  0.00    +0.001 A 
ATOM     24  C   UNL     1       5.898   7.264  -1.007  0.00  0.00    +0.017 A 
ATOM     25  C   UNL     1       5.732   8.629  -1.510  0.00  0.00    -0.001 A 
ATOM     26  C   UNL     1       6.818   9.350  -2.019  0.00  0.00    +0.010 A 
ATOM     27  C   UNL     1       6.629  10.621  -2.481  0.00  0.00    +0.001 A 
ATOM     28  C   UNL     1       5.369  11.203  -2.456  0.00  0.00    +0.005 A 
ATOM     29  C   UNL     1       4.286  10.514  -1.953  0.00  0.00    -0.026 A 
ATOM     30  C   UNL     1       4.454   9.217  -1.477  0.00  0.00    +0.052 A 
ATOM     31  N   UNL     1       3.388   8.503  -0.974  0.00  0.00    -0.322 N 
ATOM     32  H   UNL     1       2.507   8.910  -0.951  0.00  0.00    +0.169 HD
ATOM     33  C   UNL     1       3.550   7.250  -0.514  0.00  0.00    +0.251 A 
ATOM     34  O   UNL     1       2.585   6.648  -0.076  0.00  0.00    -0.268 OA
ATOM     35  C   UNL     1       2.925  11.160  -1.925  0.00  0.00    +0.046 C 
ENDBRANCH  22  23
ENDBRANCH   1  22
TORSDOF 8
