REMARK  Name = ZINC36760263
REMARK  8 active torsions:
REMARK  status: ('A' for Active; 'I' for Inactive)
REMARK    1  A    between atoms: C_1  and  C_2
REMARK    2  A    between atoms: C_7  and  C_8
REMARK    3  A    between atoms: C_8  and  C_10
REMARK    4  A    between atoms: C_8  and  N_11
REMARK    5  A    between atoms: C_12  and  C_14
REMARK    6  A    between atoms: C_14  and  C_15
REMARK    7  A    between atoms: C_18  and  C_20
REMARK    8  A    between atoms: C_20  and  C_21
REMARK                            x       y       z     vdW  Elec       q    Type
REMARK                         _______ _______ _______ _____ _____    ______ ____
ROOT
ATOM      1  C   UNL     1      -1.768  -1.133   5.675  0.00  0.00    +0.151 C 
ENDROOT
BRANCH   1   2
ATOM      2  C   UNL     1      -2.441  -0.273   6.714  0.00  0.00    +0.057 A 
ATOM      3  C   UNL     1      -3.736  -0.471   7.069  0.00  0.00    +0.070 A 
ATOM      4  S   UNL     1      -3.942   0.811   8.294  0.00  0.00    -0.080 S 
ATOM      5  C   UNL     1      -2.385   1.449   8.224  0.00  0.00    +0.083 A 
ATOM      6  N   UNL     1      -1.796   0.701   7.325  0.00  0.00    -0.248 NA
BRANCH   5   7
ATOM      7  C   UNL     1      -1.808   2.598   9.010  0.00  0.00    +0.098 C 
BRANCH   7   8
ATOM      8  C   UNL     1      -2.032   3.884   8.258  0.00  0.00    -0.040 A 
ATOM      9  C   UNL     1      -1.088   4.327   7.349  0.00  0.00    +0.004 A 
ATOM     10  C   UNL     1      -1.293   5.506   6.659  0.00  0.00    +0.002 A 
ATOM     11  C   UNL     1      -2.441   6.245   6.876  0.00  0.00    +0.020 A 
ATOM     12  C   UNL     1      -3.386   5.802   7.785  0.00  0.00    +0.041 A 
ATOM     13  C   UNL     1      -3.183   4.618   8.471  0.00  0.00    +0.024 A 
ATOM     14 CL   UNL     1      -4.828   6.729   8.058  0.00  0.00    -0.084 Cl
ENDBRANCH   7   8
ENDBRANCH   5   7
ENDBRANCH   1   2
BRANCH   1  16
ATOM     15  N   UNL     1      -0.537  -0.808   3.554  0.00  0.00    -0.308 N 
ATOM     16  C   UNL     1      -1.190  -0.255   4.595  0.00  0.00    +0.219 C 
ATOM     17  O   UNL     1      -1.312   0.950   4.663  0.00  0.00    -0.275 OA
ATOM     18  H   UNL     1      -0.440  -1.772   3.500  0.00  0.00    +0.149 HD
BRANCH  15  19
ATOM     19  C   UNL     1       0.025   0.045   2.504  0.00  0.00    +0.100 C 
ATOM     20  C   UNL     1       1.455   0.440   2.880  0.00  0.00    +0.033 C 
BRANCH  19  27
ATOM     21  C   UNL     1      -0.099   1.488   0.004  0.00  0.00    +0.044 C 
ATOM     22  C   UNL     1      -0.021  -0.017   0.003  0.00  0.00    -0.046 A 
ATOM     23  C   UNL     1      -0.003  -0.707  -1.195  0.00  0.00    +0.004 A 
ATOM     24  C   UNL     1       0.069  -2.088  -1.197  0.00  0.00    +0.000 A 
ATOM     25  C   UNL     1       0.123  -2.778  -0.000  0.00  0.00    +0.000 A 
ATOM     26  C   UNL     1       0.106  -2.088   1.197  0.00  0.00    +0.006 A 
ATOM     27  C   UNL     1       0.039  -0.708   1.199  0.00  0.00    -0.025 A 
ENDBRANCH  19  27
ENDBRANCH  15  19
ENDBRANCH   1  16
TORSDOF 6
