REMARK  Name = ZINC20834948
REMARK  9 active torsions:
REMARK  status: ('A' for Active; 'I' for Inactive)
REMARK    1  A    between atoms: C_1  and  C_2
REMARK    2  A    between atoms: C_5  and  C_7
REMARK    3  A    between atoms: N_8  and  N_9
REMARK    4  A    between atoms: C_12  and  S_15
REMARK    5  A    between atoms: S_15  and  C_16
REMARK    6  A    between atoms: C_16  and  C_17
REMARK    7  A    between atoms: N_19  and  C_20
REMARK    8  A    between atoms: C_23  and  S_26
REMARK    9  A    between atoms: S_26  and  N_29
REMARK                            x       y       z     vdW  Elec       q    Type
REMARK                         _______ _______ _______ _____ _____    ______ ____
ROOT
ATOM      1  C   UNL     1      -0.799   4.069   0.035  0.00  0.00    +0.173 C 
ENDROOT
BRANCH   1   2
ATOM      2  C   UNL     1      -1.942   5.051   0.037  0.00  0.00    +0.227 C 
ATOM      3  O   UNL     1      -3.087   4.650   0.032  0.00  0.00    -0.275 OA
ATOM      4  N   UNL     1      -1.692   6.376   0.045  0.00  0.00    -0.285 N 
ATOM      5  H   UNL     1      -0.657   6.740   0.127  0.00  0.00    +0.155 HD
BRANCH   4   6
ATOM      6  C   UNL     1      -2.749   7.288  -0.050  0.00  0.00    +0.034 A 
ATOM      7  C   UNL     1      -2.577   8.483  -0.736  0.00  0.00    +0.025 A 
ATOM      8  C   UNL     1      -3.624   9.378  -0.834  0.00  0.00    +0.030 A 
ATOM      9  C   UNL     1      -4.839   9.091  -0.240  0.00  0.00    +0.106 A 
ATOM     10  C   UNL     1      -5.012   7.904   0.449  0.00  0.00    +0.030 A 
ATOM     11  C   UNL     1      -3.970   7.002   0.545  0.00  0.00    +0.025 A 
BRANCH   9  12
ATOM     12  S   UNL     1      -6.170  10.239  -0.360  0.00  0.00    +0.061 S 
ATOM     13  O   UNL     1      -5.925  11.025  -1.519  0.00  0.00    -0.153 OA
ATOM     14  O   UNL     1      -7.367   9.493  -0.185  0.00  0.00    -0.153 OA
BRANCH  12  15
ATOM     15  N   UNL     1      -6.055  11.261   0.938  0.00  0.00    -0.177 NA
ATOM     16  C   UNL     1      -6.692  11.058   2.247  0.00  0.00    +0.109 C 
ATOM     17  C   UNL     1      -6.327  12.271   3.128  0.00  0.00    +0.018 C 
ATOM     18  C   UNL     1      -5.981  13.364   2.083  0.00  0.00    +0.018 C 
ATOM     19  C   UNL     1      -5.301  12.527   0.970  0.00  0.00    +0.109 C 
ENDBRANCH  12  15
ENDBRANCH   9  12
ENDBRANCH   4   6
ENDBRANCH   1   2
BRANCH   1  20
ATOM     20  S   UNL     1      -1.456   2.378   0.024  0.00  0.00    -0.075 S 
BRANCH  20  24
ATOM     21  N   UNL     1       1.756  -1.722   0.002  0.00  0.00    -0.205 N 
ATOM     22  C   UNL     1       1.309  -0.409   0.010  0.00  0.00    +0.232 A 
ATOM     23  N   UNL     1       0.003  -0.004   0.015  0.00  0.00    -0.186 NA
ATOM     24  C   UNL     1      -0.016   1.362   0.022  0.00  0.00    +0.211 A 
ATOM     25  N   UNL     1       1.226   1.784   0.022  0.00  0.00    -0.144 NA
ATOM     26  N   UNL     1       2.065   0.662   0.014  0.00  0.00    -0.245 N 
ATOM     27  H   UNL     1       1.031  -2.549  -0.001  0.00  0.00    +0.177 HD
ATOM     28  H   UNL     1       3.160   0.562   0.011  0.00  0.00    +0.192 HD
BRANCH  21  30
ATOM     29  C   UNL     1       3.549  -3.226  -0.010  0.00  0.00    +0.176 C 
ATOM     30  N   UNL     1       3.130  -1.994  -0.002  0.00  0.00    -0.184 NA
BRANCH  29  35
ATOM     31  C   UNL     1       8.512  -2.548  -0.016  0.00  0.00    +0.086 C 
ATOM     32  C   UNL     1       7.164  -3.222  -0.017  0.00  0.00    +0.103 A 
ATOM     33  C   UNL     1       6.952  -4.554  -0.025  0.00  0.00    +0.045 A 
ATOM     34  C   UNL     1       5.558  -4.751  -0.017  0.00  0.00    +0.051 A 
ATOM     35  C   UNL     1       4.987  -3.511  -0.015  0.00  0.00    +0.148 A 
ATOM     36  O   UNL     1       5.976  -2.596  -0.011  0.00  0.00    -0.459 OA
ENDBRANCH  29  35
ENDBRANCH  21  30
ENDBRANCH  20  24
ENDBRANCH   1  20
TORSDOF 8
