REMARK  Name = ZINC40159956
REMARK  2 active torsions:
REMARK  status: ('A' for Active; 'I' for Inactive)
REMARK    1  A    between atoms: C_1  and  C_2
REMARK    2  A    between atoms: C_12  and  C_14
REMARK                            x       y       z     vdW  Elec       q    Type
REMARK                         _______ _______ _______ _____ _____    ______ ____
ROOT
ATOM      1  C   UNL     1      -0.287   1.454   0.261  0.00  0.00    +0.044 C 
ATOM      2  C   UNL     1      -0.326  -0.051   0.197  0.00  0.00    -0.050 A 
ATOM      3  C   UNL     1       0.160  -0.707  -0.921  0.00  0.00    +0.005 A 
ATOM      4  C   UNL     1       0.123  -2.085  -0.980  0.00  0.00    +0.024 A 
ATOM      5  C   UNL     1      -0.401  -2.814   0.082  0.00  0.00    +0.040 A 
ATOM      6  C   UNL     1      -0.884  -2.157   1.203  0.00  0.00    -0.026 A 
ATOM      7  C   UNL     1      -0.840  -0.774   1.256  0.00  0.00    +0.008 A 
ATOM      8  C   UNL     1      -1.448  -2.914   2.376  0.00  0.00    +0.038 C 
ATOM      9  C   UNL     1      -1.869  -4.321   1.954  0.00  0.00    +0.024 C 
ATOM     10  C   UNL     1      -0.699  -4.989   1.218  0.00  0.00    +0.114 C 
ATOM     11  N   UNL     1      -0.433  -4.212  -0.000  0.00  0.00    -0.266 N 
ATOM     12  C   UNL     1      -0.224  -4.834  -1.177  0.00  0.00    +0.267 C 
ATOM     13  O   UNL     1      -0.137  -4.184  -2.202  0.00  0.00    -0.268 OA
ENDROOT
BRANCH  12  14
ATOM     14  C   UNL     1      -0.100  -6.298  -1.223  0.00  0.00    +0.103 A 
ATOM     15  C   UNL     1      -0.248  -7.067  -2.334  0.00  0.00    +0.040 A 
ATOM     16  C   UNL     1      -0.051  -8.416  -1.954  0.00  0.00    +0.000 A 
ATOM     17  C   UNL     1      -0.079  -9.628  -2.656  0.00  0.00    +0.010 A 
ATOM     18  C   UNL     1       0.155 -10.800  -1.998  0.00  0.00    +0.001 A 
ATOM     19  C   UNL     1       0.422 -10.805  -0.635  0.00  0.00    +0.002 A 
ATOM     20  C   UNL     1       0.455  -9.627   0.078  0.00  0.00    +0.026 A 
ATOM     21  C   UNL     1       0.219  -8.418  -0.571  0.00  0.00    +0.047 A 
ATOM     22  N   UNL     1       0.191  -7.112  -0.145  0.00  0.00    -0.351 N 
ATOM     23  H   UNL     1       0.346  -6.811   0.764  0.00  0.00    +0.166 HD
ENDBRANCH  12  14
TORSDOF 1
