REMARK  Name = ZINC10002212
REMARK  13 active torsions:
REMARK  status: ('A' for Active; 'I' for Inactive)
REMARK    1  A    between atoms: C_1  and  C_2
REMARK    2  A    between atoms: C_2  and  C_3
REMARK    3  A    between atoms: C_3  and  C_4
REMARK    4  A    between atoms: C_4  and  O_5
REMARK    5  A    between atoms: O_5  and  C_6
REMARK    6  A    between atoms: C_9  and  C_13
REMARK    7  A    between atoms: N_14  and  N_15
REMARK    8  A    between atoms: C_16  and  C_18
REMARK    9  A    between atoms: C_18  and  C_20
REMARK   10  A    between atoms: C_18  and  N_23
REMARK   11  A    between atoms: C_20  and  C_21
REMARK   12  A    between atoms: C_20  and  C_22
REMARK   13  A    between atoms: C_24  and  C_26
REMARK                            x       y       z     vdW  Elec       q    Type
REMARK                         _______ _______ _______ _____ _____    ______ ____
ROOT
ATOM      1  N   UNL     1      -2.047  -2.991   0.710  0.00  0.00    -0.205 N 
ATOM      2  C   UNL     1      -1.024  -2.120   0.601  0.00  0.00    +0.253 C 
ATOM      3  O   UNL     1       0.085  -2.437   0.978  0.00  0.00    -0.272 OA
ATOM      4  H   UNL     1      -2.933  -2.738   0.408  0.00  0.00    +0.177 HD
ENDROOT
BRANCH   1   6
ATOM      5  C   UNL     1      -2.815  -5.099   1.365  0.00  0.00    +0.138 C 
ATOM      6  N   UNL     1      -1.830  -4.261   1.260  0.00  0.00    -0.188 NA
BRANCH   5  10
ATOM      7  C   UNL     1      -2.157  -8.950   3.028  0.00  0.00    +0.134 A 
ATOM      8  C   UNL     1      -1.102  -8.054   2.916  0.00  0.00    +0.047 A 
ATOM      9  C   UNL     1      -1.310  -6.805   2.373  0.00  0.00    +0.013 A 
ATOM     10  C   UNL     1      -2.587  -6.436   1.943  0.00  0.00    -0.004 A 
ATOM     11  C   UNL     1      -3.647  -7.340   2.057  0.00  0.00    +0.028 A 
ATOM     12  C   UNL     1      -3.429  -8.590   2.598  0.00  0.00    +0.060 A 
ATOM     13 BR   UNL     1      -4.861  -9.815   2.753  0.00  0.00    -0.046 Br
BRANCH   7  14
ATOM     14  O   UNL     1      -1.946 -10.182   3.560  0.00  0.00    -0.491 OA
BRANCH  14  15
ATOM     15  C   UNL     1      -0.616 -10.487   3.983  0.00  0.00    +0.229 C 
BRANCH  15  16
ATOM     16  C   UNL     1      -0.574 -11.908   4.550  0.00  0.00    +0.041 C 
BRANCH  16  18
ATOM     17  C   UNL     1       0.892 -13.655   5.570  0.00  0.00    +0.004 C 
ATOM     18  C   UNL     1       0.851 -12.234   5.003  0.00  0.00    -0.000 C 
ENDBRANCH  16  18
ENDBRANCH  15  16
ENDBRANCH  14  15
ENDBRANCH   7  14
ENDBRANCH   5  10
ENDBRANCH   1   6
BRANCH   2  19
ATOM     19  C   UNL     1      -1.256  -0.754   0.010  0.00  0.00    +0.163 C 
BRANCH  19  20
ATOM     20  N   UNL     1       0.002  -0.004   0.002  0.00  0.00    -0.300 N 
ATOM     21  C   UNL     1      -0.016   1.344   0.009  0.00  0.00    +0.245 C 
ATOM     22  O   UNL     1      -1.077   1.937   0.018  0.00  0.00    -0.270 OA
ATOM     23  H   UNL     1       0.849  -0.478  -0.009  0.00  0.00    +0.150 HD
BRANCH  21  24
ATOM     24  C   UNL     1       1.252   2.099   0.001  0.00  0.00    +0.040 A 
ATOM     25  C   UNL     1       2.472   1.419  -0.008  0.00  0.00    +0.017 A 
ATOM     26  C   UNL     1       3.655   2.125  -0.022  0.00  0.00    +0.050 A 
ATOM     27  C   UNL     1       3.639   3.514  -0.014  0.00  0.00    +0.166 A 
ATOM     28  C   UNL     1       2.424   4.199   0.001  0.00  0.00    +0.167 A 
ATOM     29  C   UNL     1       1.235   3.496   0.009  0.00  0.00    +0.062 A 
ATOM     30  O   UNL     1       2.680   5.540   0.007  0.00  0.00    -0.453 OA
ATOM     31  C   UNL     1       4.058   5.666   0.407  0.00  0.00    +0.466 C 
ATOM     32  O   UNL     1       4.653   4.426  -0.019  0.00  0.00    -0.453 OA
ENDBRANCH  21  24
ENDBRANCH  19  20
BRANCH  19  33
ATOM     33  C   UNL     1      -1.773  -0.899  -1.423  0.00  0.00    +0.012 C 
ATOM     34  C   UNL     1      -2.009   0.488  -2.023  0.00  0.00    +0.009 C 
ATOM     35  C   UNL     1      -0.738  -1.649  -2.264  0.00  0.00    +0.009 C 
ENDBRANCH  19  33
ENDBRANCH   2  19
TORSDOF 10
