REMARK  Name = ZINC00841911
REMARK  5 active torsions:
REMARK  status: ('A' for Active; 'I' for Inactive)
REMARK    1  A    between atoms: C_1  and  C_2
REMARK    2  A    between atoms: N_5  and  C_7
REMARK    3  A    between atoms: C_15  and  N_29
REMARK    4  A    between atoms: C_16  and  C_27
REMARK    5  A    between atoms: C_17  and  C_19
REMARK                            x       y       z     vdW  Elec       q    Type
REMARK                         _______ _______ _______ _____ _____    ______ ____
ROOT
ATOM      1  C   UNL     1      -4.665   6.594   1.014  0.00  0.00    +0.068 C 
ATOM      2  C   UNL     1      -3.972   5.364   0.488  0.00  0.00    +0.068 A 
ATOM      3  C   UNL     1      -4.548   4.384  -0.309  0.00  0.00    +0.050 A 
ATOM      4  C   UNL     1      -3.596   3.438  -0.573  0.00  0.00    +0.230 A 
ATOM      5  N   UNL     1      -2.459   3.824   0.045  0.00  0.00    -0.200 N 
ATOM      6  N   UNL     1      -2.722   5.032   0.709  0.00  0.00    -0.168 NA
ATOM      7  O   UNL     1      -3.844   2.340  -1.329  0.00  0.00    -0.423 OA
ATOM      8  C   UNL     1      -5.132   2.047  -1.601  0.00  0.00    +0.200 C 
ATOM      9  C   UNL     1      -6.158   2.903  -1.397  0.00  0.00    +0.098 C 
ATOM     10  C   UNL     1      -5.955   4.290  -0.840  0.00  0.00    +0.103 C 
ENDROOT
BRANCH  10  11
ATOM     11  C   UNL     1      -6.156   5.310  -1.931  0.00  0.00    -0.016 A 
ATOM     12  C   UNL     1      -5.350   5.289  -3.054  0.00  0.00    +0.007 A 
ATOM     13  C   UNL     1      -5.537   6.220  -4.058  0.00  0.00    +0.020 A 
ATOM     14  C   UNL     1      -6.525   7.182  -3.934  0.00  0.00    +0.042 A 
ATOM     15  C   UNL     1      -7.328   7.207  -2.809  0.00  0.00    +0.040 A 
ATOM     16  C   UNL     1      -7.144   6.271  -1.807  0.00  0.00    +0.046 A 
ATOM     17 CL   UNL     1      -8.152   6.301  -0.394  0.00  0.00    -0.083 Cl
ATOM     18 CL   UNL     1      -6.756   8.356  -5.192  0.00  0.00    -0.083 Cl
ENDBRANCH  10  11
BRANCH   5  19
ATOM     19  C   UNL     1      -1.236   3.138   0.030  0.00  0.00    +0.069 A 
ATOM     20  C   UNL     1      -1.218   1.749   0.017  0.00  0.00    +0.029 A 
ATOM     21  C   UNL     1      -0.013   1.076   0.008  0.00  0.00    +0.017 A 
ATOM     22  C   UNL     1       1.177   1.783   0.000  0.00  0.00    +0.018 A 
ATOM     23  C   UNL     1       1.161   3.167   0.008  0.00  0.00    +0.017 A 
ATOM     24  C   UNL     1      -0.042   3.845   0.023  0.00  0.00    +0.029 A 
ATOM     25 BR   UNL     1       2.825   0.858  -0.020  0.00  0.00    -0.050 Br
ENDBRANCH   5  19
BRANCH   8  26
ATOM     26  N   UNL     1      -5.418   0.807  -2.117  0.00  0.00    -0.328 N 
ATOM     27  H   UNL     1      -4.703   0.171  -2.275  0.00  0.00    +0.145 HD
ATOM     28  H   UNL     1      -6.335   0.567  -2.323  0.00  0.00    +0.145 HD
ENDBRANCH   8  26
BRANCH   9  29
ATOM     29  C   UNL     1      -7.486   2.477  -1.721  0.00  0.00    +0.101 C 
ATOM     30  N   UNL     1      -8.540   2.139  -1.978  0.00  0.00    -0.191 NA
ENDBRANCH   9  29
TORSDOF 4
