REMARK  Name = ZINC08970376
REMARK  3 active torsions:
REMARK  status: ('A' for Active; 'I' for Inactive)
REMARK    1  A    between atoms: C_1  and  S_2
REMARK    2  A    between atoms: S_2  and  C_5
REMARK    3  A    between atoms: C_15  and  C_17
REMARK                            x       y       z     vdW  Elec       q    Type
REMARK                         _______ _______ _______ _____ _____    ______ ____
ROOT
ATOM      1  C   UNL     1       0.845  -0.437  -1.483  0.00  0.00    +0.089 A 
ATOM      2  C   UNL     1       0.139  -0.615  -2.664  0.00  0.00    +0.029 A 
ATOM      3  C   UNL     1       0.770  -0.953  -3.832  0.00  0.00    +0.031 A 
ATOM      4  C   UNL     1       2.173  -1.131  -3.870  0.00  0.00    +0.080 A 
ATOM      5  C   UNL     1       2.859  -0.941  -2.650  0.00  0.00    +0.043 A 
ATOM      6  C   UNL     1       2.219  -0.598  -1.485  0.00  0.00    +0.044 A 
ATOM      7  S   UNL     1       4.547  -1.249  -3.113  0.00  0.00    -0.052 S 
ATOM      8  C   UNL     1       4.245  -1.598  -4.840  0.00  0.00    +0.166 A 
ATOM      9  N   UNL     1       2.943  -1.460  -4.930  0.00  0.00    -0.225 NA
ATOM     10  N   UNL     1       5.154  -1.928  -5.830  0.00  0.00    -0.261 N 
ATOM     11  C   UNL     1       4.727  -2.157  -7.088  0.00  0.00    +0.251 C 
ATOM     12  O   UNL     1       3.544  -2.074  -7.352  0.00  0.00    -0.270 OA
ATOM     13  H   UNL     1       6.099  -1.995  -5.619  0.00  0.00    +0.157 HD
ENDROOT
BRANCH  11  14
ATOM     14  C   UNL     1       5.697  -2.510  -8.144  0.00  0.00    +0.055 A 
ATOM     15  C   UNL     1       7.057  -2.612  -7.843  0.00  0.00    +0.014 A 
ATOM     16  C   UNL     1       7.957  -2.942  -8.834  0.00  0.00    +0.001 A 
ATOM     17  C   UNL     1       7.516  -3.171 -10.126  0.00  0.00    +0.001 A 
ATOM     18  C   UNL     1       6.172  -3.071 -10.433  0.00  0.00    +0.021 A 
ATOM     19  C   UNL     1       5.258  -2.748  -9.449  0.00  0.00    +0.053 A 
ATOM     20 CL   UNL     1       3.569  -2.631  -9.834  0.00  0.00    -0.083 Cl
ENDBRANCH  11  14
BRANCH   1  22
ATOM     21  C   UNL     1      -0.022   1.810   0.012  0.00  0.00    +0.200 C 
ATOM     22  S   UNL     1       0.002  -0.004   0.002  0.00  0.00    -0.006 S 
ATOM     23  O   UNL     1       0.835  -0.488   1.046  0.00  0.00    -0.170 OA
ATOM     24  O   UNL     1      -1.315  -0.510  -0.168  0.00  0.00    -0.170 OA
ENDBRANCH   1  22
TORSDOF 2
