REMARK  Name = ZINC13567663
REMARK  6 active torsions:
REMARK  status: ('A' for Active; 'I' for Inactive)
REMARK    1  A    between atoms: C_1  and  C_2
REMARK    2  A    between atoms: C_7  and  N_8
REMARK    3  A    between atoms: N_23  and  C_26
REMARK    4  A    between atoms: C_26  and  C_27
REMARK    5  A    between atoms: C_29  and  C_32
REMARK    6  A    between atoms: C_30  and  N_31
REMARK                            x       y       z     vdW  Elec       q    Type
REMARK                         _______ _______ _______ _____ _____    ______ ____
ROOT
ATOM      1  N   UNL     1       1.204  -0.675  -0.013  0.00  0.00    -0.260 N 
ATOM      2  C   UNL     1       1.269  -1.985  -0.407  0.00  0.00    +0.025 C 
ATOM      3  C   UNL     1       0.160  -2.756  -0.422  0.00  0.00    +0.037 C 
ATOM      4  C   UNL     1       0.216  -4.097  -0.838  0.00  0.00    +0.162 C 
ATOM      5  O   UNL     1      -0.798  -4.767  -0.827  0.00  0.00    -0.292 OA
ATOM      6  C   UNL     1       1.506  -4.720  -1.297  0.00  0.00    +0.080 C 
ATOM      7  C   UNL     1       2.407  -3.627  -1.883  0.00  0.00    +0.014 C 
ATOM      8  C   UNL     1       2.608  -2.545  -0.820  0.00  0.00    +0.052 C 
ATOM      9  C   UNL     1      -1.171  -2.198   0.008  0.00  0.00    +0.141 C 
ATOM     10  C   UNL     1      -1.558  -2.732   1.353  0.00  0.00    -0.001 A 
ATOM     11  C   UNL     1      -0.960  -2.610   2.589  0.00  0.00    +0.007 A 
ATOM     12  C   UNL     1      -1.589  -3.238   3.659  0.00  0.00    +0.000 A 
ATOM     13  C   UNL     1      -2.759  -3.949   3.488  0.00  0.00    +0.002 A 
ATOM     14  C   UNL     1      -3.366  -4.076   2.248  0.00  0.00    +0.024 A 
ATOM     15  C   UNL     1      -2.744  -3.452   1.165  0.00  0.00    +0.042 A 
ATOM     16  N   UNL     1      -3.122  -3.417  -0.165  0.00  0.00    -0.258 N 
ATOM     17  C   UNL     1      -2.258  -2.707  -0.918  0.00  0.00    +0.241 C 
ATOM     18  O   UNL     1      -2.336  -2.511  -2.113  0.00  0.00    -0.273 OA
ATOM     19  C   UNL     1      -1.166  -0.698   0.015  0.00  0.00    +0.089 C 
ATOM     20  C   UNL     1       0.002  -0.004   0.002  0.00  0.00    +0.108 C 
ENDROOT
BRANCH   1  27
ATOM     21  C   UNL     1       2.710   0.684  -2.009  0.00  0.00    +0.045 C 
ATOM     22  C   UNL     1       3.137   0.665  -0.564  0.00  0.00    -0.029 A 
ATOM     23  C   UNL     1       4.287   1.323  -0.174  0.00  0.00    +0.005 A 
ATOM     24  C   UNL     1       4.682   1.301   1.151  0.00  0.00    +0.000 A 
ATOM     25  C   UNL     1       3.925   0.625   2.091  0.00  0.00    +0.002 A 
ATOM     26  C   UNL     1       2.772  -0.030   1.708  0.00  0.00    +0.024 A 
ATOM     27  C   UNL     1       2.372  -0.011   0.378  0.00  0.00    +0.043 A 
ENDBRANCH   1  27
BRANCH  20  28
ATOM     28  N   UNL     1      -0.017   1.370   0.010  0.00  0.00    -0.345 N 
ATOM     29  H   UNL     1       0.817   1.867   0.004  0.00  0.00    +0.144 HD
ATOM     30  H   UNL     1      -0.863   1.844   0.016  0.00  0.00    +0.144 HD
ENDBRANCH  20  28
BRANCH  19  31
ATOM     31  C   UNL     1      -2.409   0.012   0.031  0.00  0.00    +0.100 C 
ATOM     32  N   UNL     1      -3.396   0.575   0.043  0.00  0.00    -0.191 NA
ENDBRANCH  19  31
BRANCH  16  33
ATOM     33  C   UNL     1      -4.320  -4.074  -0.693  0.00  0.00    +0.202 C 
BRANCH  33  34
ATOM     34  C   UNL     1      -5.459  -3.144  -0.629  0.00  0.00    -0.086 C 
ATOM     35  C   UNL     1      -6.367  -2.402  -0.579  0.00  0.00    +0.005 C 
ENDBRANCH  33  34
ENDBRANCH  16  33
TORSDOF 5
