REMARK  Name = ZINC66523089
REMARK  10 active torsions:
REMARK  status: ('A' for Active; 'I' for Inactive)
REMARK    1  A    between atoms: C_1  and  C_2
REMARK    2  A    between atoms: C_2  and  C_3
REMARK    3  A    between atoms: C_3  and  C_5
REMARK    4  A    between atoms: C_3  and  N_15
REMARK    5  A    between atoms: C_16  and  C_18
REMARK    6  A    between atoms: C_20  and  C_24
REMARK    7  A    between atoms: N_22  and  C_23
REMARK    8  A    between atoms: C_24  and  C_25
REMARK    9  A    between atoms: C_24  and  C_26
REMARK   10  A    between atoms: C_24  and  C_27
REMARK                            x       y       z     vdW  Elec       q    Type
REMARK                         _______ _______ _______ _____ _____    ______ ____
ROOT
ATOM      1  N   UNL     1      -0.047  -0.118  -2.446  0.00  0.00    -0.300 N 
ATOM      2  C   UNL     1       0.113   1.106  -2.988  0.00  0.00    +0.263 C 
ATOM      3  O   UNL     1       0.832   1.922  -2.445  0.00  0.00    -0.269 OA
ATOM      4  H   UNL     1      -0.669  -0.747  -2.845  0.00  0.00    +0.150 HD
ENDROOT
BRANCH   2   5
ATOM      5  C   UNL     1      -0.583   1.454  -4.237  0.00  0.00    +0.123 A 
ATOM      6  C   UNL     1      -1.504   0.678  -4.920  0.00  0.00    +0.058 A 
ATOM      7  C   UNL     1      -1.874   1.436  -6.033  0.00  0.00    +0.069 A 
ATOM      8  N   UNL     1      -1.212   2.564  -5.988  0.00  0.00    -0.175 NA
ATOM      9  N   UNL     1      -0.455   2.611  -4.952  0.00  0.00    -0.262 N 
ATOM     10  C   UNL     1       0.416   3.733  -4.593  0.00  0.00    +0.173 C 
BRANCH   7  11
ATOM     11  C   UNL     1      -2.860   1.027  -7.096  0.00  0.00    +0.006 C 
ATOM     12  C   UNL     1      -4.282   1.140  -6.544  0.00  0.00    +0.017 C 
ATOM     13  C   UNL     1      -2.710   1.945  -8.311  0.00  0.00    +0.017 C 
ATOM     14  C   UNL     1      -2.589  -0.420  -7.514  0.00  0.00    +0.017 C 
ENDBRANCH   7  11
ENDBRANCH   2   5
BRANCH   1  15
ATOM     15  C   UNL     1       0.718  -0.498  -1.256  0.00  0.00    +0.139 C 
BRANCH  15  16
ATOM     16  C   UNL     1       0.855  -1.998  -1.204  0.00  0.00    +0.129 A 
ATOM     17  N   UNL     1       0.433  -2.853  -2.175  0.00  0.00    -0.340 N 
ATOM     18  H   UNL     1      -0.001  -2.608  -3.007  0.00  0.00    +0.167 HD
ATOM     19  C   UNL     1       0.737  -4.132  -1.755  0.00  0.00    +0.066 A 
ATOM     20  C   UNL     1       0.558  -5.396  -2.300  0.00  0.00    +0.028 A 
ATOM     21  C   UNL     1       0.988  -6.507  -1.605  0.00  0.00    +0.002 A 
ATOM     22  C   UNL     1       1.596  -6.368  -0.365  0.00  0.00    +0.002 A 
ATOM     23  C   UNL     1       1.780  -5.132   0.186  0.00  0.00    +0.030 A 
ATOM     24  C   UNL     1       1.354  -3.993  -0.500  0.00  0.00    +0.089 A 
ATOM     25  N   UNL     1       1.398  -2.663  -0.227  0.00  0.00    -0.231 NA
ENDBRANCH  15  16
BRANCH  15  27
ATOM     26  C   UNL     1      -0.041   1.521   0.005  0.00  0.00    +0.006 C 
ATOM     27  C   UNL     1      -0.012  -0.009  -0.003  0.00  0.00    +0.027 C 
ENDBRANCH  15  27
ENDBRANCH   1  15
TORSDOF 5
