REMARK  Name = ZINC45716363
REMARK  13 active torsions:
REMARK  status: ('A' for Active; 'I' for Inactive)
REMARK    1  A    between atoms: C_1  and  C_2
REMARK    2  A    between atoms: C_2  and  C_3
REMARK    3  A    between atoms: C_2  and  N_4
REMARK    4  A    between atoms: C_9  and  C_18
REMARK    5  A    between atoms: C_11  and  C_13
REMARK    6  A    between atoms: N_20  and  N_21
REMARK    7  A    between atoms: C_22  and  C_24
REMARK    8  A    between atoms: C_27  and  O_32
REMARK    9  A    between atoms: C_28  and  O_30
REMARK   10  A    between atoms: O_30  and  C_31
REMARK   11  A    between atoms: O_32  and  C_33
REMARK   12  A    between atoms: C_33  and  C_34
REMARK   13  A    between atoms: C_33  and  C_35
REMARK                            x       y       z     vdW  Elec       q    Type
REMARK                         _______ _______ _______ _____ _____    ______ ____
ROOT
ATOM      1  C   UNL     1       4.466  -1.238  -4.514  0.00  0.00    +0.261 C 
ATOM      2  O   UNL     1       3.791  -0.775  -5.413  0.00  0.00    -0.269 OA
ATOM      3  N   UNL     1       5.419  -2.151  -4.788  0.00  0.00    -0.230 N 
ATOM      4  H   UNL     1       5.958  -2.520  -4.071  0.00  0.00    +0.173 HD
ENDROOT
BRANCH   1  10
ATOM      5  N   UNL     1       2.051   1.470  -1.464  0.00  0.00    -0.244 N 
ATOM      6  C   UNL     1       3.066   0.547  -1.465  0.00  0.00    +0.160 A 
ATOM      7  C   UNL     1       3.247   0.157  -2.808  0.00  0.00    +0.051 A 
ATOM      8  C   UNL     1       2.312   0.878  -3.579  0.00  0.00    +0.145 A 
ATOM      9  N   UNL     1       1.614   1.638  -2.784  0.00  0.00    -0.177 NA
ATOM     10  C   UNL     1       4.242  -0.799  -3.120  0.00  0.00    +0.052 A 
ATOM     11  C   UNL     1       5.001  -1.315  -2.076  0.00  0.00    +0.042 A 
ATOM     12  C   UNL     1       4.757  -0.874  -0.769  0.00  0.00    +0.081 A 
ATOM     13  N   UNL     1       3.818   0.024  -0.508  0.00  0.00    -0.227 NA
BRANCH  12  14
ATOM     14  C   UNL     1       5.563  -1.420   0.340  0.00  0.00    +0.038 A 
ATOM     15  C   UNL     1       5.492  -1.138   1.679  0.00  0.00    +0.017 A 
ATOM     16  C   UNL     1       6.357  -1.779   2.537  0.00  0.00    +0.008 A 
ATOM     17  C   UNL     1       7.252  -2.668   2.032  0.00  0.00    +0.046 A 
ATOM     18  S   UNL     1       6.879  -2.626   0.287  0.00  0.00    -0.095 S 
ENDBRANCH  12  14
BRANCH   5  20
ATOM     19  C   UNL     1       1.687   3.666  -0.453  0.00  0.00    +0.032 C 
ATOM     20  C   UNL     1       1.514   2.155  -0.287  0.00  0.00    +0.103 C 
ATOM     21  C   UNL     1       0.027   1.825  -0.139  0.00  0.00    +0.032 C 
ENDBRANCH   5  20
ENDBRANCH   1  10
BRANCH   3  22
ATOM     22  N   UNL     1       5.631  -2.566  -6.109  0.00  0.00    -0.230 N 
ATOM     23  C   UNL     1       6.585  -3.479  -6.384  0.00  0.00    +0.260 C 
ATOM     24  O   UNL     1       7.260  -3.942  -5.485  0.00  0.00    -0.269 OA
ATOM     25  H   UNL     1       5.093  -2.197  -6.826  0.00  0.00    +0.173 HD
BRANCH  23  26
ATOM     26  C   UNL     1       6.808  -3.917  -7.776  0.00  0.00    +0.042 A 
ATOM     27  C   UNL     1       6.037  -3.382  -8.810  0.00  0.00    +0.017 A 
ATOM     28  C   UNL     1       6.247  -3.791 -10.109  0.00  0.00    +0.050 A 
ATOM     29  C   UNL     1       7.225  -4.735 -10.393  0.00  0.00    +0.162 A 
ATOM     30  C   UNL     1       7.998  -5.273  -9.365  0.00  0.00    +0.162 A 
ATOM     31  C   UNL     1       7.796  -4.863  -8.062  0.00  0.00    +0.062 A 
BRANCH  30  32
ATOM     32  O   UNL     1       8.955  -6.197  -9.646  0.00  0.00    -0.491 OA
ATOM     33  C   UNL     1       9.710  -6.705  -8.545  0.00  0.00    +0.277 C 
ENDBRANCH  30  32
BRANCH  29  34
ATOM     34  O   UNL     1       7.428  -5.136 -11.674  0.00  0.00    -0.486 OA
BRANCH  34  35
ATOM     35  C   UNL     1       6.523  -4.637 -12.661  0.00  0.00    +0.167 C 
ATOM     36  C   UNL     1       6.997  -3.262 -13.138  0.00  0.00    +0.051 C 
ATOM     37  C   UNL     1       6.480  -5.601 -13.848  0.00  0.00    +0.051 C 
ENDBRANCH  34  35
ENDBRANCH  29  34
ENDBRANCH  23  26
ENDBRANCH   3  22
TORSDOF 8
