REMARK  Name = ZINC65507148
REMARK  5 active torsions:
REMARK  status: ('A' for Active; 'I' for Inactive)
REMARK    1  A    between atoms: C_1  and  C_2
REMARK    2  A    between atoms: C_2  and  C_9
REMARK    3  A    between atoms: C_3  and  C_4
REMARK    4  A    between atoms: C_18  and  C_26
REMARK    5  A    between atoms: C_19  and  N_21
REMARK                            x       y       z     vdW  Elec       q    Type
REMARK                         _______ _______ _______ _____ _____    ______ ____
ROOT
ATOM      1  C   UNL     1      -0.107  -0.584  -1.387  0.00  0.00    +0.055 C 
ATOM      2  C   UNL     1      -1.348  -0.031  -2.087  0.00  0.00    +0.108 C 
ATOM      3  C   UNL     1      -1.133   1.415  -2.446  0.00  0.00    +0.218 C 
ATOM      4  O   UNL     1      -2.064   2.189  -2.396  0.00  0.00    -0.275 OA
ATOM      5  N   UNL     1       0.081   1.858  -2.820  0.00  0.00    -0.285 N 
ATOM      6  C   UNL     1       1.169   0.988  -2.871  0.00  0.00    +0.039 A 
ATOM      7  C   UNL     1       1.122  -0.224  -2.182  0.00  0.00    -0.018 A 
ATOM      8  C   UNL     1       2.181  -1.084  -2.225  0.00  0.00    +0.021 A 
ATOM      9  C   UNL     1       3.324  -0.756  -2.961  0.00  0.00    +0.058 A 
ATOM     10  C   UNL     1       3.377   0.464  -3.657  0.00  0.00    +0.044 A 
ATOM     11  C   UNL     1       2.296   1.330  -3.606  0.00  0.00    +0.047 A 
ATOM     12  H   UNL     1       0.200   2.791  -3.057  0.00  0.00    +0.155 HD
ENDROOT
BRANCH  10  13
ATOM     13  N   UNL     1       4.508   0.801  -4.391  0.00  0.00    -0.329 N 
ATOM     14  C   UNL     1       4.735   0.485  -5.809  0.00  0.00    +0.105 C 
ATOM     15  C   UNL     1       6.129   1.031  -6.182  0.00  0.00    +0.020 C 
ATOM     16  C   UNL     1       6.845   1.124  -4.809  0.00  0.00    +0.020 C 
ATOM     17  C   UNL     1       5.676   1.540  -3.878  0.00  0.00    +0.105 C 
ENDBRANCH  10  13
BRANCH   9  18
ATOM     18  C   UNL     1       4.466  -1.684  -3.007  0.00  0.00    +0.243 C 
ATOM     19  O   UNL     1       5.458  -1.395  -3.648  0.00  0.00    -0.270 OA
ATOM     20  N   UNL     1       4.411  -2.853  -2.339  0.00  0.00    -0.325 N 
ATOM     21  H   UNL     1       3.619  -3.083  -1.828  0.00  0.00    +0.145 HD
ATOM     22  H   UNL     1       5.163  -3.465  -2.369  0.00  0.00    +0.145 HD
ENDBRANCH   9  18
BRANCH   1  24
ATOM     23  C   UNL     1       0.273   1.483   0.162  0.00  0.00    +0.040 C 
ATOM     24  C   UNL     1      -0.003   0.011  -0.006  0.00  0.00    -0.061 C 
ATOM     25  C   UNL     1      -0.155  -0.763   1.065  0.00  0.00    +0.046 C 
BRANCH  25  26
ATOM     26  C   UNL     1      -0.184  -0.164   2.408  0.00  0.00    +0.128 A 
ATOM     27  C   UNL     1      -0.428  -0.825   3.574  0.00  0.00    +0.049 A 
ATOM     28  C   UNL     1      -0.358   0.132   4.604  0.00  0.00    +0.042 A 
ATOM     29  C   UNL     1      -0.079   1.317   4.026  0.00  0.00    +0.195 A 
ATOM     30  O   UNL     1       0.031   1.134   2.700  0.00  0.00    -0.464 OA
ENDBRANCH  25  26
ENDBRANCH   1  24
TORSDOF 4
