REMARK  Name = ZINC04920162
REMARK  14 active torsions:
REMARK  status: ('A' for Active; 'I' for Inactive)
REMARK    1  A    between atoms: C_1  and  C_2
REMARK    2  A    between atoms: C_2  and  C_3
REMARK    3  A    between atoms: C_3  and  C_4
REMARK    4  A    between atoms: C_4  and  C_5
REMARK    5  A    between atoms: N_7  and  C_8
REMARK    6  A    between atoms: N_7  and  C_26
REMARK    7  A    between atoms: C_8  and  C_9
REMARK    8  A    between atoms: N_11  and  C_12
REMARK    9  A    between atoms: N_11  and  C_20
REMARK   10  A    between atoms: C_12  and  C_13
REMARK   11  A    between atoms: C_20  and  C_21
REMARK   12  A    between atoms: C_26  and  C_28
REMARK   13  A    between atoms: C_26  and  C_29
REMARK   14  A    between atoms: C_29  and  C_30
REMARK                            x       y       z     vdW  Elec       q    Type
REMARK                         _______ _______ _______ _____ _____    ______ ____
ROOT
ATOM      1  C   UNL     1      -1.708   0.832  -1.724  0.00  0.00    +0.234 C 
ATOM      2  O   UNL     1      -2.010  -0.234  -1.231  0.00  0.00    -0.274 OA
ATOM      3  N   UNL     1      -0.721   1.571  -1.179  0.00  0.00    -0.291 N 
ENDROOT
BRANCH   1   4
ATOM      4  C   UNL     1      -2.437   1.331  -2.945  0.00  0.00    +0.203 C 
BRANCH   4   7
ATOM      5  C   UNL     1      -3.144  -0.630  -4.204  0.00  0.00    +0.216 C 
ATOM      6  O   UNL     1      -2.022  -0.709  -4.657  0.00  0.00    -0.276 OA
ATOM      7  N   UNL     1      -3.455   0.355  -3.339  0.00  0.00    -0.290 N 
BRANCH   7   8
ATOM      8  C   UNL     1      -4.811   0.449  -2.792  0.00  0.00    +0.073 C 
ATOM      9  C   UNL     1      -4.756   0.330  -1.268  0.00  0.00    +0.028 C 
BRANCH   8  10
ATOM     10  C   UNL     1      -5.424   1.797  -3.177  0.00  0.00    +0.019 C 
ATOM     11  C   UNL     1      -5.594   1.865  -4.696  0.00  0.00    +0.005 C 
ENDBRANCH   8  10
ENDBRANCH   7   8
BRANCH   5  12
ATOM     12  C   UNL     1      -4.192  -1.635  -4.610  0.00  0.00    +0.096 C 
BRANCH  12  13
ATOM     13  C   UNL     1      -3.584  -2.638  -5.593  0.00  0.00    +0.009 C 
BRANCH  13  15
ATOM     14  C   UNL     1      -4.039  -4.660  -6.987  0.00  0.00    +0.004 C 
ATOM     15  C   UNL     1      -4.647  -3.658  -6.005  0.00  0.00    -0.003 C 
ENDBRANCH  13  15
ENDBRANCH  12  13
ENDBRANCH   5  12
ENDBRANCH   4   7
ENDBRANCH   1   4
BRANCH   3  16
ATOM     16  C   UNL     1      -0.013   1.086   0.008  0.00  0.00    +0.143 C 
BRANCH  16  17
ATOM     17  C   UNL     1      -0.718   1.572   1.248  0.00  0.00    -0.030 A 
ATOM     18  C   UNL     1      -0.359   2.779   1.818  0.00  0.00    +0.008 A 
ATOM     19  C   UNL     1      -1.009   3.228   2.953  0.00  0.00    +0.038 A 
ATOM     20  C   UNL     1      -2.012   2.463   3.524  0.00  0.00    +0.123 A 
ATOM     21  C   UNL     1      -2.367   1.252   2.955  0.00  0.00    +0.038 A 
ATOM     22  C   UNL     1      -1.719   0.807   1.817  0.00  0.00    +0.008 A 
ATOM     23  F   UNL     1      -2.644   2.899   4.635  0.00  0.00    -0.205 F 
ENDBRANCH  16  17
ENDBRANCH   3  16
BRANCH   3  24
ATOM     24  C   UNL     1      -0.357   2.860  -1.774  0.00  0.00    +0.150 C 
BRANCH  24  25
ATOM     25  C   UNL     1       0.716   2.649  -2.810  0.00  0.00    +0.007 A 
ATOM     26  C   UNL     1       0.585   2.392  -4.135  0.00  0.00    +0.013 A 
ATOM     27  C   UNL     1       1.723   2.237  -4.904  0.00  0.00    +0.008 A 
ATOM     28  C   UNL     1       2.937   2.336  -4.308  0.00  0.00    +0.045 A 
ATOM     29  S   UNL     1       2.490   2.665  -2.611  0.00  0.00    -0.100 S 
ENDBRANCH  24  25
ENDBRANCH   3  24
TORSDOF 11
