REMARK  Name = ZINC00873373
REMARK  9 active torsions:
REMARK  status: ('A' for Active; 'I' for Inactive)
REMARK    1  A    between atoms: C_1  and  C_2
REMARK    2  A    between atoms: C_2  and  C_27
REMARK    3  A    between atoms: C_6  and  C_14
REMARK    4  A    between atoms: C_8  and  C_12
REMARK    5  A    between atoms: C_9  and  N_11
REMARK    6  A    between atoms: C_17  and  C_20
REMARK    7  A    between atoms: C_20  and  C_21
REMARK    8  A    between atoms: C_20  and  C_22
REMARK    9  A    between atoms: C_20  and  C_23
REMARK                            x       y       z     vdW  Elec       q    Type
REMARK                         _______ _______ _______ _____ _____    ______ ____
ROOT
ATOM      1  C   UNL     1      -0.076   3.741   2.199  0.00  0.00    +0.012 C 
ATOM      2  C   UNL     1      -0.124   4.219   0.746  0.00  0.00    -0.021 C 
ATOM      3  C   UNL     1       1.112   3.717  -0.002  0.00  0.00    +0.081 C 
ATOM      4  C   UNL     1       1.131   2.206   0.003  0.00  0.00    +0.115 C 
ATOM      5  C   UNL     1      -0.018   1.505   0.010  0.00  0.00    +0.046 C 
ATOM      6  C   UNL     1       0.002  -0.004   0.002  0.00  0.00    +0.101 C 
ATOM      7  C   UNL     1       1.351  -0.504   0.439  0.00  0.00    +0.098 C 
ATOM      8  C   UNL     1       2.428   0.318   0.413  0.00  0.00    +0.198 C 
ATOM      9  O   UNL     1       2.327   1.589  -0.006  0.00  0.00    -0.445 OA
ATOM     10  C   UNL     1      -1.270   2.151   0.032  0.00  0.00    +0.164 C 
ATOM     11  O   UNL     1      -2.285   1.485   0.024  0.00  0.00    -0.292 OA
ATOM     12  C   UNL     1      -1.371   3.652   0.059  0.00  0.00    +0.086 C 
ATOM     13  C   UNL     1      -0.162   5.748   0.709  0.00  0.00    +0.012 C 
ENDROOT
BRANCH   6  14
ATOM     14  C   UNL     1      -0.287  -0.500  -1.391  0.00  0.00    -0.035 A 
ATOM     15  C   UNL     1       0.542  -0.143  -2.438  0.00  0.00    +0.005 A 
ATOM     16  C   UNL     1       0.279  -0.602  -3.715  0.00  0.00    +0.004 A 
ATOM     17  C   UNL     1      -0.818  -1.410  -3.947  0.00  0.00    -0.042 A 
ATOM     18  C   UNL     1      -1.650  -1.763  -2.901  0.00  0.00    +0.004 A 
ATOM     19  C   UNL     1      -1.385  -1.308  -1.623  0.00  0.00    +0.005 A 
BRANCH  17  20
ATOM     20  C   UNL     1      -1.107  -1.907  -5.341  0.00  0.00    -0.013 C 
ATOM     21  C   UNL     1      -2.486  -1.411  -5.782  0.00  0.00    +0.015 C 
ATOM     22  C   UNL     1      -0.042  -1.375  -6.302  0.00  0.00    +0.015 C 
ATOM     23  C   UNL     1      -1.087  -3.436  -5.352  0.00  0.00    +0.015 C 
ENDBRANCH  17  20
ENDBRANCH   6  14
BRANCH   8  24
ATOM     24  N   UNL     1       3.648  -0.160   0.823  0.00  0.00    -0.328 N 
ATOM     25  H   UNL     1       3.732  -1.077   1.127  0.00  0.00    +0.145 HD
ATOM     26  H   UNL     1       4.425   0.420   0.808  0.00  0.00    +0.145 HD
ENDBRANCH   8  24
BRANCH   7  27
ATOM     27  C   UNL     1       1.498  -1.856   0.887  0.00  0.00    +0.101 C 
ATOM     28  N   UNL     1       1.615  -2.929   1.242  0.00  0.00    -0.191 NA
ENDBRANCH   7  27
TORSDOF 4
