REMARK  Name = ZINC11589390
REMARK  6 active torsions:
REMARK  status: ('A' for Active; 'I' for Inactive)
REMARK    1  A    between atoms: C_4  and  C_7
REMARK    2  A    between atoms: C_7  and  C_8
REMARK    3  A    between atoms: C_8  and  C_26
REMARK    4  A    between atoms: N_11  and  C_15
REMARK    5  A    between atoms: C_15  and  C_16
REMARK    6  A    between atoms: N_18  and  C_19
REMARK                            x       y       z     vdW  Elec       q    Type
REMARK                         _______ _______ _______ _____ _____    ______ ____
ROOT
ATOM      1  C   UNL     1       1.174   2.166  -0.000  0.00  0.00    +0.142 C 
ATOM      2  C   UNL     1      -0.019   1.230   0.002  0.00  0.00    +0.252 C 
ATOM      3  O   UNL     1       0.001   0.018  -0.013  0.00  0.00    -0.272 OA
ATOM      4  N   UNL     1      -1.106   2.027   0.019  0.00  0.00    -0.215 N 
ATOM      5  C   UNL     1      -0.769   3.322   0.035  0.00  0.00    +0.310 C 
ATOM      6  O   UNL     1      -1.576   4.230   0.055  0.00  0.00    -0.252 OA
ATOM      7  N   UNL     1       0.564   3.506   0.023  0.00  0.00    -0.281 N 
ATOM      8  H   UNL     1       1.031   4.356   0.028  0.00  0.00    +0.152 HD
ENDROOT
BRANCH   1   9
ATOM      9  C   UNL     1       1.993   1.977  -1.251  0.00  0.00    -0.015 A 
ATOM     10  C   UNL     1       3.037   1.071  -1.264  0.00  0.00    +0.006 A 
ATOM     11  C   UNL     1       3.785   0.895  -2.413  0.00  0.00    +0.000 A 
ATOM     12  C   UNL     1       3.496   1.632  -3.546  0.00  0.00    +0.000 A 
ATOM     13  C   UNL     1       2.455   2.542  -3.532  0.00  0.00    +0.000 A 
ATOM     14  C   UNL     1       1.704   2.715  -2.384  0.00  0.00    +0.006 A 
ENDBRANCH   1   9
BRANCH   1  15
ATOM     15  C   UNL     1       2.034   1.945   1.246  0.00  0.00    +0.075 C 
BRANCH  15  19
ATOM     16  C   UNL     1      -0.318   2.647   4.742  0.00  0.00    +0.000 A 
ATOM     17  C   UNL     1      -0.257   1.380   4.193  0.00  0.00    +0.000 A 
ATOM     18  C   UNL     1       0.504   1.153   3.061  0.00  0.00    +0.004 A 
ATOM     19  C   UNL     1       1.204   2.192   2.479  0.00  0.00    -0.045 A 
ATOM     20  C   UNL     1       1.149   3.458   3.032  0.00  0.00    +0.004 A 
ATOM     21  C   UNL     1       0.384   3.687   4.160  0.00  0.00    +0.000 A 
ENDBRANCH  15  19
ENDBRANCH   1  15
BRANCH   4  22
ATOM     22  C   UNL     1      -2.486   1.536   0.021  0.00  0.00    +0.214 C 
BRANCH  22  23
ATOM     23  C   UNL     1      -2.951   1.350   1.442  0.00  0.00    +0.235 C 
ATOM     24  O   UNL     1      -2.203   1.603   2.363  0.00  0.00    -0.274 OA
ATOM     25  N   UNL     1      -4.197   0.902   1.690  0.00  0.00    -0.283 N 
ATOM     26  H   UNL     1      -4.817   0.762   0.957  0.00  0.00    +0.155 HD
BRANCH  25  27
ATOM     27  C   UNL     1      -4.598   0.639   3.005  0.00  0.00    +0.047 A 
ATOM     28  C   UNL     1      -4.125   1.426   4.047  0.00  0.00    +0.024 A 
ATOM     29  C   UNL     1      -4.522   1.165   5.344  0.00  0.00    +0.002 A 
ATOM     30  C   UNL     1      -5.390   0.120   5.606  0.00  0.00    +0.001 A 
ATOM     31  C   UNL     1      -5.864  -0.665   4.571  0.00  0.00    +0.017 A 
ATOM     32  C   UNL     1      -5.474  -0.405   3.271  0.00  0.00    +0.039 A 
ATOM     33 BR   UNL     1      -6.129  -1.475   1.855  0.00  0.00    -0.048 Br
ENDBRANCH  25  27
ENDBRANCH  22  23
ENDBRANCH   4  22
TORSDOF 6
