REMARK  Name = ZINC39640631
REMARK  9 active torsions:
REMARK  status: ('A' for Active; 'I' for Inactive)
REMARK    1  A    between atoms: C_1  and  C_2
REMARK    2  A    between atoms: C_2  and  C_4
REMARK    3  A    between atoms: C_9  and  N_10
REMARK    4  A    between atoms: C_11  and  C_13
REMARK    5  A    between atoms: C_13  and  O_14
REMARK    6  A    between atoms: O_14  and  C_15
REMARK    7  A    between atoms: C_15  and  C_17
REMARK    8  A    between atoms: C_17  and  N_18
REMARK    9  A    between atoms: C_19  and  C_21
REMARK                            x       y       z     vdW  Elec       q    Type
REMARK                         _______ _______ _______ _____ _____    ______ ____
ROOT
ATOM      1  O   UNL     1       0.689  -6.193   1.089  0.00  0.00    -0.454 OA
ENDROOT
BRANCH   1   2
ATOM      2  C   UNL     1       0.728  -6.989   2.169  0.00  0.00    +0.325 C 
ATOM      3  O   UNL     1       0.558  -6.521   3.270  0.00  0.00    -0.249 OA
BRANCH   2   4
ATOM      4  C   UNL     1       0.984  -8.465   2.008  0.00  0.00    +0.224 C 
BRANCH   4   5
ATOM      5  N   UNL     1       0.977  -9.108   3.324  0.00  0.00    -0.304 N 
ATOM      6  C   UNL     1       1.186 -10.436   3.426  0.00  0.00    +0.220 C 
ATOM      7  O   UNL     1       1.379 -11.098   2.429  0.00  0.00    -0.275 OA
ATOM      8  H   UNL     1       0.823  -8.578   4.122  0.00  0.00    +0.149 HD
BRANCH   6   9
ATOM      9  C   UNL     1       1.179 -11.097   4.781  0.00  0.00    +0.048 C 
ATOM     10  C   UNL     1       2.275 -10.482   5.654  0.00  0.00    +0.019 C 
ATOM     11  C   UNL     1       2.268 -11.154   7.029  0.00  0.00    -0.009 C 
ATOM     12  C   UNL     1       2.527 -12.653   6.865  0.00  0.00    +0.007 C 
ATOM     13  C   UNL     1       1.432 -13.268   5.992  0.00  0.00    -0.009 C 
ATOM     14  C   UNL     1       1.438 -12.596   4.617  0.00  0.00    +0.019 C 
ATOM     15  C   UNL     1       0.070 -13.055   6.657  0.00  0.00    +0.007 C 
ATOM     16  C   UNL     1      -0.189 -11.556   6.820  0.00  0.00    -0.009 C 
ATOM     17  C   UNL     1       0.906 -10.941   7.693  0.00  0.00    +0.007 C 
ATOM     18  C   UNL     1      -0.182 -10.885   5.445  0.00  0.00    +0.019 C 
ENDBRANCH   6   9
ENDBRANCH   4   5
ENDBRANCH   2   4
ENDBRANCH   1   2
BRANCH   1  19
ATOM     19  C   UNL     1       0.443  -4.803   1.315  0.00  0.00    +0.328 C 
BRANCH  19  21
ATOM     20  N   UNL     1       0.220  -2.743  -0.036  0.00  0.00    -0.282 N 
ATOM     21  C   UNL     1       0.435  -4.073  -0.003  0.00  0.00    +0.255 C 
ATOM     22  O   UNL     1       0.622  -4.683  -1.035  0.00  0.00    -0.272 OA
ATOM     23  H   UNL     1       0.128  -2.247   0.792  0.00  0.00    +0.155 HD
BRANCH  20  29
ATOM     24  C   UNL     1      -0.861  -1.104  -1.460  0.00  0.00    +0.042 A 
ATOM     25  C   UNL     1      -0.939  -0.439  -2.693  0.00  0.00    +0.062 A 
ATOM     26  C   UNL     1      -0.052  -0.750  -3.700  0.00  0.00    +0.167 A 
ATOM     27  C   UNL     1       0.928  -1.727  -3.496  0.00  0.00    +0.168 A 
ATOM     28  C   UNL     1       1.013  -2.388  -2.281  0.00  0.00    +0.073 A 
ATOM     29  C   UNL     1       0.130  -2.082  -1.258  0.00  0.00    +0.048 A 
ATOM     30  O   UNL     1       1.669  -1.842  -4.635  0.00  0.00    -0.453 OA
ATOM     31  C   UNL     1       0.881  -1.227  -5.672  0.00  0.00    +0.466 C 
ATOM     32  O   UNL     1       0.082  -0.259  -4.968  0.00  0.00    -0.453 OA
BRANCH  24  34
ATOM     33  C   UNL     1      -2.787   0.350  -0.565  0.00  0.00    +0.091 C 
ATOM     34  C   UNL     1      -1.802  -0.777  -0.387  0.00  0.00    +0.162 C 
ATOM     35  O   UNL     1      -1.789  -1.413   0.646  0.00  0.00    -0.292 OA
ENDBRANCH  24  34
ENDBRANCH  20  29
ENDBRANCH  19  21
ENDBRANCH   1  19
TORSDOF 8
