REMARK  Name = ZINC32073175
REMARK  5 active torsions:
REMARK  status: ('A' for Active; 'I' for Inactive)
REMARK    1  A    between atoms: C_1  and  C_2
REMARK    2  A    between atoms: C_3  and  C_24
REMARK    3  A    between atoms: C_4  and  C_14
REMARK    4  A    between atoms: C_24  and  O_26
REMARK    5  A    between atoms: O_26  and  C_27
REMARK                            x       y       z     vdW  Elec       q    Type
REMARK                         _______ _______ _______ _____ _____    ______ ____
ROOT
ATOM      1  C   UNL     1       3.571   5.148   2.488  0.00  0.00    +0.061 C 
ATOM      2  C   UNL     1       3.491   4.352   1.210  0.00  0.00    +0.016 C 
ATOM      3  C   UNL     1       3.750   3.033   1.229  0.00  0.00    +0.065 C 
ATOM      4  C   UNL     1       3.671   2.206  -0.021  0.00  0.00    +0.092 C 
ATOM      5  C   UNL     1       3.710   3.079  -1.250  0.00  0.00    +0.024 C 
ATOM      6  C   UNL     1       3.454   4.402  -1.166  0.00  0.00    +0.015 C 
ATOM      7  N   UNL     1       3.155   4.975   0.041  0.00  0.00    -0.321 N 
ATOM      8  C   UNL     1       3.492   5.281  -2.390  0.00  0.00    +0.051 C 
ATOM      9  C   UNL     1       3.090   4.466  -3.622  0.00  0.00    +0.014 C 
ATOM     10  C   UNL     1       4.052   3.281  -3.755  0.00  0.00    +0.080 C 
ATOM     11  C   UNL     1       4.016   2.477  -2.484  0.00  0.00    +0.162 C 
ATOM     12  O   UNL     1       4.257   1.287  -2.523  0.00  0.00    -0.292 OA
ATOM     13  H   UNL     1       2.641   5.947   0.064  0.00  0.00    +0.152 HD
ENDROOT
BRANCH   4  14
ATOM     14  C   UNL     1       2.386   1.419  -0.013  0.00  0.00    -0.035 A 
ATOM     15  C   UNL     1       1.169   2.087   0.002  0.00  0.00    +0.006 A 
ATOM     16  C   UNL     1      -0.017   1.387   0.010  0.00  0.00    +0.026 A 
ATOM     17  C   UNL     1       0.002  -0.004   0.002  0.00  0.00    +0.046 A 
ATOM     18  C   UNL     1       1.238  -0.676  -0.013  0.00  0.00    -0.000 A 
ATOM     19  C   UNL     1       2.428   0.054  -0.021  0.00  0.00    +0.014 A 
ATOM     20  C   UNL     1       0.920  -2.106  -0.017  0.00  0.00    +0.027 A 
ATOM     21  C   UNL     1      -0.418  -2.211  -0.005  0.00  0.00    +0.083 A 
ATOM     22  N   UNL     1      -0.984  -0.966   0.007  0.00  0.00    -0.361 N 
ATOM     23  H   UNL     1      -2.042  -0.668   0.019  0.00  0.00    +0.165 HD
ENDBRANCH   4  14
BRANCH   3  24
ATOM     24  C   UNL     1       4.104   2.412   2.449  0.00  0.00    +0.337 C 
ATOM     25  O   UNL     1       4.172   3.071   3.470  0.00  0.00    -0.245 OA
BRANCH  24  26
ATOM     26  O   UNL     1       4.367   1.089   2.482  0.00  0.00    -0.465 OA
ATOM     27  C   UNL     1       4.718   0.528   3.749  0.00  0.00    +0.280 C 
ENDBRANCH  24  26
ENDBRANCH   3  24
TORSDOF 3
