REMARK  Name = ZINC48689328
REMARK  4 active torsions:
REMARK  status: ('A' for Active; 'I' for Inactive)
REMARK    1  A    between atoms: C_1  and  C_2
REMARK    2  A    between atoms: C_8  and  N_10
REMARK    3  A    between atoms: C_11  and  C_13
REMARK    4  A    between atoms: N_15  and  C_16
REMARK                            x       y       z     vdW  Elec       q    Type
REMARK                         _______ _______ _______ _____ _____    ______ ____
ROOT
ATOM      1  C   UNL     1       0.038   0.572   4.832  0.00  0.00    +0.303 C 
ATOM      2  O   UNL     1      -1.143   0.849   4.789  0.00  0.00    -0.265 OA
ATOM      3  N   UNL     1       0.721   0.707   5.986  0.00  0.00    -0.277 N 
ATOM      4  H   UNL     1       1.647   0.423   6.038  0.00  0.00    +0.155 HD
ENDROOT
BRANCH   3   5
ATOM      5  C   UNL     1       0.094   1.255   7.108  0.00  0.00    +0.037 A 
ATOM      6  C   UNL     1      -1.251   1.008   7.336  0.00  0.00    +0.023 A 
ATOM      7  C   UNL     1      -1.868   1.552   8.446  0.00  0.00    +0.002 A 
ATOM      8  C   UNL     1      -1.143   2.340   9.318  0.00  0.00    +0.004 A 
ATOM      9  C   UNL     1       0.205   2.591   9.093  0.00  0.00    -0.042 A 
ATOM     10  C   UNL     1       0.828   2.044   7.996  0.00  0.00    -0.023 A 
ATOM     11  C   UNL     1       2.289   2.256   7.702  0.00  0.00    +0.037 C 
ATOM     12  C   UNL     1       2.827   3.451   8.488  0.00  0.00    +0.005 C 
ATOM     13  C   UNL     1       2.442   3.274   9.961  0.00  0.00    +0.005 C 
ATOM     14  C   UNL     1       0.928   3.466  10.083  0.00  0.00    +0.035 C 
ENDBRANCH   3   5
BRANCH   1  16
ATOM     15  N   UNL     1       0.052  -0.055   2.451  0.00  0.00    -0.304 N 
ATOM     16  C   UNL     1       0.734   0.080   3.605  0.00  0.00    +0.300 C 
ATOM     17  O   UNL     1       1.915  -0.198   3.648  0.00  0.00    -0.265 OA
ATOM     18  H   UNL     1      -0.892   0.167   2.417  0.00  0.00    +0.149 HD
BRANCH  15  25
ATOM     19  C   UNL     1      -0.018   1.497   0.006  0.00  0.00    +0.009 C 
ATOM     20  C   UNL     1      -0.004  -0.033   0.006  0.00  0.00    +0.006 C 
ATOM     21  C   UNL     1      -1.441  -0.556   0.021  0.00  0.00    +0.005 C 
ATOM     22  C   UNL     1      -1.427  -2.086   0.020  0.00  0.00    +0.000 C 
ATOM     23  C   UNL     1      -0.689  -2.590   1.262  0.00  0.00    +0.002 C 
ATOM     24  C   UNL     1       0.749  -2.067   1.248  0.00  0.00    +0.022 C 
ATOM     25  C   UNL     1       0.735  -0.536   1.248  0.00  0.00    +0.076 C 
ENDBRANCH  15  25
ENDBRANCH   1  16
TORSDOF 3
