REMARK  Name = ZINC36667597
REMARK  9 active torsions:
REMARK  status: ('A' for Active; 'I' for Inactive)
REMARK    1  A    between atoms: C_1  and  C_2
REMARK    2  A    between atoms: C_2  and  C_3
REMARK    3  A    between atoms: C_2  and  C_4
REMARK    4  A    between atoms: C_4  and  C_5
REMARK    5  A    between atoms: C_5  and  C_7
REMARK    6  A    between atoms: C_5  and  N_22
REMARK    7  A    between atoms: N_9  and  N_10
REMARK    8  A    between atoms: C_11  and  C_13
REMARK    9  A    between atoms: C_23  and  C_25
REMARK                            x       y       z     vdW  Elec       q    Type
REMARK                         _______ _______ _______ _____ _____    ______ ____
ROOT
ATOM      1  C   UNL     1       0.079   0.005   2.411  0.00  0.00    +0.161 C 
ENDROOT
BRANCH   1   2
ATOM      2  C   UNL     1       0.898  -0.256   3.649  0.00  0.00    +0.249 C 
ATOM      3  O   UNL     1       1.372   0.672   4.269  0.00  0.00    -0.272 OA
ATOM      4  N   UNL     1       1.104  -1.520   4.066  0.00  0.00    -0.233 N 
ATOM      5  H   UNL     1       0.786  -2.265   3.532  0.00  0.00    +0.173 HD
BRANCH   4   6
ATOM      6  N   UNL     1       1.778  -1.760   5.271  0.00  0.00    -0.230 N 
ATOM      7  C   UNL     1       1.984  -3.025   5.688  0.00  0.00    +0.260 C 
ATOM      8  O   UNL     1       1.585  -3.958   5.019  0.00  0.00    -0.269 OA
ATOM      9  H   UNL     1       2.096  -1.015   5.804  0.00  0.00    +0.173 HD
BRANCH   7  10
ATOM     10  C   UNL     1       2.695  -3.276   6.957  0.00  0.00    +0.042 A 
ATOM     11  C   UNL     1       3.149  -2.205   7.730  0.00  0.00    +0.017 A 
ATOM     12  C   UNL     1       3.812  -2.442   8.914  0.00  0.00    +0.050 A 
ATOM     13  C   UNL     1       4.031  -3.744   9.344  0.00  0.00    +0.166 A 
ATOM     14  C   UNL     1       3.580  -4.819   8.576  0.00  0.00    +0.167 A 
ATOM     15  C   UNL     1       2.909  -4.587   7.391  0.00  0.00    +0.062 A 
ATOM     16  O   UNL     1       3.918  -5.979   9.211  0.00  0.00    -0.453 OA
ATOM     17  C   UNL     1       4.935  -5.614  10.162  0.00  0.00    +0.466 C 
ATOM     18  O   UNL     1       4.650  -4.234  10.456  0.00  0.00    -0.453 OA
ENDBRANCH   7  10
ENDBRANCH   4   6
ENDBRANCH   1   2
BRANCH   1  19
ATOM     19  N   UNL     1      -0.385   1.395   2.416  0.00  0.00    -0.300 N 
ATOM     20  C   UNL     1      -1.536   1.724   1.797  0.00  0.00    +0.246 C 
ATOM     21  O   UNL     1      -2.236   0.856   1.314  0.00  0.00    -0.270 OA
ATOM     22  H   UNL     1       0.137   2.079   2.865  0.00  0.00    +0.150 HD
BRANCH  20  23
ATOM     23  C   UNL     1      -1.947   3.140   1.706  0.00  0.00    +0.055 A 
ATOM     24  C   UNL     1      -1.142   4.141   2.256  0.00  0.00    +0.016 A 
ATOM     25  C   UNL     1      -1.531   5.460   2.167  0.00  0.00    +0.021 A 
ATOM     26  C   UNL     1      -2.718   5.796   1.536  0.00  0.00    +0.042 A 
ATOM     27  C   UNL     1      -3.521   4.810   0.990  0.00  0.00    +0.040 A 
ATOM     28  C   UNL     1      -3.140   3.485   1.065  0.00  0.00    +0.054 A 
ATOM     29 CL   UNL     1      -4.144   2.249   0.373  0.00  0.00    -0.083 Cl
ATOM     30 CL   UNL     1      -3.200   7.460   1.430  0.00  0.00    -0.083 Cl
ENDBRANCH  20  23
ENDBRANCH   1  19
BRANCH   1  31
ATOM     31  C   UNL     1       0.938  -0.241   1.169  0.00  0.00    +0.034 C 
BRANCH  31  33
ATOM     32  C   UNL     1       0.053  -2.555   0.843  0.00  0.00    +0.007 C 
ATOM     33  C   UNL     1       1.312  -1.722   1.094  0.00  0.00    -0.015 C 
ATOM     34  C   UNL     1       2.304  -1.940  -0.050  0.00  0.00    +0.007 C 
ENDBRANCH  31  33
ENDBRANCH   1  31
TORSDOF 7
