REMARK  Name = ZINC20503744
REMARK  10 active torsions:
REMARK  status: ('A' for Active; 'I' for Inactive)
REMARK    1  A    between atoms: C_1  and  N_2
REMARK    2  A    between atoms: C_3  and  C_13
REMARK    3  A    between atoms: C_5  and  C_7
REMARK    4  A    between atoms: C_22  and  C_24
REMARK    5  A    between atoms: C_24  and  N_25
REMARK    6  A    between atoms: N_25  and  C_26
REMARK    7  A    between atoms: C_26  and  C_27
REMARK    8  A    between atoms: C_30  and  N_33
REMARK    9  A    between atoms: N_33  and  C_34
REMARK   10  A    between atoms: N_33  and  C_35
REMARK                            x       y       z     vdW  Elec       q    Type
REMARK                         _______ _______ _______ _____ _____    ______ ____
ROOT
ATOM      1  C   UNL     1      -0.084  -0.118  -2.479  0.00  0.00    +0.024 C 
ATOM      2  C   UNL     1       1.311  -0.162  -3.105  0.00  0.00    -0.069 C 
ATOM      3  N   UNL     1       1.289  -0.977  -4.322  0.00  0.00    +0.381 N 
ATOM      4  C   UNL     1       0.381  -0.398  -5.314  0.00  0.00    -0.078 C 
ATOM      5  C   UNL     1      -1.045  -0.362  -4.761  0.00  0.00    -0.015 C 
ATOM      6  C   UNL     1      -1.044  -0.947  -3.343  0.00  0.00    -0.007 C 
ATOM      7  C   UNL     1      -0.511  -2.384  -3.416  0.00  0.00    -0.013 C 
ATOM      8  C   UNL     1       0.904  -2.356  -4.012  0.00  0.00    -0.086 C 
ATOM      9  H   UNL     1       2.218  -0.987  -4.717  0.00  0.00    -0.082 HD
ENDROOT
BRANCH   1  12
ATOM     10  C   UNL     1       1.992   0.546  -0.274  0.00  0.00    +0.172 C 
ATOM     11  N   UNL     1       0.878  -0.397  -0.136  0.00  0.00    -0.271 N 
ATOM     12  C   UNL     1      -0.031  -0.695  -1.087  0.00  0.00    +0.041 A 
ATOM     13  C   UNL     1      -0.888  -1.605  -0.568  0.00  0.00    +0.048 A 
ATOM     14  C   UNL     1      -0.488  -1.871   0.746  0.00  0.00    +0.066 A 
ATOM     15  N   UNL     1       0.574  -1.152   1.003  0.00  0.00    -0.176 NA
BRANCH  14  16
ATOM     16  C   UNL     1      -1.161  -2.827   1.698  0.00  0.00    +0.040 C 
ATOM     17  C   UNL     1      -1.702  -4.027   0.918  0.00  0.00    +0.010 C 
ATOM     18  C   UNL     1      -2.385  -4.997   1.884  0.00  0.00    +0.001 C 
ATOM     19  C   UNL     1      -3.540  -4.285   2.591  0.00  0.00    +0.000 C 
ATOM     20  C   UNL     1      -2.999  -3.084   3.370  0.00  0.00    +0.001 C 
ATOM     21  C   UNL     1      -2.316  -2.114   2.404  0.00  0.00    +0.010 C 
ENDBRANCH  14  16
ENDBRANCH   1  12
BRANCH   8  22
ATOM     22  C   UNL     1       1.893  -2.946  -3.005  0.00  0.00    -0.098 C 
BRANCH  22  23
ATOM     23  N   UNL     1       3.259  -2.823  -3.531  0.00  0.00    +0.381 N 
ATOM     24  H   UNL     1       3.329  -3.323  -4.404  0.00  0.00    -0.086 HD
ATOM     25  H   UNL     1       3.474  -1.849  -3.683  0.00  0.00    -0.086 HD
BRANCH  23  26
ATOM     26  C   UNL     1       4.209  -3.389  -2.564  0.00  0.00    -0.047 C 
BRANCH  26  27
ATOM     27  C   UNL     1       5.610  -3.263  -3.103  0.00  0.00    -0.064 A 
ATOM     28  C   UNL     1       6.144  -4.275  -3.880  0.00  0.00    +0.003 A 
ATOM     29  C   UNL     1       7.428  -4.162  -4.376  0.00  0.00    +0.023 A 
ATOM     30  C   UNL     1       8.183  -3.031  -4.094  0.00  0.00    +0.029 A 
ATOM     31  C   UNL     1       7.644  -2.016  -3.314  0.00  0.00    +0.023 A 
ATOM     32  C   UNL     1       6.357  -2.133  -2.826  0.00  0.00    +0.003 A 
BRANCH  30  33
ATOM     33  N   UNL     1       9.482  -2.914  -4.593  0.00  0.00    -0.336 N 
ATOM     34  C   UNL     1      10.010  -3.930  -5.508  0.00  0.00    +0.129 C 
ATOM     35  C   UNL     1      10.318  -1.775  -4.204  0.00  0.00    +0.129 C 
ENDBRANCH  30  33
ENDBRANCH  26  27
ENDBRANCH  23  26
ENDBRANCH  22  23
ENDBRANCH   8  22
TORSDOF 7
