REMARK  Name = ZINC39272171
REMARK  2 active torsions:
REMARK  status: ('A' for Active; 'I' for Inactive)
REMARK    1  A    between atoms: C_1  and  C_2
REMARK    2  A    between atoms: C_7  and  C_12
REMARK                            x       y       z     vdW  Elec       q    Type
REMARK                         _______ _______ _______ _____ _____    ______ ____
ROOT
ATOM      1  C   UNL     1      -0.018   1.503   0.010  0.00  0.00    +0.062 C 
ATOM      2  C   UNL     1       0.002  -0.004   0.002  0.00  0.00    +0.027 C 
ATOM      3  C   UNL     1      -1.086  -0.772   0.003  0.00  0.00    +0.035 C 
ATOM      4  C   UNL     1      -0.630  -2.223   0.129  0.00  0.00    +0.132 C 
ATOM      5  C   UNL     1      -1.287  -3.008  -0.999  0.00  0.00    +0.038 C 
ATOM      6  C   UNL     1      -2.774  -2.714  -1.125  0.00  0.00    +0.029 C 
ATOM      7  C   UNL     1      -3.314  -1.757  -0.069  0.00  0.00    +0.087 C 
ATOM      8  C   UNL     1      -2.465  -0.490  -0.083  0.00  0.00    +0.163 C 
ATOM      9  O   UNL     1      -2.925   0.633  -0.137  0.00  0.00    -0.292 OA
ATOM     10  N   UNL     1       0.827  -2.127  -0.031  0.00  0.00    -0.215 N 
ATOM     11  N   UNL     1       1.134  -0.758  -0.013  0.00  0.00    -0.265 N 
ATOM     12  C   UNL     1       1.714  -3.173  -0.175  0.00  0.00    +0.214 A 
ATOM     13  N   UNL     1       1.386  -4.441  -0.193  0.00  0.00    -0.213 NA
ATOM     14  C   UNL     1       2.503  -5.199  -0.350  0.00  0.00    +0.091 A 
ATOM     15  C   UNL     1       2.725  -6.575  -0.434  0.00  0.00    +0.030 A 
ATOM     16  C   UNL     1       4.006  -7.053  -0.599  0.00  0.00    +0.002 A 
ATOM     17  C   UNL     1       5.079  -6.177  -0.681  0.00  0.00    +0.002 A 
ATOM     18  C   UNL     1       4.876  -4.814  -0.600  0.00  0.00    +0.028 A 
ATOM     19  C   UNL     1       3.593  -4.316  -0.435  0.00  0.00    +0.067 A 
ATOM     20  N   UNL     1       3.064  -3.040  -0.327  0.00  0.00    -0.325 N 
ATOM     21  H   UNL     1       2.035  -0.397  -0.010  0.00  0.00    +0.170 HD
ATOM     22  H   UNL     1       3.562  -2.208  -0.352  0.00  0.00    +0.169 HD
ENDROOT
BRANCH   6  23
ATOM     23  C   UNL     1      -3.031  -2.116  -2.484  0.00  0.00    -0.044 A 
ATOM     24  C   UNL     1      -2.406  -0.939  -2.851  0.00  0.00    +0.004 A 
ATOM     25  C   UNL     1      -2.642  -0.390  -4.098  0.00  0.00    +0.000 A 
ATOM     26  C   UNL     1      -3.501  -1.020  -4.978  0.00  0.00    +0.000 A 
ATOM     27  C   UNL     1      -4.125  -2.198  -4.612  0.00  0.00    +0.000 A 
ATOM     28  C   UNL     1      -3.886  -2.749  -3.367  0.00  0.00    +0.004 A 
ENDBRANCH   6  23
TORSDOF 1
