REMARK  Name = ZINC64054961
REMARK  8 active torsions:
REMARK  status: ('A' for Active; 'I' for Inactive)
REMARK    1  A    between atoms: C_1  and  N_2
REMARK    2  A    between atoms: C_6  and  S_7
REMARK    3  A    between atoms: S_7  and  C_8
REMARK    4  A    between atoms: C_8  and  C_9
REMARK    5  A    between atoms: N_11  and  C_12
REMARK    6  A    between atoms: C_12  and  C_13
REMARK    7  A    between atoms: C_13  and  C_15
REMARK    8  A    between atoms: C_13  and  C_23
REMARK                            x       y       z     vdW  Elec       q    Type
REMARK                         _______ _______ _______ _____ _____    ______ ____
ROOT
ATOM      1  C   UNL     1       8.552  -2.907  -0.098  0.00  0.00    +0.066 C 
ENDROOT
BRANCH   1   2
ATOM      2  C   UNL     1       9.992  -2.480   0.014  0.00  0.00    -0.033 C 
ATOM      3  C   UNL     1      10.870  -2.825   0.984  0.00  0.00    -0.000 A 
ATOM      4  C   UNL     1      10.749  -3.667   2.180  0.00  0.00    +0.010 A 
ATOM      5  C   UNL     1      11.827  -3.828   2.981  0.00  0.00    +0.001 A 
ATOM      6  C   UNL     1      13.053  -3.211   2.699  0.00  0.00    +0.002 A 
ATOM      7  C   UNL     1      13.242  -2.423   1.619  0.00  0.00    +0.026 A 
ATOM      8  C   UNL     1      12.176  -2.185   0.708  0.00  0.00    +0.043 A 
ATOM      9  N   UNL     1      12.109  -1.473  -0.391  0.00  0.00    -0.380 N 
ATOM     10  C   UNL     1      10.752  -1.585  -0.939  0.00  0.00    +0.145 C 
ATOM     11  H   UNL     1      12.835  -0.960  -0.778  0.00  0.00    +0.160 HD
ENDBRANCH   1   2
BRANCH   1  12
ATOM     12  C   UNL     1       8.349  -3.659  -1.388  0.00  0.00    -0.020 A 
ATOM     13  C   UNL     1       8.615  -3.043  -2.596  0.00  0.00    +0.007 A 
ATOM     14  C   UNL     1       8.430  -3.732  -3.780  0.00  0.00    +0.020 A 
ATOM     15  C   UNL     1       7.979  -5.040  -3.756  0.00  0.00    +0.042 A 
ATOM     16  C   UNL     1       7.713  -5.657  -2.547  0.00  0.00    +0.040 A 
ATOM     17  C   UNL     1       7.903  -4.968  -1.363  0.00  0.00    +0.046 A 
ATOM     18 CL   UNL     1       7.576  -5.745   0.155  0.00  0.00    -0.083 Cl
ATOM     19 CL   UNL     1       7.746  -5.905  -5.243  0.00  0.00    -0.083 Cl
ENDBRANCH   1  12
BRANCH   1  20
ATOM     20  C   UNL     1       7.651  -1.670  -0.082  0.00  0.00    +0.116 C 
BRANCH  20  23
ATOM     21  C   UNL     1       5.268  -1.163  -0.056  0.00  0.00    +0.223 C 
ATOM     22  O   UNL     1       5.549   0.017  -0.052  0.00  0.00    -0.275 OA
ATOM     23  N   UNL     1       6.247  -2.089  -0.071  0.00  0.00    -0.314 N 
ATOM     24  H   UNL     1       6.022  -3.033  -0.074  0.00  0.00    +0.149 HD
BRANCH  21  25
ATOM     25  C   UNL     1       3.824  -1.594  -0.044  0.00  0.00    +0.172 C 
BRANCH  25  26
ATOM     26  S   UNL     1       2.756  -0.128  -0.026  0.00  0.00    -0.083 S 
BRANCH  26  32
ATOM     27  C   UNL     1      -0.018   1.461   0.010  0.00  0.00    +0.131 C 
ATOM     28  N   UNL     1       0.002  -0.004   0.002  0.00  0.00    -0.313 N 
ATOM     29  C   UNL     1      -1.180  -0.882   0.003  0.00  0.00    +0.127 C 
ATOM     30  C   UNL     1      -0.570  -2.298  -0.008  0.00  0.00    +0.133 C 
ATOM     31  N   UNL     1       0.880  -2.061  -0.014  0.00  0.00    -0.366 N 
ATOM     32  C   UNL     1       1.123  -0.790  -0.013  0.00  0.00    +0.131 C 
ATOM     33  H   UNL     1       1.556  -2.756  -0.021  0.00  0.00    +0.161 HD
ENDBRANCH  26  32
ENDBRANCH  25  26
ENDBRANCH  21  25
ENDBRANCH  20  23
ENDBRANCH   1  20
TORSDOF 7
