REMARK  Name = ZINC20570819
REMARK  7 active torsions:
REMARK  status: ('A' for Active; 'I' for Inactive)
REMARK    1  A    between atoms: C_1  and  C_2
REMARK    2  A    between atoms: C_9  and  N_13
REMARK    3  A    between atoms: C_10  and  C_11
REMARK    4  A    between atoms: C_14  and  C_16
REMARK    5  A    between atoms: C_20  and  N_22
REMARK    6  A    between atoms: N_22  and  S_23
REMARK    7  A    between atoms: S_23  and  C_26
REMARK                            x       y       z     vdW  Elec       q    Type
REMARK                         _______ _______ _______ _____ _____    ______ ____
ROOT
ATOM      1  C   UNL     1       0.160   0.417   0.050  0.00  0.00    +0.039 A 
ATOM      2  C   UNL     1       0.303   1.805   0.014  0.00  0.00    +0.013 A 
ATOM      3  C   UNL     1       1.562   2.368  -0.032  0.00  0.00    +0.003 A 
ATOM      4  C   UNL     1       2.685   1.561  -0.042  0.00  0.00    +0.024 A 
ATOM      5  C   UNL     1       2.553   0.178  -0.007  0.00  0.00    +0.049 A 
ATOM      6  C   UNL     1       1.292  -0.397   0.040  0.00  0.00    +0.037 A 
ENDROOT
BRANCH   1   8
ATOM      7  N   UNL     1      -2.281   0.600   0.110  0.00  0.00    -0.275 N 
ATOM      8  C   UNL     1      -1.188  -0.188   0.100  0.00  0.00    +0.249 C 
ATOM      9  O   UNL     1      -1.310  -1.397   0.131  0.00  0.00    -0.270 OA
ATOM     10  H   UNL     1      -2.170   1.694   0.082  0.00  0.00    +0.156 HD
BRANCH   7  18
ATOM     11  C   UNL     1      -9.227  -2.992   0.285  0.00  0.00    +0.008 C 
ATOM     12  C   UNL     1      -8.123  -1.988  -0.055  0.00  0.00    -0.009 C 
ATOM     13  C   UNL     1      -8.328  -0.707   0.758  0.00  0.00    +0.008 C 
ATOM     14  C   UNL     1      -7.386   0.387   0.250  0.00  0.00    +0.037 C 
ATOM     15  C   UNL     1      -5.965  -0.163   0.225  0.00  0.00    -0.018 A 
ATOM     16  C   UNL     1      -5.733  -1.494   0.250  0.00  0.00    -0.004 A 
ATOM     17  S   UNL     1      -3.970  -1.647   0.207  0.00  0.00    -0.077 S 
ATOM     18  C   UNL     1      -3.545   0.032   0.157  0.00  0.00    +0.090 A 
ATOM     19  C   UNL     1      -4.776   0.671   0.180  0.00  0.00    +0.084 A 
ATOM     20  C   UNL     1      -6.755  -2.587   0.302  0.00  0.00    +0.046 C 
BRANCH  19  21
ATOM     21  C   UNL     1      -4.872   2.100   0.156  0.00  0.00    +0.102 C 
ATOM     22  N   UNL     1      -4.948   3.233   0.137  0.00  0.00    -0.191 NA
ENDBRANCH  19  21
ENDBRANCH   7  18
ENDBRANCH   1   8
BRANCH   5  23
ATOM     23  N   UNL     1       3.691  -0.633  -0.017  0.00  0.00    -0.216 N 
ATOM     24  H   UNL     1       4.309  -0.725   0.888  0.00  0.00    +0.174 HD
BRANCH  23  25
ATOM     25  S   UNL     1       4.109  -1.455  -1.392  0.00  0.00    +0.072 S 
ATOM     26  O   UNL     1       5.324  -2.134  -1.105  0.00  0.00    -0.150 OA
ATOM     27  O   UNL     1       2.941  -2.136  -1.829  0.00  0.00    -0.150 OA
BRANCH  25  28
ATOM     28  C   UNL     1       4.483  -0.253  -2.625  0.00  0.00    +0.109 A 
ATOM     29  C   UNL     1       3.474   0.256  -3.422  0.00  0.00    +0.030 A 
ATOM     30  C   UNL     1       3.765   1.203  -4.386  0.00  0.00    +0.022 A 
ATOM     31  C   UNL     1       5.069   1.633  -4.560  0.00  0.00    +0.041 A 
ATOM     32  C   UNL     1       6.078   1.120  -3.766  0.00  0.00    +0.022 A 
ATOM     33  C   UNL     1       5.785   0.177  -2.799  0.00  0.00    +0.030 A 
ATOM     34 CL   UNL     1       5.436   2.818  -5.774  0.00  0.00    -0.084 Cl
ENDBRANCH  25  28
ENDBRANCH  23  25
ENDBRANCH   5  23
TORSDOF 6
