REMARK  Name = ZINC04571501
REMARK  10 active torsions:
REMARK  status: ('A' for Active; 'I' for Inactive)
REMARK    1  A    between atoms: C_1  and  C_2
REMARK    2  A    between atoms: C_2  and  C_3
REMARK    3  A    between atoms: C_3  and  C_4
REMARK    4  A    between atoms: C_3  and  C_5
REMARK    5  A    between atoms: C_3  and  N_14
REMARK    6  A    between atoms: N_7  and  C_8
REMARK    7  A    between atoms: N_14  and  C_15
REMARK    8  A    between atoms: C_18  and  C_21
REMARK    9  A    between atoms: C_22  and  C_24
REMARK   10  A    between atoms: C_24  and  C_25
REMARK                            x       y       z     vdW  Elec       q    Type
REMARK                         _______ _______ _______ _____ _____    ______ ____
ROOT
ATOM      1  N   UNL     1      -3.549   4.872   2.045  0.00  0.00    -0.257 N 
ATOM      2  C   UNL     1      -2.833   6.003   2.202  0.00  0.00    +0.223 C 
ATOM      3  O   UNL     1      -3.388   7.033   2.521  0.00  0.00    -0.275 OA
ENDROOT
BRANCH   1   4
ATOM      4  C   UNL     1      -2.898   3.664   1.770  0.00  0.00    +0.037 A 
ATOM      5  C   UNL     1      -2.029   3.114   2.702  0.00  0.00    +0.024 A 
ATOM      6  C   UNL     1      -1.393   1.918   2.429  0.00  0.00    +0.005 A 
ATOM      7  C   UNL     1      -1.612   1.276   1.225  0.00  0.00    -0.050 A 
ATOM      8  C   UNL     1      -2.473   1.824   0.292  0.00  0.00    +0.005 A 
ATOM      9  C   UNL     1      -3.116   3.016   0.561  0.00  0.00    +0.024 A 
ATOM     10  C   UNL     1      -0.911  -0.025   0.928  0.00  0.00    +0.044 C 
ENDBRANCH   1   4
BRANCH   1  11
ATOM     11  C   UNL     1      -5.009   4.907   2.163  0.00  0.00    +0.115 C 
ATOM     12  C   UNL     1      -5.600   5.651   0.964  0.00  0.00    +0.042 C 
BRANCH  11  13
ATOM     13  C   UNL     1      -5.393   5.620   3.435  0.00  0.00    +0.237 C 
ATOM     14  O   UNL     1      -6.405   6.286   3.474  0.00  0.00    -0.273 OA
ATOM     15  N   UNL     1      -4.611   5.516   4.528  0.00  0.00    -0.311 N 
ATOM     16  H   UNL     1      -3.765   5.043   4.476  0.00  0.00    +0.149 HD
BRANCH  15  17
ATOM     17  C   UNL     1      -5.038   6.117   5.794  0.00  0.00    +0.073 C 
ATOM     18  C   UNL     1      -4.723   7.614   5.779  0.00  0.00    +0.022 C 
ATOM     19  C   UNL     1      -5.169   8.241   7.101  0.00  0.00    +0.002 C 
ATOM     20  C   UNL     1      -4.425   7.574   8.260  0.00  0.00    +0.000 C 
ATOM     21  C   UNL     1      -4.740   6.077   8.274  0.00  0.00    +0.002 C 
ATOM     22  C   UNL     1      -4.294   5.449   6.952  0.00  0.00    +0.022 C 
ENDBRANCH  15  17
ENDBRANCH  11  13
BRANCH  11  24
ATOM     23  C   UNL     1      -5.078   2.780   3.472  0.00  0.00    +0.006 C 
ATOM     24  C   UNL     1      -5.553   3.477   2.196  0.00  0.00    +0.032 C 
ENDBRANCH  11  24
ENDBRANCH   1  11
BRANCH   2  25
ATOM     25  C   UNL     1      -1.342   5.987   1.980  0.00  0.00    +0.128 C 
BRANCH  25  26
ATOM     26  C   UNL     1      -0.796   7.413   2.084  0.00  0.00    +0.169 C 
ATOM     27  C   UNL     1       0.717   7.413   1.987  0.00  0.00    +0.241 C 
ATOM     28  O   UNL     1       1.498   6.869   2.738  0.00  0.00    -0.273 OA
ATOM     29  N   UNL     1       1.012   8.142   0.893  0.00  0.00    -0.239 N 
ATOM     30  C   UNL     1      -0.092   8.598   0.291  0.00  0.00    +0.307 C 
ATOM     31  O   UNL     1      -0.081   9.280  -0.715  0.00  0.00    -0.252 OA
ATOM     32  N   UNL     1      -1.217   8.222   0.927  0.00  0.00    -0.287 N 
ATOM     33  H   UNL     1       1.914   8.315   0.581  0.00  0.00    +0.159 HD
ATOM     34  H   UNL     1      -2.127   8.441   0.673  0.00  0.00    +0.151 HD
ENDBRANCH  25  26
ENDBRANCH   2  25
TORSDOF 7
