REMARK  Name = ZINC00954718
REMARK  7 active torsions:
REMARK  status: ('A' for Active; 'I' for Inactive)
REMARK    1  A    between atoms: C_1  and  C_2
REMARK    2  A    between atoms: N_13  and  C_16
REMARK    3  A    between atoms: C_16  and  C_17
REMARK    4  A    between atoms: N_19  and  N_20
REMARK    5  A    between atoms: C_21  and  C_22
REMARK    6  A    between atoms: C_25  and  O_29
REMARK    7  A    between atoms: C_27  and  O_28
REMARK                            x       y       z     vdW  Elec       q    Type
REMARK                         _______ _______ _______ _____ _____    ______ ____
ROOT
ATOM      1  C   UNL     1      -4.650  -0.862   1.620  0.00  0.00    +0.223 C 
ENDROOT
BRANCH   1  13
ATOM      2  C   UNL     1       3.546   2.093  -1.322  0.00  0.00    +0.008 C 
ATOM      3  C   UNL     1       2.194   1.398  -1.157  0.00  0.00    -0.009 C 
ATOM      4  C   UNL     1       1.421   2.037  -0.001  0.00  0.00    +0.008 C 
ATOM      5  C   UNL     1      -0.019   1.522   0.010  0.00  0.00    +0.037 C 
ATOM      6  C   UNL     1       0.002  -0.004   0.002  0.00  0.00    -0.023 A 
ATOM      7  C   UNL     1       1.113  -0.674  -0.386  0.00  0.00    -0.004 A 
ATOM      8  S   UNL     1       0.692  -2.393  -0.240  0.00  0.00    -0.073 S 
ATOM      9  C   UNL     1      -0.965  -2.210   0.338  0.00  0.00    +0.116 A 
ATOM     10  C   UNL     1      -1.139  -0.809   0.399  0.00  0.00    +0.076 A 
ATOM     11  C   UNL     1      -2.417  -0.330   0.843  0.00  0.00    +0.263 A 
ATOM     12  O   UNL     1      -2.669   0.859   0.931  0.00  0.00    -0.267 OA
ATOM     13  N   UNL     1      -3.325  -1.284   1.159  0.00  0.00    -0.290 N 
ATOM     14  C   UNL     1      -3.065  -2.611   1.068  0.00  0.00    +0.203 A 
ATOM     15  N   UNL     1      -1.908  -3.088   0.665  0.00  0.00    -0.230 NA
ATOM     16  C   UNL     1       2.414  -0.088  -0.839  0.00  0.00    +0.046 C 
ENDBRANCH   1  13
BRANCH   1  17
ATOM     17  C   UNL     1      -5.571  -0.717   0.436  0.00  0.00    +0.252 C 
ATOM     18  O   UNL     1      -5.161  -0.943  -0.683  0.00  0.00    -0.272 OA
ATOM     19  N   UNL     1      -6.850  -0.335   0.621  0.00  0.00    -0.206 N 
ATOM     20  H   UNL     1      -7.178  -0.154   1.515  0.00  0.00    +0.177 HD
BRANCH  19  21
ATOM     21  N   UNL     1      -7.707  -0.199  -0.480  0.00  0.00    -0.188 NA
ATOM     22  C   UNL     1      -8.939   0.169  -0.302  0.00  0.00    +0.142 C 
BRANCH  22  23
ATOM     23  C   UNL     1      -9.839   0.311  -1.459  0.00  0.00    +0.036 A 
ATOM     24  C   UNL     1     -11.166   0.707  -1.271  0.00  0.00    +0.016 A 
ATOM     25  C   UNL     1     -12.005   0.839  -2.356  0.00  0.00    +0.046 A 
ATOM     26  C   UNL     1     -11.536   0.580  -3.639  0.00  0.00    +0.120 A 
ATOM     27  C   UNL     1     -10.220   0.187  -3.836  0.00  0.00    +0.091 A 
ATOM     28  C   UNL     1      -9.367   0.055  -2.755  0.00  0.00    +0.129 A 
BRANCH  28  29
ATOM     29  O   UNL     1      -8.077  -0.325  -2.947  0.00  0.00    -0.506 OA
ATOM     30  H   UNL     1      -7.941  -1.282  -2.922  0.00  0.00    +0.292 HD
ENDBRANCH  28  29
BRANCH  26  31
ATOM     31  O   UNL     1     -12.369   0.714  -4.703  0.00  0.00    -0.507 OA
ATOM     32  H   UNL     1     -12.369   1.599  -5.094  0.00  0.00    +0.292 HD
ENDBRANCH  26  31
ENDBRANCH  22  23
ENDBRANCH  19  21
ENDBRANCH   1  17
TORSDOF 6
