REMARK  Name = ZINC39666144
REMARK  11 active torsions:
REMARK  status: ('A' for Active; 'I' for Inactive)
REMARK    1  A    between atoms: C_1  and  C_2
REMARK    2  A    between atoms: C_2  and  S_3
REMARK    3  A    between atoms: S_3  and  C_4
REMARK    4  A    between atoms: C_5  and  C_10
REMARK    5  A    between atoms: C_14  and  C_23
REMARK    6  A    between atoms: N_25  and  C_26
REMARK    7  A    between atoms: C_26  and  C_27
REMARK    8  A    between atoms: C_27  and  C_29
REMARK    9  A    between atoms: C_27  and  O_30
REMARK   10  A    between atoms: O_30  and  C_31
REMARK   11  A    between atoms: C_34  and  C_37
REMARK                            x       y       z     vdW  Elec       q    Type
REMARK                         _______ _______ _______ _____ _____    ______ ____
ROOT
ATOM      1  C   UNL     1       2.452  -3.594  -2.369  0.00  0.00    +0.249 C 
ATOM      2  O   UNL     1       2.464  -2.382  -2.274  0.00  0.00    -0.270 OA
ATOM      3  N   UNL     1       3.042  -4.193  -3.422  0.00  0.00    -0.296 N 
ATOM      4  C   UNL     1       3.042  -5.635  -3.764  0.00  0.00    +0.121 C 
ATOM      5  C   UNL     1       2.895  -5.672  -5.302  0.00  0.00    +0.100 C 
ATOM      6  C   UNL     1       3.421  -4.308  -5.779  0.00  0.00    -0.004 C 
ATOM      7  C   UNL     1       3.834  -3.558  -4.503  0.00  0.00    +0.115 C 
ATOM      8  C   UNL     1       4.627  -4.497  -6.694  0.00  0.00    -0.010 C 
ATOM      9  C   UNL     1       5.096  -3.130  -7.202  0.00  0.00    -0.082 C 
ATOM     10  N   UNL     1       4.003  -2.474  -7.928  0.00  0.00    +0.379 N 
ATOM     11  C   UNL     1       2.882  -2.212  -7.017  0.00  0.00    -0.082 C 
ATOM     12  C   UNL     1       2.319  -3.539  -6.502  0.00  0.00    -0.010 C 
ATOM     13  H   UNL     1       4.333  -1.602  -8.313  0.00  0.00    -0.086 HD
ATOM     14  H   UNL     1       3.692  -3.073  -8.678  0.00  0.00    -0.086 HD
ENDROOT
BRANCH   1  16
ATOM     15  C   UNL     1       0.616  -3.954  -0.707  0.00  0.00    +0.109 A 
ATOM     16  C   UNL     1       1.791  -4.408  -1.333  0.00  0.00    +0.069 A 
ATOM     17  C   UNL     1       2.320  -5.647  -0.955  0.00  0.00    +0.017 A 
ATOM     18  C   UNL     1       1.661  -6.373   0.022  0.00  0.00    +0.020 A 
ATOM     19  C   UNL     1       0.510  -5.860   0.593  0.00  0.00    +0.112 A 
ATOM     20  N   UNL     1       0.029  -4.688   0.227  0.00  0.00    -0.248 NA
BRANCH  15  21
ATOM     21  S   UNL     1      -0.074  -2.398  -1.161  0.00  0.00    -0.105 S 
BRANCH  21  23
ATOM     22  C   UNL     1      -2.244  -0.917  -0.400  0.00  0.00    +0.015 C 
ATOM     23  C   UNL     1      -1.540  -2.243  -0.104  0.00  0.00    +0.072 C 
ENDBRANCH  21  23
ENDBRANCH  15  21
ENDBRANCH   1  16
BRANCH   5  24
ATOM     24  C   UNL     1       3.724  -6.788  -5.882  0.00  0.00    +0.218 C 
ATOM     25  O   UNL     1       4.720  -7.168  -5.303  0.00  0.00    -0.275 OA
ATOM     26  N   UNL     1       3.359  -7.365  -7.044  0.00  0.00    -0.312 N 
ATOM     27  H   UNL     1       2.563  -7.061  -7.507  0.00  0.00    +0.149 HD
BRANCH  26  28
ATOM     28  C   UNL     1       4.165  -8.451  -7.608  0.00  0.00    +0.148 C 
BRANCH  28  29
ATOM     29  C   UNL     1       3.537  -8.924  -8.920  0.00  0.00    +0.187 C 
ATOM     30  C   UNL     1       4.379 -10.058  -9.509  0.00  0.00    +0.053 C 
BRANCH  29  31
ATOM     31  O   UNL     1       2.211  -9.395  -8.671  0.00  0.00    -0.488 OA
BRANCH  31  32
ATOM     32  C   UNL     1       1.340  -9.366  -9.713  0.00  0.00    +0.121 A 
ATOM     33  C   UNL     1       0.006  -9.692  -9.513  0.00  0.00    +0.046 A 
ATOM     34  C   UNL     1      -0.878  -9.661 -10.574  0.00  0.00    +0.007 A 
ATOM     35  C   UNL     1      -0.434  -9.307 -11.835  0.00  0.00    -0.050 A 
ATOM     36  C   UNL     1       0.894  -8.983 -12.037  0.00  0.00    +0.007 A 
ATOM     37  C   UNL     1       1.781  -9.006 -10.978  0.00  0.00    +0.046 A 
ATOM     38  C   UNL     1      -1.401  -9.275 -12.991  0.00  0.00    +0.044 C 
ENDBRANCH  31  32
ENDBRANCH  29  31
ENDBRANCH  28  29
ENDBRANCH  26  28
ENDBRANCH   5  24
TORSDOF 8
