REMARK  Name = ZINC36207857
REMARK  13 active torsions:
REMARK  status: ('A' for Active; 'I' for Inactive)
REMARK    1  A    between atoms: C_1  and  O_2
REMARK    2  A    between atoms: O_2  and  C_3
REMARK    3  A    between atoms: C_6  and  C_9
REMARK    4  A    between atoms: C_18  and  C_20
REMARK    5  A    between atoms: C_20  and  N_21
REMARK    6  A    between atoms: N_21  and  C_22
REMARK    7  A    between atoms: N_21  and  C_31
REMARK    8  A    between atoms: C_22  and  C_23
REMARK    9  A    between atoms: C_23  and  C_25
REMARK   10  A    between atoms: C_23  and  O_30
REMARK   11  A    between atoms: C_25  and  O_26
REMARK   12  A    between atoms: O_26  and  C_27
REMARK   13  A    between atoms: C_27  and  C_28
REMARK                            x       y       z     vdW  Elec       q    Type
REMARK                         _______ _______ _______ _____ _____    ______ ____
ROOT
ATOM      1  C   UNL     1       1.787  -3.153  -5.131  0.00  0.00    +0.004 A 
ATOM      2  C   UNL     1       1.453  -3.072  -6.441  0.00  0.00    +0.056 A 
ATOM      3  S   UNL     1       2.644  -4.134  -7.237  0.00  0.00    -0.076 S 
ATOM      4  C   UNL     1       3.553  -4.656  -5.806  0.00  0.00    +0.116 A 
ATOM      5  C   UNL     1       2.916  -3.990  -4.745  0.00  0.00    +0.080 A 
ATOM      6  C   UNL     1       3.462  -4.233  -3.445  0.00  0.00    +0.260 A 
ATOM      7  O   UNL     1       2.974  -3.704  -2.461  0.00  0.00    -0.267 OA
ATOM      8  N   UNL     1       4.521  -5.055  -3.324  0.00  0.00    -0.312 N 
ATOM      9  H   UNL     1       4.895  -5.223  -2.445  0.00  0.00    +0.170 HD
ATOM     10  C   UNL     1       5.076  -5.653  -4.409  0.00  0.00    +0.094 A 
ATOM     11  N   UNL     1       4.595  -5.459  -5.607  0.00  0.00    -0.229 NA
ENDROOT
BRANCH   1  15
ATOM     12  C   UNL     1      -0.407  -0.989  -2.200  0.00  0.00    +0.120 A 
ATOM     13  C   UNL     1       0.059  -0.340  -3.335  0.00  0.00    +0.046 A 
ATOM     14  C   UNL     1       0.771  -1.039  -4.287  0.00  0.00    +0.012 A 
ATOM     15  C   UNL     1       1.023  -2.398  -4.109  0.00  0.00    -0.016 A 
ATOM     16  C   UNL     1       0.553  -3.047  -2.968  0.00  0.00    +0.012 A 
ATOM     17  C   UNL     1      -0.154  -2.342  -2.017  0.00  0.00    +0.046 A 
BRANCH  12  19
ATOM     18  C   UNL     1      -1.333   1.091  -1.515  0.00  0.00    +0.277 C 
ATOM     19  O   UNL     1      -1.108  -0.298  -1.263  0.00  0.00    -0.495 OA
ENDBRANCH  12  19
ENDBRANCH   1  15
BRANCH  10  20
ATOM     20  C   UNL     1       6.262  -6.565  -4.225  0.00  0.00    -0.003 C 
BRANCH  20  21
ATOM     21  N   UNL     1       6.784  -6.960  -5.540  0.00  0.00    +0.388 N 
ATOM     22  H   UNL     1       6.017  -7.082  -6.184  0.00  0.00    -0.081 HD
BRANCH  21  23
ATOM     23  C   UNL     1       7.684  -5.914  -6.044  0.00  0.00    -0.068 C 
ATOM     24  C   UNL     1       6.919  -4.593  -6.155  0.00  0.00    -0.015 C 
ATOM     25  C   UNL     1       7.856  -3.504  -6.680  0.00  0.00    -0.002 C 
ATOM     26  C   UNL     1       9.030  -3.333  -5.714  0.00  0.00    -0.000 C 
ATOM     27  C   UNL     1       9.795  -4.653  -5.603  0.00  0.00    -0.002 C 
ATOM     28  C   UNL     1       8.858  -5.743  -5.078  0.00  0.00    -0.015 C 
ENDBRANCH  21  23
BRANCH  21  29
ATOM     29  C   UNL     1       7.524  -8.223  -5.415  0.00  0.00    -0.044 C 
BRANCH  29  30
ATOM     30  C   UNL     1       7.942  -8.709  -6.804  0.00  0.00    +0.124 C 
BRANCH  30  31
ATOM     31  O   UNL     1       6.778  -8.918  -7.606  0.00  0.00    -0.391 OA
ATOM     32  H   UNL     1       6.165  -9.575  -7.247  0.00  0.00    +0.210 HD
ENDBRANCH  30  31
BRANCH  30  33
ATOM     33  C   UNL     1       8.714 -10.024  -6.673  0.00  0.00    +0.189 C 
BRANCH  33  34
ATOM     34  O   UNL     1       9.205 -10.418  -7.955  0.00  0.00    -0.373 OA
BRANCH  34  35
ATOM     35  C   UNL     1       9.945 -11.641  -7.944  0.00  0.00    +0.186 C 
BRANCH  35  36
ATOM     36  C   UNL     1      10.412 -11.958  -9.342  0.00  0.00    -0.007 C 
ATOM     37  C   UNL     1      11.643 -12.354  -9.546  0.00  0.00    +0.006 C 
ENDBRANCH  35  36
ENDBRANCH  34  35
ENDBRANCH  33  34
ENDBRANCH  30  33
ENDBRANCH  29  30
ENDBRANCH  21  29
ENDBRANCH  20  21
ENDBRANCH  10  20
TORSDOF 12
