REMARK  Name = ZINC39672846
REMARK  8 active torsions:
REMARK  status: ('A' for Active; 'I' for Inactive)
REMARK    1  A    between atoms: C_1  and  C_2
REMARK    2  A    between atoms: C_2  and  C_3
REMARK    3  A    between atoms: C_3  and  C_5
REMARK    4  A    between atoms: C_3  and  C_6
REMARK    5  A    between atoms: C_10  and  C_19
REMARK    6  A    between atoms: N_21  and  C_22
REMARK    7  A    between atoms: C_22  and  C_23
REMARK    8  A    between atoms: C_23  and  N_29
REMARK                            x       y       z     vdW  Elec       q    Type
REMARK                         _______ _______ _______ _____ _____    ______ ____
ROOT
ATOM      1  C   UNL     1       0.520  -2.208  -1.459  0.00  0.00    +0.218 C 
ATOM      2  O   UNL     1       0.055  -2.870  -0.555  0.00  0.00    -0.275 OA
ATOM      3  N   UNL     1       1.188  -2.811  -2.462  0.00  0.00    -0.300 N 
ATOM      4  C   UNL     1       1.828  -2.176  -3.638  0.00  0.00    +0.121 C 
ATOM      5  C   UNL     1       3.143  -2.962  -3.839  0.00  0.00    +0.100 C 
ATOM      6  C   UNL     1       2.889  -4.328  -3.181  0.00  0.00    -0.004 C 
ATOM      7  C   UNL     1       1.456  -4.259  -2.633  0.00  0.00    +0.115 C 
ATOM      8  C   UNL     1       3.007  -5.443  -4.216  0.00  0.00    -0.010 C 
ATOM      9  C   UNL     1       2.807  -6.796  -3.527  0.00  0.00    -0.082 C 
ATOM     10  N   UNL     1       3.818  -6.967  -2.478  0.00  0.00    +0.379 N 
ATOM     11  C   UNL     1       3.639  -5.946  -1.438  0.00  0.00    -0.082 C 
ATOM     12  C   UNL     1       3.874  -4.557  -2.039  0.00  0.00    -0.010 C 
ATOM     13  H   UNL     1       3.723  -7.883  -2.067  0.00  0.00    -0.086 HD
ATOM     14  H   UNL     1       4.739  -6.876  -2.881  0.00  0.00    -0.086 HD
ENDROOT
BRANCH   5  15
ATOM     15  C   UNL     1       3.436  -3.130  -5.308  0.00  0.00    +0.218 C 
ATOM     16  O   UNL     1       2.523  -3.210  -6.102  0.00  0.00    -0.275 OA
ATOM     17  N   UNL     1       4.711  -3.190  -5.738  0.00  0.00    -0.313 N 
ATOM     18  H   UNL     1       5.441  -3.126  -5.103  0.00  0.00    +0.149 HD
BRANCH  17  19
ATOM     19  C   UNL     1       4.995  -3.354  -7.166  0.00  0.00    +0.126 C 
BRANCH  19  20
ATOM     20  C   UNL     1       6.503  -3.517  -7.371  0.00  0.00    +0.038 C 
ATOM     21  C   UNL     1       6.813  -3.556  -8.868  0.00  0.00    +0.024 C 
ATOM     22  C   UNL     1       6.080  -4.736  -9.511  0.00  0.00    +0.002 C 
ATOM     23  C   UNL     1       6.545  -6.040  -8.860  0.00  0.00    +0.000 C 
ATOM     24  C   UNL     1       6.235  -6.001  -7.362  0.00  0.00    +0.002 C 
ATOM     25  C   UNL     1       6.967  -4.821  -6.720  0.00  0.00    +0.024 C 
BRANCH  20  26
ATOM     26  N   UNL     1       7.206  -2.384  -6.754  0.00  0.00    -0.291 NA
ATOM     27  C   UNL     1       6.743  -1.107  -7.316  0.00  0.00    +0.113 C 
ATOM     28  C   UNL     1       7.457   0.046  -6.606  0.00  0.00    +0.175 C 
ATOM     29  O   UNL     1       8.871  -0.122  -6.737  0.00  0.00    -0.377 OA
ATOM     30  C   UNL     1       9.356  -1.355  -6.199  0.00  0.00    +0.175 C 
ATOM     31  C   UNL     1       8.662  -2.523  -6.906  0.00  0.00    +0.113 C 
ENDBRANCH  20  26
ENDBRANCH  19  20
ENDBRANCH  17  19
ENDBRANCH   5  15
BRANCH   1  32
ATOM     32  C   UNL     1       0.351  -0.710  -1.460  0.00  0.00    +0.072 C 
ATOM     33  C   UNL     1      -0.407  -0.284  -2.719  0.00  0.00    +0.017 C 
BRANCH  32  35
ATOM     34  C   UNL     1      -0.504   1.242  -0.156  0.00  0.00    +0.004 C 
ATOM     35  C   UNL     1      -0.439  -0.285  -0.221  0.00  0.00    +0.009 C 
ENDBRANCH  32  35
ENDBRANCH   1  32
TORSDOF 6
