REMARK  Name = ZINC65990653
REMARK  7 active torsions:
REMARK  status: ('A' for Active; 'I' for Inactive)
REMARK    1  A    between atoms: C_1  and  C_2
REMARK    2  A    between atoms: C_2  and  C_3
REMARK    3  A    between atoms: C_2  and  N_15
REMARK    4  A    between atoms: C_7  and  N_9
REMARK    5  A    between atoms: N_18  and  C_19
REMARK    6  A    between atoms: C_19  and  C_20
REMARK    7  A    between atoms: C_20  and  C_21
REMARK                            x       y       z     vdW  Elec       q    Type
REMARK                         _______ _______ _______ _____ _____    ______ ____
ROOT
ATOM      1  N   UNL     1       0.711  -0.489   1.189  0.00  0.00    -0.293 N 
ATOM      2  C   UNL     1       0.051  -0.633   2.355  0.00  0.00    +0.300 C 
ATOM      3  O   UNL     1      -1.132  -0.361   2.423  0.00  0.00    -0.253 OA
ATOM      4  N   UNL     1       0.703  -1.080   3.447  0.00  0.00    -0.299 N 
ATOM      5  H   UNL     1       1.654  -0.707   1.135  0.00  0.00    +0.151 HD
ATOM      6  H   UNL     1       1.647  -1.298   3.394  0.00  0.00    +0.150 HD
ENDROOT
BRANCH   1   8
ATOM      7  C   UNL     1      -0.019   1.526   0.010  0.00  0.00    +0.033 C 
ATOM      8  C   UNL     1       0.002  -0.004   0.002  0.00  0.00    +0.102 C 
BRANCH   8   9
ATOM      9  C   UNL     1       0.707  -0.490  -1.238  0.00  0.00    -0.026 A 
ATOM     10  C   UNL     1       2.090  -0.510  -1.283  0.00  0.00    +0.005 A 
ATOM     11  C   UNL     1       2.740  -0.956  -2.419  0.00  0.00    +0.002 A 
ATOM     12  C   UNL     1       2.012  -1.382  -3.512  0.00  0.00    +0.023 A 
ATOM     13  C   UNL     1       0.624  -1.362  -3.470  0.00  0.00    +0.040 A 
ATOM     14  C   UNL     1      -0.027  -0.920  -2.325  0.00  0.00    +0.029 A 
BRANCH  13  15
ATOM     15  N   UNL     1      -0.117  -1.793  -4.576  0.00  0.00    -0.234 N 
ATOM     16  C   UNL     1       0.433  -2.298  -5.849  0.00  0.00    +0.158 C 
ATOM     17  C   UNL     1      -0.805  -2.958  -6.502  0.00  0.00    +0.253 C 
ATOM     18  O   UNL     1      -1.890  -2.254  -5.867  0.00  0.00    -0.448 OA
ATOM     19  C   UNL     1      -1.460  -1.827  -4.667  0.00  0.00    +0.407 C 
ATOM     20  O   UNL     1      -2.204  -1.502  -3.763  0.00  0.00    -0.226 OA
ENDBRANCH  13  15
ENDBRANCH   8   9
ENDBRANCH   1   8
BRANCH   4  21
ATOM     21  C   UNL     1      -0.014  -1.237   4.715  0.00  0.00    +0.110 C 
BRANCH  21  22
ATOM     22  C   UNL     1       0.950  -1.754   5.785  0.00  0.00    +0.054 C 
BRANCH  22  23
ATOM     23  C   UNL     1       0.212  -1.915   7.090  0.00  0.00    -0.046 A 
ATOM     24  C   UNL     1       0.146  -0.860   7.981  0.00  0.00    +0.005 A 
ATOM     25  C   UNL     1      -0.530  -1.007   9.177  0.00  0.00    +0.020 A 
ATOM     26  C   UNL     1      -1.140  -2.211   9.483  0.00  0.00    +0.041 A 
ATOM     27  C   UNL     1      -1.074  -3.266   8.591  0.00  0.00    +0.020 A 
ATOM     28  C   UNL     1      -0.402  -3.116   7.392  0.00  0.00    +0.005 A 
ATOM     29 CL   UNL     1      -1.989  -2.396  10.986  0.00  0.00    -0.084 Cl
ENDBRANCH  22  23
ENDBRANCH  21  22
ENDBRANCH   4  21
TORSDOF 6
