REMARK  Name = ZINC08020339
REMARK  11 active torsions:
REMARK  status: ('A' for Active; 'I' for Inactive)
REMARK    1  A    between atoms: C_1  and  C_2
REMARK    2  A    between atoms: C_2  and  C_3
REMARK    3  A    between atoms: C_2  and  C_4
REMARK    4  A    between atoms: C_4  and  C_5
REMARK    5  A    between atoms: C_5  and  N_6
REMARK    6  A    between atoms: N_6  and  C_7
REMARK    7  A    between atoms: C_7  and  N_9
REMARK    8  A    between atoms: N_9  and  N_10
REMARK    9  A    between atoms: C_11  and  C_13
REMARK   10  A    between atoms: C_16  and  O_20
REMARK   11  A    between atoms: O_20  and  C_21
REMARK                            x       y       z     vdW  Elec       q    Type
REMARK                         _______ _______ _______ _____ _____    ______ ____
ROOT
ATOM      1  N   UNL     1       3.633   1.766  -0.024  0.00  0.00    -0.231 N 
ATOM      2  C   UNL     1       2.477   1.074  -0.016  0.00  0.00    +0.260 C 
ATOM      3  O   UNL     1       2.496  -0.142  -0.024  0.00  0.00    -0.269 OA
ATOM      4  H   UNL     1       3.616   2.866  -0.017  0.00  0.00    +0.173 HD
ENDROOT
BRANCH   2   5
ATOM      5  C   UNL     1       1.187   1.792   0.000  0.00  0.00    +0.041 A 
ATOM      6  C   UNL     1      -0.013   1.076   0.008  0.00  0.00    +0.036 A 
ATOM      7  C   UNL     1      -1.215   1.750   0.017  0.00  0.00    +0.085 A 
ATOM      8  C   UNL     1      -1.235   3.140   0.031  0.00  0.00    +0.157 A 
ATOM      9  C   UNL     1      -0.043   3.856   0.023  0.00  0.00    +0.085 A 
ATOM     10  C   UNL     1       1.163   3.189   0.008  0.00  0.00    +0.036 A 
ATOM     11 CL   UNL     1      -0.073   5.591   0.033  0.00  0.00    -0.080 Cl
ATOM     12 CL   UNL     1      -2.706   0.861   0.019  0.00  0.00    -0.080 Cl
BRANCH   8  13
ATOM     13  O   UNL     1      -2.421   3.800   0.047  0.00  0.00    -0.492 OA
ATOM     14  C   UNL     1      -3.001   4.123  -1.218  0.00  0.00    +0.277 C 
ENDBRANCH   8  13
ENDBRANCH   2   5
BRANCH   1  15
ATOM     15  N   UNL     1       4.857   1.085  -0.040  0.00  0.00    -0.246 N 
ATOM     16  H   UNL     1       4.875  -0.015  -0.046  0.00  0.00    +0.172 HD
BRANCH  15  17
ATOM     17  C   UNL     1       6.014   1.777  -0.047  0.00  0.00    +0.147 C 
ATOM     18  S   UNL     1       7.510   0.944  -0.066  0.00  0.00    -0.017 S 
BRANCH  17  19
ATOM     19  N   UNL     1       5.993   3.124  -0.039  0.00  0.00    -0.325 N 
ATOM     20  H   UNL     1       5.032   3.659  -0.026  0.00  0.00    +0.148 HD
BRANCH  19  21
ATOM     21  C   UNL     1       7.250   3.877  -0.047  0.00  0.00    +0.103 C 
BRANCH  21  22
ATOM     22  C   UNL     1       6.947   5.376  -0.035  0.00  0.00    +0.021 C 
BRANCH  22  24
ATOM     23  C   UNL     1       8.997   5.909  -1.360  0.00  0.00    +0.007 C 
ATOM     24  C   UNL     1       8.260   6.162  -0.044  0.00  0.00    -0.016 C 
ATOM     25  C   UNL     1       7.960   7.656   0.094  0.00  0.00    +0.007 C 
ENDBRANCH  22  24
ENDBRANCH  21  22
ENDBRANCH  19  21
ENDBRANCH  17  19
ENDBRANCH  15  17
ENDBRANCH   1  15
TORSDOF 8
