REMARK  Name = ZINC60154537
REMARK  10 active torsions:
REMARK  status: ('A' for Active; 'I' for Inactive)
REMARK    1  A    between atoms: C_1  and  C_2
REMARK    2  A    between atoms: C_2  and  N_3
REMARK    3  A    between atoms: N_3  and  C_4
REMARK    4  A    between atoms: N_3  and  C_6
REMARK    5  A    between atoms: C_4  and  C_5
REMARK    6  A    between atoms: C_6  and  C_8
REMARK    7  A    between atoms: C_6  and  C_32
REMARK    8  A    between atoms: C_8  and  N_9
REMARK    9  A    between atoms: C_10  and  C_12
REMARK   10  A    between atoms: C_16  and  N_18
REMARK                            x       y       z     vdW  Elec       q    Type
REMARK                         _______ _______ _______ _____ _____    ______ ____
ROOT
ATOM      1  C   UNL     1      -1.008  -4.728   0.644  0.00  0.00    +0.039 A 
ATOM      2  C   UNL     1      -1.527  -4.999   1.912  0.00  0.00    +0.013 A 
ATOM      3  C   UNL     1      -1.548  -6.295   2.386  0.00  0.00    +0.003 A 
ATOM      4  C   UNL     1      -1.057  -7.328   1.610  0.00  0.00    +0.025 A 
ATOM      5  C   UNL     1      -0.539  -7.069   0.347  0.00  0.00    +0.057 A 
ATOM      6  C   UNL     1      -0.519  -5.771  -0.141  0.00  0.00    +0.038 A 
ENDROOT
BRANCH   5   7
ATOM      7  N   UNL     1      -0.043  -8.118  -0.435  0.00  0.00    -0.188 N 
ATOM      8  C   UNL     1      -0.168  -8.071  -1.777  0.00  0.00    +0.240 C 
ATOM      9  O   UNL     1      -0.749  -7.149  -2.311  0.00  0.00    -0.273 OA
ATOM     10  C   UNL     1       0.431  -9.191  -2.607  0.00  0.00    +0.093 C 
ATOM     11  C   UNL     1      -0.542 -10.375  -2.544  0.00  0.00    +0.040 C 
ATOM     12  C   UNL     1       0.126 -11.646  -2.966  0.00  0.00    -0.030 C 
ATOM     13  C   UNL     1       1.407 -11.814  -3.019  0.00  0.00    -0.030 C 
ATOM     14  C   UNL     1       2.402 -10.744  -2.682  0.00  0.00    +0.040 C 
ATOM     15  C   UNL     1       1.756  -9.586  -1.941  0.00  0.00    +0.092 C 
ATOM     16  C   UNL     1       1.495  -9.936  -0.502  0.00  0.00    +0.234 C 
ATOM     17  O   UNL     1       2.092 -10.846   0.032  0.00  0.00    -0.274 OA
ATOM     18  N   UNL     1       0.586  -9.209   0.183  0.00  0.00    -0.227 N 
ATOM     19  H   UNL     1       0.366  -9.445   1.098  0.00  0.00    +0.173 HD
ENDBRANCH   5   7
BRANCH   1  21
ATOM     20  N   UNL     1      -1.356  -2.322   0.934  0.00  0.00    -0.313 N 
ATOM     21  C   UNL     1      -0.984  -3.341   0.134  0.00  0.00    +0.244 C 
ATOM     22  O   UNL     1      -0.629  -3.119  -1.007  0.00  0.00    -0.270 OA
ATOM     23  H   UNL     1      -1.570  -2.489   1.865  0.00  0.00    +0.149 HD
BRANCH  20  24
ATOM     24  C   UNL     1      -1.438  -0.961   0.397  0.00  0.00    +0.094 C 
BRANCH  24  25
ATOM     25  C   UNL     1      -1.739   0.018   1.533  0.00  0.00    -0.020 C 
BRANCH  25  26
ATOM     26  C   UNL     1      -1.720   1.428   0.999  0.00  0.00    -0.059 A 
ATOM     27  C   UNL     1      -1.924   1.659  -0.348  0.00  0.00    +0.002 A 
ATOM     28  C   UNL     1      -1.907   2.952  -0.837  0.00  0.00    +0.000 A 
ATOM     29  C   UNL     1      -1.686   4.013   0.021  0.00  0.00    +0.000 A 
ATOM     30  C   UNL     1      -1.482   3.781   1.368  0.00  0.00    +0.000 A 
ATOM     31  C   UNL     1      -1.504   2.489   1.858  0.00  0.00    +0.002 A 
ENDBRANCH  25  26
BRANCH  25  32
ATOM     32  N   UNL     1      -0.721  -0.122   2.583  0.00  0.00    +0.385 N 
ATOM     33  H   UNL     1      -0.417  -1.083   2.631  0.00  0.00    -0.081 HD
BRANCH  32  35
ATOM     34  C   UNL     1       0.972   0.379   0.885  0.00  0.00    -0.017 C 
ATOM     35  C   UNL     1       0.428   0.739   2.269  0.00  0.00    -0.081 C 
ENDBRANCH  32  35
BRANCH  32  36
ATOM     36  C   UNL     1      -1.292   0.277   3.876  0.00  0.00    -0.081 C 
ATOM     37  C   UNL     1      -2.337  -0.753   4.311  0.00  0.00    -0.017 C 
ENDBRANCH  32  36
ENDBRANCH  25  32
ENDBRANCH  24  25
ENDBRANCH  20  24
ENDBRANCH   1  21
TORSDOF 8
