REMARK  Name = ZINC00867196
REMARK  6 active torsions:
REMARK  status: ('A' for Active; 'I' for Inactive)
REMARK    1  A    between atoms: C_1  and  C_2
REMARK    2  A    between atoms: C_3  and  N_9
REMARK    3  A    between atoms: C_10  and  C_12
REMARK    4  A    between atoms: C_13  and  C_29
REMARK    5  A    between atoms: C_18  and  C_20
REMARK    6  A    between atoms: C_23  and  N_26
REMARK                            x       y       z     vdW  Elec       q    Type
REMARK                         _______ _______ _______ _____ _____    ______ ____
ROOT
ATOM      1  C   UNL     1      -3.542   0.966   2.016  0.00  0.00    +0.056 C 
ATOM      2  C   UNL     1      -4.667   1.609   2.395  0.00  0.00    +0.017 C 
ATOM      3  N   UNL     1      -5.500   2.175   1.473  0.00  0.00    -0.300 N 
ATOM      4  C   UNL     1      -5.279   2.143   0.153  0.00  0.00    +0.135 C 
ATOM      5  S   UNL     1      -6.405   2.894  -0.895  0.00  0.00    -0.019 S 
ATOM      6  N   UNL     1      -4.198   1.538  -0.378  0.00  0.00    -0.315 N 
ATOM      7  C   UNL     1      -3.236   0.895   0.534  0.00  0.00    +0.139 C 
ATOM      8  C   UNL     1      -5.009   1.703   3.860  0.00  0.00    +0.061 C 
ATOM      9  H   UNL     1      -6.297   2.627   1.793  0.00  0.00    +0.154 HD
ATOM     10  H   UNL     1      -4.056   1.526  -1.337  0.00  0.00    +0.149 HD
ENDROOT
BRANCH   7  11
ATOM     11  C   UNL     1      -1.887   1.528   0.307  0.00  0.00    -0.023 A 
ATOM     12  C   UNL     1      -0.785   0.733   0.053  0.00  0.00    +0.008 A 
ATOM     13  C   UNL     1       0.451   1.313  -0.161  0.00  0.00    +0.033 A 
ATOM     14  C   UNL     1       0.587   2.688  -0.114  0.00  0.00    +0.126 A 
ATOM     15  C   UNL     1      -0.514   3.483   0.145  0.00  0.00    +0.033 A 
ATOM     16  C   UNL     1      -1.751   2.902   0.357  0.00  0.00    +0.008 A 
BRANCH  14  17
ATOM     17  N   UNL     1       1.911   3.310  -0.342  0.00  0.00    +0.056 N 
ATOM     18  O   UNL     1       2.881   2.610  -0.571  0.00  0.00    -0.126 OA
ATOM     19  O   UNL     1       2.030   4.521  -0.301  0.00  0.00    -0.126 OA
ENDBRANCH  14  17
ENDBRANCH   7  11
BRANCH   1  21
ATOM     20  N   UNL     1      -1.738   1.127   3.581  0.00  0.00    -0.281 N 
ATOM     21  C   UNL     1      -2.678   0.378   2.971  0.00  0.00    +0.248 C 
ATOM     22  O   UNL     1      -2.784  -0.805   3.241  0.00  0.00    -0.270 OA
ATOM     23  H   UNL     1      -1.588   2.042   3.298  0.00  0.00    +0.155 HD
BRANCH  20  26
ATOM     24  C   UNL     1      -0.810   2.879   5.622  0.00  0.00    +0.047 C 
ATOM     25  C   UNL     1      -0.505   1.403   5.639  0.00  0.00    -0.011 A 
ATOM     26  C   UNL     1      -0.978   0.584   4.622  0.00  0.00    +0.038 A 
ATOM     27  C   UNL     1      -0.691  -0.775   4.638  0.00  0.00    +0.023 A 
ATOM     28  C   UNL     1       0.060  -1.309   5.668  0.00  0.00    +0.003 A 
ATOM     29  C   UNL     1       0.525  -0.493   6.682  0.00  0.00    +0.020 A 
ATOM     30  C   UNL     1       0.240   0.862   6.670  0.00  0.00    +0.046 A 
ATOM     31 CL   UNL     1       0.826   1.883   7.945  0.00  0.00    -0.083 Cl
ENDBRANCH  20  26
ENDBRANCH   1  21
TORSDOF 4
