REMARK  Name = ZINC65461909
REMARK  5 active torsions:
REMARK  status: ('A' for Active; 'I' for Inactive)
REMARK    1  A    between atoms: C_1  and  C_2
REMARK    2  A    between atoms: C_4  and  N_14
REMARK    3  A    between atoms: C_6  and  C_8
REMARK    4  A    between atoms: C_16  and  N_22
REMARK    5  A    between atoms: C_18  and  O_21
REMARK                            x       y       z     vdW  Elec       q    Type
REMARK                         _______ _______ _______ _____ _____    ______ ____
ROOT
ATOM      1  N   UNL     1       0.029  -2.827  -2.332  0.00  0.00    -0.314 N 
ATOM      2  C   UNL     1      -0.062  -4.295  -2.427  0.00  0.00    +0.094 C 
ATOM      3  C   UNL     1      -0.632  -4.566  -3.842  0.00  0.00    -0.020 C 
ATOM      4  C   UNL     1       0.062  -3.457  -4.675  0.00  0.00    +0.120 C 
ATOM      5  C   UNL     1       0.118  -2.271  -3.690  0.00  0.00    +0.136 C 
ENDROOT
BRANCH   1   9
ATOM      6  C   UNL     1      -0.018   1.503   0.010  0.00  0.00    +0.066 C 
ATOM      7  C   UNL     1       0.002  -0.004   0.002  0.00  0.00    +0.044 A 
ATOM      8  C   UNL     1       0.006  -0.696  -1.194  0.00  0.00    +0.066 A 
ATOM      9  C   UNL     1       0.025  -2.092  -1.157  0.00  0.00    +0.125 A 
ATOM     10  N   UNL     1       0.039  -2.705   0.021  0.00  0.00    -0.213 NA
ATOM     11  C   UNL     1       0.035  -2.005   1.147  0.00  0.00    +0.162 A 
ATOM     12  N   UNL     1       0.022  -0.679   1.141  0.00  0.00    -0.232 NA
BRANCH  11  13
ATOM     13  C   UNL     1       0.050  -2.722   2.445  0.00  0.00    +0.019 A 
ATOM     14  C   UNL     1       0.074  -4.115   2.474  0.00  0.00    +0.011 A 
ATOM     15  C   UNL     1       0.089  -4.777   3.685  0.00  0.00    +0.001 A 
ATOM     16  C   UNL     1       0.079  -4.061   4.868  0.00  0.00    +0.000 A 
ATOM     17  C   UNL     1       0.055  -2.678   4.845  0.00  0.00    +0.001 A 
ATOM     18  C   UNL     1       0.046  -2.005   3.640  0.00  0.00    +0.011 A 
ENDBRANCH  11  13
ENDBRANCH   1   9
BRANCH   3  19
ATOM     19  N   UNL     1      -0.248  -5.902  -4.317  0.00  0.00    +0.384 N 
ATOM     20  C   UNL     1      -0.768  -6.105  -5.675  0.00  0.00    -0.078 C 
ATOM     21  C   UNL     1      -0.303  -7.462  -6.206  0.00  0.00    -0.019 C 
ATOM     22  C   UNL     1      -0.825  -8.570  -5.287  0.00  0.00    -0.004 C 
ATOM     23  C   UNL     1      -0.337  -8.308  -3.859  0.00  0.00    -0.019 C 
ATOM     24  C   UNL     1      -0.801  -6.919  -3.415  0.00  0.00    -0.078 C 
ATOM     25  H   UNL     1       0.758  -5.977  -4.330  0.00  0.00    -0.081 HD
ENDBRANCH   3  19
BRANCH   4  26
ATOM     26  O   UNL     1      -0.719  -3.124  -5.824  0.00  0.00    -0.392 OA
ATOM     27  H   UNL     1      -0.329  -2.435  -6.379  0.00  0.00    +0.210 HD
ENDBRANCH   4  26
TORSDOF 4
