REMARK  Name = ZINC43742990
REMARK  10 active torsions:
REMARK  status: ('A' for Active; 'I' for Inactive)
REMARK    1  A    between atoms: C_1  and  C_2
REMARK    2  A    between atoms: C_3  and  C_31
REMARK    3  A    between atoms: C_9  and  C_30
REMARK    4  A    between atoms: C_22  and  C_29
REMARK    5  A    between atoms: C_25  and  O_28
REMARK    6  A    between atoms: C_31  and  C_32
REMARK    7  A    between atoms: C_32  and  C_33
REMARK    8  A    between atoms: C_33  and  C_35
REMARK    9  A    between atoms: C_33  and  C_36
REMARK   10  A    between atoms: C_36  and  O_37
REMARK                            x       y       z     vdW  Elec       q    Type
REMARK                         _______ _______ _______ _____ _____    ______ ____
ROOT
ATOM      1  C   UNL     1      -0.015   1.682   0.207  0.00  0.00    +0.043 C 
ATOM      2  C   UNL     1      -0.208   0.185   0.213  0.00  0.00    -0.028 C 
ATOM      3  C   UNL     1      -0.556  -0.494  -0.758  0.00  0.00    +0.098 C 
ATOM      4  O   UNL     1      -0.706  -1.815  -0.512  0.00  0.00    -0.493 OA
ATOM      5  C   UNL     1       0.022  -2.084   0.695  0.00  0.00    +0.181 C 
ATOM      6  C   UNL     1      -0.128  -0.761   1.413  0.00  0.00    +0.065 C 
ATOM      7  C   UNL     1       1.238  -0.664   2.118  0.00  0.00    -0.019 C 
ATOM      8  C   UNL     1       1.609   0.629   2.797  0.00  0.00    +0.008 C 
ATOM      9  C   UNL     1       3.124   0.993   2.616  0.00  0.00    +0.005 C 
ATOM     10  C   UNL     1       3.925  -0.248   2.621  0.00  0.00    +0.003 C 
ATOM     11  C   UNL     1       3.638  -1.056   1.270  0.00  0.00    +0.000 C 
ATOM     12  C   UNL     1       2.222  -0.972   0.974  0.00  0.00    +0.003 C 
ATOM     13  C   UNL     1       1.555  -2.237   0.320  0.00  0.00    +0.049 C 
ATOM     14  C   UNL     1       4.421  -0.394   0.166  0.00  0.00    +0.031 C 
ATOM     15  C   UNL     1       5.844  -0.140   0.504  0.00  0.00    -0.027 C 
ATOM     16  C   UNL     1       6.247   0.045   1.766  0.00  0.00    -0.065 C 
ATOM     17  C   UNL     1       5.386  -0.133   2.867  0.00  0.00    -0.008 C 
ATOM     18  C   UNL     1       5.620   1.131   3.800  0.00  0.00    +0.014 C 
ATOM     19  C   UNL     1       7.111   1.321   4.135  0.00  0.00    +0.032 C 
ATOM     20  C   UNL     1       7.872   1.491   2.823  0.00  0.00    +0.119 C 
ATOM     21  C   UNL     1       7.686   0.302   1.906  0.00  0.00    +0.062 C 
ATOM     22  C   UNL     1       5.855  -1.310   3.724  0.00  0.00    +0.016 C 
ATOM     23  C   UNL     1       1.242  -1.802   3.141  0.00  0.00    +0.012 C 
ENDROOT
BRANCH  20  24
ATOM     24  O   UNL     1       9.244   1.776   3.116  0.00  0.00    -0.391 OA
ATOM     25  H   UNL     1       9.796   1.898   2.331  0.00  0.00    +0.210 HD
ENDBRANCH  20  24
BRANCH   3  26
ATOM     26  C   UNL     1      -0.817   0.080  -2.195  0.00  0.00    +0.074 C 
BRANCH  26  27
ATOM     27  C   UNL     1       0.449  -0.070  -3.041  0.00  0.00    +0.013 C 
BRANCH  27  28
ATOM     28  C   UNL     1       0.194   0.489  -4.442  0.00  0.00    +0.012 C 
ATOM     29  C   UNL     1      -0.867  -0.360  -5.146  0.00  0.00    +0.010 C 
BRANCH  28  30
ATOM     30  C   UNL     1       1.494   0.454  -5.250  0.00  0.00    +0.159 C 
BRANCH  30  31
ATOM     31  O   UNL     1       1.285   1.082  -6.516  0.00  0.00    -0.395 OA
ATOM     32  H   UNL     1       2.069   1.096  -7.082  0.00  0.00    +0.209 HD
ENDBRANCH  30  31
ENDBRANCH  28  30
ENDBRANCH  27  28
ENDBRANCH  26  27
ENDBRANCH   3  26
TORSDOF 6
