REMARK  Name = ZINC47926119
REMARK  6 active torsions:
REMARK  status: ('A' for Active; 'I' for Inactive)
REMARK    1  A    between atoms: C_1  and  C_2
REMARK    2  A    between atoms: C_4  and  N_24
REMARK    3  A    between atoms: C_6  and  S_9
REMARK    4  A    between atoms: C_7  and  C_8
REMARK    5  A    between atoms: S_9  and  N_12
REMARK    6  A    between atoms: C_16  and  C_18
REMARK                            x       y       z     vdW  Elec       q    Type
REMARK                         _______ _______ _______ _____ _____    ______ ____
ROOT
ATOM      1  S   UNL     1       0.364  -2.938   2.673  0.00  0.00    +0.062 S 
ATOM      2  O   UNL     1      -0.758  -2.491   3.422  0.00  0.00    -0.153 OA
ATOM      3  O   UNL     1       0.558  -4.304   2.333  0.00  0.00    -0.153 OA
ENDROOT
BRANCH   1   9
ATOM      4  C   UNL     1      -0.079   1.526  -0.009  0.00  0.00    +0.044 C 
ATOM      5  C   UNL     1       0.137   0.035  -0.020  0.00  0.00    -0.044 A 
ATOM      6  C   UNL     1       0.323  -0.628  -1.219  0.00  0.00    +0.036 A 
ATOM      7  C   UNL     1       0.521  -1.996  -1.229  0.00  0.00    +0.128 A 
ATOM      8  C   UNL     1       0.534  -2.701  -0.041  0.00  0.00    +0.061 A 
ATOM      9  C   UNL     1       0.349  -2.039   1.158  0.00  0.00    +0.111 A 
ATOM     10  C   UNL     1       0.155  -0.670   1.169  0.00  0.00    -0.021 A 
ATOM     11  C   UNL     1      -0.042   0.053   2.476  0.00  0.00    +0.046 C 
BRANCH   7  12
ATOM     12  N   UNL     1       0.720  -2.705  -2.513  0.00  0.00    +0.056 N 
ATOM     13  O   UNL     1       0.708  -2.088  -3.553  0.00  0.00    -0.126 OA
ATOM     14  O   UNL     1       0.893  -3.902  -2.522  0.00  0.00    -0.126 OA
ENDBRANCH   7  12
ENDBRANCH   1   9
BRANCH   1  15
ATOM     15  N   UNL     1       1.711  -2.463   3.511  0.00  0.00    -0.168 NA
ATOM     16  C   UNL     1       1.716  -1.658   4.746  0.00  0.00    +0.110 C 
ATOM     17  C   UNL     1       3.110  -0.983   4.774  0.00  0.00    +0.019 C 
ATOM     18  C   UNL     1       4.012  -2.107   4.198  0.00  0.00    +0.028 C 
ATOM     19  C   UNL     1       3.101  -2.780   3.150  0.00  0.00    +0.126 C 
BRANCH  19  20
ATOM     20  C   UNL     1       3.308  -4.273   3.170  0.00  0.00    +0.035 A 
ATOM     21  C   UNL     1       2.732  -5.139   4.028  0.00  0.00    +0.024 A 
ATOM     22  C   UNL     1       3.196  -6.428   3.700  0.00  0.00    +0.019 A 
ATOM     23  C   UNL     1       4.037  -6.301   2.654  0.00  0.00    +0.083 A 
ATOM     24  N   UNL     1       4.105  -4.981   2.321  0.00  0.00    -0.363 N 
ATOM     25  H   UNL     1       4.636  -4.607   1.600  0.00  0.00    +0.165 HD
ENDBRANCH  19  20
ENDBRANCH   1  15
TORSDOF 4
