REMARK  Name = ZINC09414611
REMARK  8 active torsions:
REMARK  status: ('A' for Active; 'I' for Inactive)
REMARK    1  A    between atoms: C_1  and  C_2
REMARK    2  A    between atoms: C_5  and  C_9
REMARK    3  A    between atoms: C_7  and  C_8
REMARK    4  A    between atoms: C_9  and  C_27
REMARK    5  A    between atoms: N_12  and  C_16
REMARK    6  A    between atoms: C_16  and  C_17
REMARK    7  A    between atoms: N_19  and  C_20
REMARK    8  A    between atoms: C_20  and  C_21
REMARK                            x       y       z     vdW  Elec       q    Type
REMARK                         _______ _______ _______ _____ _____    ______ ____
ROOT
ATOM      1  C   UNL     1      -8.475   2.348  -6.206  0.00  0.00    +0.164 C 
ATOM      2  C   UNL     1      -7.823   3.206  -5.140  0.00  0.00    +0.256 C 
ATOM      3  O   UNL     1      -7.946   4.403  -4.987  0.00  0.00    -0.272 OA
ATOM      4  N   UNL     1      -7.078   2.363  -4.399  0.00  0.00    -0.215 N 
ATOM      5  C   UNL     1      -7.173   1.103  -4.839  0.00  0.00    +0.310 C 
ATOM      6  O   UNL     1      -6.595   0.164  -4.329  0.00  0.00    -0.252 OA
ATOM      7  N   UNL     1      -7.980   0.992  -5.909  0.00  0.00    -0.278 N 
ATOM      8  H   UNL     1      -8.195   0.179  -6.392  0.00  0.00    +0.152 HD
ENDROOT
BRANCH   1  13
ATOM      9  C   UNL     1     -14.231   2.558  -5.745  0.00  0.00    +0.044 C 
ATOM     10  C   UNL     1     -12.730   2.503  -5.865  0.00  0.00    -0.048 A 
ATOM     11  C   UNL     1     -12.001   3.674  -5.965  0.00  0.00    +0.004 A 
ATOM     12  C   UNL     1     -10.625   3.624  -6.076  0.00  0.00    +0.007 A 
ATOM     13  C   UNL     1      -9.976   2.403  -6.085  0.00  0.00    -0.010 A 
ATOM     14  C   UNL     1     -10.705   1.232  -5.990  0.00  0.00    +0.010 A 
ATOM     15  C   UNL     1     -12.082   1.283  -5.875  0.00  0.00    -0.047 A 
ATOM     16  C   UNL     1     -12.876   0.007  -5.766  0.00  0.00    +0.044 C 
ENDBRANCH   1  13
BRANCH   1  17
ATOM     17  C   UNL     1      -8.039   2.782  -7.582  0.00  0.00    -0.011 A 
ATOM     18  C   UNL     1      -7.597   1.843  -8.495  0.00  0.00    +0.006 A 
ATOM     19  C   UNL     1      -7.202   2.240  -9.759  0.00  0.00    +0.000 A 
ATOM     20  C   UNL     1      -7.239   3.578 -10.106  0.00  0.00    +0.000 A 
ATOM     21  C   UNL     1      -7.676   4.518  -9.191  0.00  0.00    +0.000 A 
ATOM     22  C   UNL     1      -8.076   4.119  -7.929  0.00  0.00    +0.006 A 
ENDBRANCH   1  17
BRANCH   4  23
ATOM     23  C   UNL     1      -6.269   2.774  -3.249  0.00  0.00    +0.213 C 
BRANCH  23  24
ATOM     24  C   UNL     1      -4.881   3.132  -3.714  0.00  0.00    +0.231 C 
ATOM     25  O   UNL     1      -4.596   3.052  -4.890  0.00  0.00    -0.274 OA
ATOM     26  N   UNL     1      -3.956   3.542  -2.823  0.00  0.00    -0.314 N 
ATOM     27  H   UNL     1      -4.184   3.606  -1.882  0.00  0.00    +0.149 HD
BRANCH  26  28
ATOM     28  C   UNL     1      -2.607   3.890  -3.275  0.00  0.00    +0.107 C 
BRANCH  28  29
ATOM     29  C   UNL     1      -1.761   4.319  -2.074  0.00  0.00    +0.006 C 
ATOM     30  C   UNL     1      -0.320   4.563  -2.526  0.00  0.00    +0.005 C 
ATOM     31  C   UNL     1       0.525   4.992  -1.325  0.00  0.00    +0.000 C 
ATOM     32  C   UNL     1      -0.048   6.281  -0.733  0.00  0.00    +0.000 C 
ATOM     33  C   UNL     1      -1.490   6.038  -0.281  0.00  0.00    +0.000 C 
ATOM     34  C   UNL     1      -2.335   5.608  -1.482  0.00  0.00    +0.005 C 
ENDBRANCH  28  29
ENDBRANCH  26  28
ENDBRANCH  23  24
ENDBRANCH   4  23
TORSDOF 6
