REMARK  Name = ZINC12524717
REMARK  5 active torsions:
REMARK  status: ('A' for Active; 'I' for Inactive)
REMARK    1  A    between atoms: C_1  and  C_2
REMARK    2  A    between atoms: C_5  and  N_8
REMARK    3  A    between atoms: C_18  and  N_19
REMARK    4  A    between atoms: N_19  and  C_20
REMARK    5  A    between atoms: C_25  and  C_26
REMARK                            x       y       z     vdW  Elec       q    Type
REMARK                         _______ _______ _______ _____ _____    ______ ____
ROOT
ATOM      1  N   UNL     1       0.164  -4.170  -0.028  0.00  0.00    -0.202 N 
ATOM      2  C   UNL     1       0.011  -4.805  -1.202  0.00  0.00    +0.258 C 
ATOM      3  O   UNL     1      -0.073  -4.155  -2.227  0.00  0.00    -0.269 OA
ATOM      4  C   UNL     1      -0.057  -6.270  -1.268  0.00  0.00    +0.046 A 
ATOM      5  C   UNL     1      -0.216  -6.936  -2.484  0.00  0.00    +0.014 A 
ATOM      6  C   UNL     1      -0.275  -8.313  -2.505  0.00  0.00    +0.001 A 
ATOM      7  C   UNL     1      -0.178  -9.044  -1.330  0.00  0.00    +0.001 A 
ATOM      8  C   UNL     1      -0.021  -8.405  -0.117  0.00  0.00    +0.009 A 
ATOM      9  C   UNL     1       0.041  -7.017  -0.076  0.00  0.00    +0.000 A 
ATOM     10  C   UNL     1       0.209  -6.284   1.196  0.00  0.00    +0.059 C 
ATOM     11  C   UNL     1       0.311  -6.955   2.394  0.00  0.00    +0.085 C 
ATOM     12  C   UNL     1       0.269  -4.819   1.143  0.00  0.00    +0.259 C 
ATOM     13  O   UNL     1       0.412  -4.184   2.172  0.00  0.00    -0.269 OA
ENDROOT
BRANCH   1  18
ATOM     14  C   UNL     1       0.402   1.500  -0.020  0.00  0.00    +0.044 C 
ATOM     15  C   UNL     1       0.339  -0.006  -0.022  0.00  0.00    -0.050 A 
ATOM     16  C   UNL     1      -0.770  -0.649  -0.540  0.00  0.00    +0.005 A 
ATOM     17  C   UNL     1      -0.831  -2.029  -0.544  0.00  0.00    +0.024 A 
ATOM     18  C   UNL     1       0.223  -2.771  -0.027  0.00  0.00    +0.045 A 
ATOM     19  C   UNL     1       1.336  -2.122   0.492  0.00  0.00    +0.024 A 
ATOM     20  C   UNL     1       1.393  -0.742   0.489  0.00  0.00    +0.005 A 
ENDBRANCH   1  18
BRANCH  11  21
ATOM     21  N   UNL     1       0.301  -6.263   3.564  0.00  0.00    -0.320 N 
ATOM     22  H   UNL     1       0.140  -5.307   3.561  0.00  0.00    +0.152 HD
BRANCH  21  23
ATOM     23  C   UNL     1       0.522  -6.930   4.772  0.00  0.00    +0.034 A 
ATOM     24  C   UNL     1       0.758  -8.299   4.779  0.00  0.00    +0.023 A 
ATOM     25  C   UNL     1       0.977  -8.955   5.974  0.00  0.00    +0.002 A 
ATOM     26  C   UNL     1       0.961  -8.250   7.164  0.00  0.00    +0.000 A 
ATOM     27  C   UNL     1       0.726  -6.888   7.161  0.00  0.00    +0.005 A 
ATOM     28  C   UNL     1       0.512  -6.224   5.969  0.00  0.00    -0.029 A 
ATOM     29  C   UNL     1       0.263  -4.738   5.966  0.00  0.00    +0.045 C 
ENDBRANCH  21  23
ENDBRANCH  11  21
TORSDOF 3
