REMARK  Name = ZINC19575262
REMARK  6 active torsions:
REMARK  status: ('A' for Active; 'I' for Inactive)
REMARK    1  A    between atoms: C_1  and  C_2
REMARK    2  A    between atoms: C_7  and  O_31
REMARK    3  A    between atoms: N_13  and  C_14
REMARK    4  A    between atoms: C_14  and  C_15
REMARK    5  A    between atoms: C_18  and  S_20
REMARK    6  A    between atoms: S_20  and  C_21
REMARK                            x       y       z     vdW  Elec       q    Type
REMARK                         _______ _______ _______ _____ _____    ______ ____
ROOT
ATOM      1  C   UNL     1      -4.673  -1.660   0.037  0.00  0.00    +0.090 A 
ATOM      2  C   UNL     1      -5.188  -2.902   0.035  0.00  0.00    +0.044 A 
ATOM      3  C   UNL     1      -4.097  -3.800   0.015  0.00  0.00    +0.057 A 
ATOM      4  C   UNL     1      -2.971  -3.049   0.014  0.00  0.00    +0.169 A 
ATOM      5  O   UNL     1      -3.330  -1.753   0.024  0.00  0.00    -0.455 OA
ENDROOT
BRANCH   1   6
ATOM      6  C   UNL     1      -5.466  -0.378   0.051  0.00  0.00    -0.003 C 
BRANCH   6  16
ATOM      7  C   UNL     1      -7.808  -1.220   1.463  0.00  0.00    -0.012 C 
ATOM      8  C   UNL     1      -6.467  -0.995   2.165  0.00  0.00    -0.057 C 
ATOM      9  C   UNL     1      -6.724  -0.566   3.618  0.00  0.00    +0.069 C 
ATOM     10  N   UNL     1      -5.434  -0.277   4.225  0.00  0.00    -0.300 NA
ATOM     11  C   UNL     1      -5.408   0.079   5.643  0.00  0.00    +0.115 C 
ATOM     12  C   UNL     1      -4.159   0.976   5.831  0.00  0.00    +0.130 C 
ATOM     13  C   UNL     1      -3.577   1.158   4.402  0.00  0.00    +0.049 C 
ATOM     14  C   UNL     1      -4.803   0.870   3.518  0.00  0.00    +0.043 C 
ATOM     15  C   UNL     1      -4.449   0.391   2.116  0.00  0.00    -0.059 C 
ATOM     16  N   UNL     1      -5.711   0.031   1.441  0.00  0.00    +0.388 N 
ATOM     17  H   UNL     1      -6.340   0.933   1.432  0.00  0.00    -0.081 HD
BRANCH  12  18
ATOM     18  O   UNL     1      -4.534   2.240   6.382  0.00  0.00    -0.390 OA
ATOM     19  H   UNL     1      -3.766   3.002   6.581  0.00  0.00    +0.210 HD
ENDBRANCH  12  18
ENDBRANCH   6  16
ENDBRANCH   1   6
BRANCH   4  20
ATOM     20  S   UNL     1      -1.320  -3.662  -0.005  0.00  0.00    -0.014 S 
BRANCH  20  21
ATOM     21  C   UNL     1      -0.429  -2.143  -0.005  0.00  0.00    +0.175 A 
ATOM     22  N   UNL     1       0.933  -2.031  -0.018  0.00  0.00    -0.333 N 
ATOM     23  H   UNL     1       1.559  -2.935  -0.029  0.00  0.00    +0.168 HD
ATOM     24  C   UNL     1       1.234  -0.679  -0.013  0.00  0.00    +0.067 A 
ATOM     25  C   UNL     1       2.418   0.043  -0.021  0.00  0.00    +0.028 A 
ATOM     26  C   UNL     1       2.382   1.422  -0.013  0.00  0.00    +0.002 A 
ATOM     27  C   UNL     1       1.169   2.093   0.002  0.00  0.00    +0.002 A 
ATOM     28  C   UNL     1      -0.017   1.393   0.010  0.00  0.00    +0.030 A 
ATOM     29  C   UNL     1       0.002  -0.004   0.002  0.00  0.00    +0.090 A 
ATOM     30  N   UNL     1      -0.973  -0.950   0.006  0.00  0.00    -0.222 NA
ENDBRANCH  20  21
ENDBRANCH   4  20
TORSDOF 5
