REMARK  Name = ZINC21253222
REMARK  8 active torsions:
REMARK  status: ('A' for Active; 'I' for Inactive)
REMARK    1  A    between atoms: C_1  and  C_2
REMARK    2  A    between atoms: C_2  and  C_3
REMARK    3  A    between atoms: C_2  and  O_4
REMARK    4  A    between atoms: O_4  and  C_5
REMARK    5  A    between atoms: C_8  and  C_13
REMARK    6  A    between atoms: C_10  and  O_11
REMARK    7  A    between atoms: O_11  and  C_12
REMARK    8  A    between atoms: C_18  and  C_28
REMARK                            x       y       z     vdW  Elec       q    Type
REMARK                         _______ _______ _______ _____ _____    ______ ____
ROOT
ATOM      1  C   UNL     1       4.527   0.911  -3.801  0.00  0.00    +0.032 C 
ATOM      2  C   UNL     1       3.473  -0.180  -3.618  0.00  0.00    +0.059 C 
ATOM      3  C   UNL     1       3.005  -0.211  -2.172  0.00  0.00    +0.017 C 
ATOM      4  C   UNL     1       2.954   0.919  -1.449  0.00  0.00    +0.036 C 
ATOM      5  C   UNL     1       2.487   1.036  -0.017  0.00  0.00    +0.137 C 
ATOM      6  N   UNL     1       2.323  -0.231   0.663  0.00  0.00    -0.331 N 
ATOM      7  C   UNL     1       1.362  -1.154   0.249  0.00  0.00    +0.049 A 
ATOM      8  C   UNL     1       0.259  -1.450   1.032  0.00  0.00    +0.025 A 
ATOM      9  C   UNL     1      -0.724  -2.288   0.534  0.00  0.00    +0.002 A 
ATOM     10  C   UNL     1      -0.606  -2.828  -0.734  0.00  0.00    +0.002 A 
ATOM     11  C   UNL     1       0.506  -2.550  -1.511  0.00  0.00    +0.025 A 
ATOM     12  C   UNL     1       1.496  -1.726  -1.008  0.00  0.00    +0.052 A 
ATOM     13  N   UNL     1       2.658  -1.442  -1.716  0.00  0.00    -0.316 N 
ATOM     14  C   UNL     1       3.364   2.148  -2.018  0.00  0.00    +0.163 C 
ATOM     15  O   UNL     1       3.292   3.158  -1.345  0.00  0.00    -0.292 OA
ATOM     16  C   UNL     1       3.883   2.249  -3.421  0.00  0.00    +0.088 C 
ATOM     17  H   UNL     1       2.962  -0.480   1.524  0.00  0.00    +0.147 HD
ATOM     18  H   UNL     1       3.318  -2.303  -1.901  0.00  0.00    +0.152 HD
ENDROOT
BRANCH   5  19
ATOM     19  C   UNL     1       1.166   1.761  -0.003  0.00  0.00    -0.004 A 
ATOM     20  C   UNL     1       0.428   1.876  -1.166  0.00  0.00    +0.007 A 
ATOM     21  C   UNL     1      -0.781   2.546  -1.153  0.00  0.00    +0.000 A 
ATOM     22  C   UNL     1      -1.257   3.093   0.024  0.00  0.00    +0.001 A 
ATOM     23  C   UNL     1      -0.520   2.978   1.187  0.00  0.00    +0.020 A 
ATOM     24  C   UNL     1       0.693   2.312   1.174  0.00  0.00    +0.046 A 
ATOM     25 CL   UNL     1       1.620   2.169   2.635  0.00  0.00    -0.083 Cl
ENDBRANCH   5  19
BRANCH   1  29
ATOM     26  C   UNL     1       5.799   1.024  -7.882  0.00  0.00    +0.162 A 
ATOM     27  C   UNL     1       4.462   1.207  -7.565  0.00  0.00    +0.050 A 
ATOM     28  C   UNL     1       4.054   1.170  -6.244  0.00  0.00    +0.008 A 
ATOM     29  C   UNL     1       4.977   0.950  -5.238  0.00  0.00    -0.040 A 
ATOM     30  C   UNL     1       6.312   0.772  -5.548  0.00  0.00    +0.053 A 
ATOM     31  C   UNL     1       6.727   0.804  -6.870  0.00  0.00    +0.162 A 
BRANCH  31  32
ATOM     32  O   UNL     1       8.040   0.624  -7.176  0.00  0.00    -0.491 OA
ATOM     33  C   UNL     1       8.936   0.402  -6.086  0.00  0.00    +0.277 C 
ENDBRANCH  31  32
BRANCH  26  34
ATOM     34  O   UNL     1       6.202   1.061  -9.181  0.00  0.00    -0.486 OA
BRANCH  34  36
ATOM     35  C   UNL     1       5.907   2.000 -11.388  0.00  0.00    +0.051 C 
ATOM     36  C   UNL     1       5.218   1.411 -10.156  0.00  0.00    +0.167 C 
ATOM     37  C   UNL     1       4.433   0.161 -10.559  0.00  0.00    +0.051 C 
ENDBRANCH  34  36
ENDBRANCH  26  34
ENDBRANCH   1  29
TORSDOF 5
