REMARK  Name = ZINC19961978
REMARK  8 active torsions:
REMARK  status: ('A' for Active; 'I' for Inactive)
REMARK    1  A    between atoms: C_1  and  C_2
REMARK    2  A    between atoms: C_5  and  N_9
REMARK    3  A    between atoms: C_6  and  C_8
REMARK    4  A    between atoms: C_10  and  C_12
REMARK    5  A    between atoms: C_12  and  C_13
REMARK    6  A    between atoms: C_21  and  C_23
REMARK    7  A    between atoms: C_23  and  N_24
REMARK    8  A    between atoms: N_27  and  C_30
REMARK                            x       y       z     vdW  Elec       q    Type
REMARK                         _______ _______ _______ _____ _____    ______ ____
ROOT
ATOM      1  C   UNL     1       3.728   6.200   0.316  0.00  0.00    +0.170 C 
ATOM      2  C   UNL     1       3.713   7.704   0.328  0.00  0.00    +0.234 C 
ATOM      3  O   UNL     1       3.455   8.289  -0.703  0.00  0.00    -0.274 OA
ATOM      4  N   UNL     1       3.970   8.425   1.421  0.00  0.00    -0.312 N 
ATOM      5  C   UNL     1       4.381   7.867   2.701  0.00  0.00    +0.123 C 
ATOM      6  C   UNL     1       3.971   6.397   2.809  0.00  0.00    +0.127 C 
ATOM      7  N   UNL     1       4.352   5.720   1.558  0.00  0.00    -0.289 N 
ATOM      8  C   UNL     1       5.235   4.702   1.552  0.00  0.00    +0.200 C 
ATOM      9  O   UNL     1       5.531   4.163   0.506  0.00  0.00    -0.278 OA
ATOM     10  H   UNL     1       3.852   9.513   1.307  0.00  0.00    +0.149 HD
ENDROOT
BRANCH   1  11
ATOM     11  C   UNL     1       2.295   5.674   0.225  0.00  0.00    +0.128 C 
BRANCH  11  13
ATOM     12  N   UNL     1       1.162   3.485   0.009  0.00  0.00    -0.285 N 
ATOM     13  C   UNL     1       2.318   4.172   0.104  0.00  0.00    +0.219 C 
ATOM     14  O   UNL     1       3.377   3.580   0.091  0.00  0.00    -0.275 OA
ATOM     15  H   UNL     1       0.206   4.025  -0.071  0.00  0.00    +0.155 HD
BRANCH  12  20
ATOM     16  C   UNL     1       1.222  -2.188   0.022  0.00  0.00    +0.044 C 
ATOM     17  C   UNL     1       1.206  -0.680   0.019  0.00  0.00    -0.050 A 
ATOM     18  C   UNL     1       2.241   0.022   0.609  0.00  0.00    +0.005 A 
ATOM     19  C   UNL     1       2.229   1.403   0.608  0.00  0.00    +0.024 A 
ATOM     20  C   UNL     1       1.176   2.086   0.013  0.00  0.00    +0.036 A 
ATOM     21  C   UNL     1       0.139   1.378  -0.579  0.00  0.00    -0.029 A 
ATOM     22  C   UNL     1       0.156  -0.003  -0.574  0.00  0.00    +0.008 A 
ATOM     23  C   UNL     1      -1.002   2.115  -1.231  0.00  0.00    +0.045 C 
ENDBRANCH  12  20
ENDBRANCH  11  13
ENDBRANCH   1  11
BRANCH   8  24
ATOM     24  C   UNL     1       5.856   4.235   2.843  0.00  0.00    +0.019 C 
BRANCH  24  25
ATOM     25  N   UNL     1       6.777   3.124   2.570  0.00  0.00    +0.387 N 
ATOM     26  C   UNL     1       6.048   1.942   2.088  0.00  0.00    -0.059 C 
ATOM     27  C   UNL     1       7.048   0.836   1.740  0.00  0.00    +0.086 C 
ATOM     28  N   UNL     1       7.847   0.510   2.929  0.00  0.00    -0.333 N 
ATOM     29  C   UNL     1       8.575   1.692   3.411  0.00  0.00    +0.086 C 
ATOM     30  C   UNL     1       7.576   2.797   3.759  0.00  0.00    -0.059 C 
ATOM     31  H   UNL     1       7.466   3.445   1.775  0.00  0.00    -0.081 HD
BRANCH  28  32
ATOM     32  C   UNL     1       8.723  -0.548   2.669  0.00  0.00    +0.030 A 
ATOM     33  C   UNL     1      10.088  -0.386   2.871  0.00  0.00    +0.026 A 
ATOM     34  C   UNL     1      10.951  -1.433   2.618  0.00  0.00    +0.040 A 
ATOM     35  C   UNL     1      10.459  -2.641   2.153  0.00  0.00    +0.124 A 
ATOM     36  C   UNL     1       9.099  -2.804   1.947  0.00  0.00    +0.040 A 
ATOM     37  C   UNL     1       8.231  -1.760   2.203  0.00  0.00    +0.026 A 
ATOM     38  F   UNL     1      11.306  -3.663   1.902  0.00  0.00    -0.205 F 
ENDBRANCH  28  32
ENDBRANCH  24  25
ENDBRANCH   8  24
TORSDOF 6
