REMARK  Name = ZINC11462798
REMARK  11 active torsions:
REMARK  status: ('A' for Active; 'I' for Inactive)
REMARK    1  A    between atoms: C_1  and  C_2
REMARK    2  A    between atoms: C_2  and  C_3
REMARK    3  A    between atoms: C_2  and  N_4
REMARK    4  A    between atoms: C_8  and  C_10
REMARK    5  A    between atoms: C_10  and  O_11
REMARK    6  A    between atoms: O_11  and  C_12
REMARK    7  A    between atoms: C_12  and  C_14
REMARK    8  A    between atoms: C_14  and  S_15
REMARK    9  A    between atoms: S_15  and  C_16
REMARK   10  A    between atoms: C_19  and  C_27
REMARK   11  A    between atoms: N_20  and  C_21
REMARK                            x       y       z     vdW  Elec       q    Type
REMARK                         _______ _______ _______ _____ _____    ______ ____
ROOT
ATOM      1  C   UNL     1      -4.622   0.488   0.070  0.00  0.00    +0.197 A 
ATOM      2  N   UNL     1      -3.888  -0.591   0.226  0.00  0.00    -0.122 NA
ATOM      3  N   UNL     1      -2.642  -0.301   0.108  0.00  0.00    -0.128 NA
ATOM      4  C   UNL     1      -2.500   0.982  -0.132  0.00  0.00    +0.169 A 
ATOM      5  N   UNL     1      -3.764   1.530  -0.159  0.00  0.00    -0.270 N 
ENDROOT
BRANCH   4   6
ATOM      6  C   UNL     1      -1.225   1.703  -0.329  0.00  0.00    +0.020 A 
ATOM      7  C   UNL     1      -1.219   2.963  -0.932  0.00  0.00    +0.014 A 
ATOM      8  C   UNL     1      -0.027   3.634  -1.108  0.00  0.00    +0.039 A 
ATOM      9  C   UNL     1       1.163   3.058  -0.693  0.00  0.00    +0.123 A 
ATOM     10  C   UNL     1       1.163   1.806  -0.100  0.00  0.00    +0.039 A 
ATOM     11  C   UNL     1      -0.023   1.126   0.081  0.00  0.00    +0.014 A 
ATOM     12  F   UNL     1       2.328   3.720  -0.868  0.00  0.00    -0.205 F 
ENDBRANCH   4   6
BRANCH   5  13
ATOM     13  C   UNL     1      -4.101   2.873  -0.377  0.00  0.00    +0.051 A 
ATOM     14  C   UNL     1      -3.777   3.835   0.571  0.00  0.00    +0.026 A 
ATOM     15  C   UNL     1      -4.106   5.158   0.350  0.00  0.00    +0.002 A 
ATOM     16  C   UNL     1      -4.767   5.524  -0.808  0.00  0.00    +0.000 A 
ATOM     17  C   UNL     1      -5.096   4.568  -1.751  0.00  0.00    +0.002 A 
ATOM     18  C   UNL     1      -4.765   3.244  -1.539  0.00  0.00    +0.026 A 
ENDBRANCH   5  13
BRANCH   1  19
ATOM     19  S   UNL     1      -6.380   0.579   0.147  0.00  0.00    -0.074 S 
BRANCH  19  20
ATOM     20  C   UNL     1      -6.769  -1.157   0.482  0.00  0.00    +0.197 C 
BRANCH  20  21
ATOM     21  C   UNL     1      -8.263  -1.324   0.592  0.00  0.00    +0.318 C 
ATOM     22  O   UNL     1      -8.989  -0.368   0.457  0.00  0.00    -0.250 OA
BRANCH  21  23
ATOM     23  O   UNL     1      -8.786  -2.535   0.839  0.00  0.00    -0.455 OA
BRANCH  23  24
ATOM     24  C   UNL     1     -10.232  -2.622   0.932  0.00  0.00    +0.328 C 
BRANCH  24  29
ATOM     25  N   UNL     1     -13.597  -5.965   1.716  0.00  0.00    -0.297 N 
ATOM     26  C   UNL     1     -12.294  -5.644   1.589  0.00  0.00    +0.306 C 
ATOM     27  O   UNL     1     -11.442  -6.504   1.700  0.00  0.00    -0.252 OA
ATOM     28  N   UNL     1     -11.936  -4.369   1.339  0.00  0.00    -0.237 N 
ATOM     29  C   UNL     1     -10.633  -4.048   1.211  0.00  0.00    +0.258 C 
ATOM     30  O   UNL     1      -9.784  -4.906   1.322  0.00  0.00    -0.272 OA
ATOM     31  H   UNL     1     -14.368  -5.187   1.616  0.00  0.00    +0.151 HD
ATOM     32  H   UNL     1     -12.706  -3.591   1.238  0.00  0.00    +0.159 HD
BRANCH  25  34
ATOM     33  C   UNL     1     -13.926  -7.611   3.495  0.00  0.00    +0.027 C 
ATOM     34  C   UNL     1     -13.986  -7.351   1.988  0.00  0.00    +0.068 C 
ATOM     35  C   UNL     1     -15.412  -7.588   1.486  0.00  0.00    +0.027 C 
ENDBRANCH  25  34
ENDBRANCH  24  29
ENDBRANCH  23  24
ENDBRANCH  21  23
ENDBRANCH  20  21
ENDBRANCH  19  20
ENDBRANCH   1  19
TORSDOF 9
