REMARK  Name = ZINC38597781
REMARK  9 active torsions:
REMARK  status: ('A' for Active; 'I' for Inactive)
REMARK    1  A    between atoms: C_1  and  C_2
REMARK    2  A    between atoms: C_2  and  C_4
REMARK    3  A    between atoms: C_8  and  S_10
REMARK    4  A    between atoms: S_10  and  N_13
REMARK    5  A    between atoms: N_13  and  C_14
REMARK    6  A    between atoms: C_14  and  C_15
REMARK    7  A    between atoms: C_15  and  C_17
REMARK    8  A    between atoms: C_15  and  N_22
REMARK    9  A    between atoms: N_25  and  C_28
REMARK                            x       y       z     vdW  Elec       q    Type
REMARK                         _______ _______ _______ _____ _____    ______ ____
ROOT
ATOM      1  C   UNL     1       3.700  -5.683  -1.407  0.00  0.00    +0.015 C 
ENDROOT
BRANCH   1   2
ATOM      2  N   UNL     1       3.526  -7.109  -1.714  0.00  0.00    +0.389 N 
ATOM      3  C   UNL     1       2.884  -7.778  -0.575  0.00  0.00    -0.059 C 
ATOM      4  C   UNL     1       2.598  -9.239  -0.937  0.00  0.00    +0.086 C 
ATOM      5  N   UNL     1       3.854  -9.864  -1.379  0.00  0.00    -0.333 N 
ATOM      6  C   UNL     1       4.648  -9.173  -2.407  0.00  0.00    +0.086 C 
ATOM      7  C   UNL     1       4.837  -7.715  -1.976  0.00  0.00    -0.059 C 
ATOM      8  H   UNL     1       2.942  -7.207  -2.531  0.00  0.00    -0.081 HD
BRANCH   5   9
ATOM      9  C   UNL     1       4.280 -11.081  -0.839  0.00  0.00    +0.030 A 
ATOM     10  C   UNL     1       3.461 -11.777   0.041  0.00  0.00    +0.026 A 
ATOM     11  C   UNL     1       3.885 -12.979   0.573  0.00  0.00    +0.040 A 
ATOM     12  C   UNL     1       5.125 -13.491   0.230  0.00  0.00    +0.124 A 
ATOM     13  C   UNL     1       5.943 -12.799  -0.647  0.00  0.00    +0.040 A 
ATOM     14  C   UNL     1       5.522 -11.599  -1.185  0.00  0.00    +0.026 A 
ATOM     15  F   UNL     1       5.537 -14.666   0.752  0.00  0.00    -0.205 F 
ENDBRANCH   5   9
ENDBRANCH   1   2
BRANCH   1  16
ATOM     16  C   UNL     1       4.646  -5.531  -0.244  0.00  0.00    +0.093 A 
ATOM     17  C   UNL     1       5.698  -4.695  -0.190  0.00  0.00    +0.043 A 
ATOM     18  C   UNL     1       6.303  -4.879   1.075  0.00  0.00    +0.041 A 
ATOM     19  C   UNL     1       5.584  -5.816   1.718  0.00  0.00    +0.195 A 
ATOM     20  O   UNL     1       4.579  -6.204   0.916  0.00  0.00    -0.469 OA
ENDBRANCH   1  16
BRANCH   1  21
ATOM     21  C   UNL     1       2.346  -5.070  -1.046  0.00  0.00    +0.098 C 
BRANCH  21  22
ATOM     22  N   UNL     1       1.404  -5.283  -2.148  0.00  0.00    -0.191 NA
ATOM     23  H   UNL     1       1.729  -5.570  -3.015  0.00  0.00    +0.148 HD
BRANCH  22  24
ATOM     24  S   UNL     1      -0.216  -5.033  -1.912  0.00  0.00    +0.058 S 
ATOM     25  O   UNL     1      -0.564  -5.722  -0.720  0.00  0.00    -0.153 OA
ATOM     26  O   UNL     1      -0.852  -5.293  -3.156  0.00  0.00    -0.153 OA
BRANCH  24  31
ATOM     27  C   UNL     1      -0.559  -1.488  -0.028  0.00  0.00    +0.019 A 
ATOM     28  C   UNL     1      -0.786  -0.606  -1.089  0.00  0.00    +0.011 A 
ATOM     29  C   UNL     1      -0.835  -1.086  -2.381  0.00  0.00    +0.003 A 
ATOM     30  C   UNL     1      -0.660  -2.436  -2.628  0.00  0.00    +0.028 A 
ATOM     31  C   UNL     1      -0.436  -3.316  -1.584  0.00  0.00    +0.106 A 
ATOM     32  C   UNL     1      -0.378  -2.851  -0.287  0.00  0.00    +0.040 A 
BRANCH  27  34
ATOM     33  C   UNL     1      -0.700   0.484   1.629  0.00  0.00    +0.091 C 
ATOM     34  C   UNL     1      -0.505  -0.985   1.354  0.00  0.00    +0.160 C 
ATOM     35  O   UNL     1      -0.303  -1.752   2.272  0.00  0.00    -0.292 OA
ENDBRANCH  27  34
ENDBRANCH  24  31
ENDBRANCH  22  24
ENDBRANCH  21  22
ENDBRANCH   1  21
TORSDOF 8
