REMARK  Name = ZINC09391510
REMARK  12 active torsions:
REMARK  status: ('A' for Active; 'I' for Inactive)
REMARK    1  A    between atoms: C_1  and  C_2
REMARK    2  A    between atoms: C_2  and  O_3
REMARK    3  A    between atoms: O_3  and  C_4
REMARK    4  A    between atoms: C_4  and  C_6
REMARK    5  A    between atoms: C_10  and  N_11
REMARK    6  A    between atoms: C_12  and  C_14
REMARK    7  A    between atoms: C_17  and  S_20
REMARK    8  A    between atoms: S_20  and  N_23
REMARK    9  A    between atoms: C_28  and  C_33
REMARK   10  A    between atoms: C_28  and  C_34
REMARK   11  A    between atoms: C_29  and  C_31
REMARK   12  A    between atoms: C_29  and  C_32
REMARK                            x       y       z     vdW  Elec       q    Type
REMARK                         _______ _______ _______ _____ _____    ______ ____
ROOT
ATOM      1  C   UNL     1       1.316  -0.611  -0.020  0.00  0.00    +0.091 A 
ATOM      2  C   UNL     1       0.002  -0.004   0.002  0.00  0.00    -0.024 A 
ATOM      3  C   UNL     1      -0.016   1.349   0.009  0.00  0.00    -0.016 A 
ATOM      4  S   UNL     1       1.689   1.819  -0.004  0.00  0.00    -0.079 S 
ATOM      5  C   UNL     1       2.414   0.245  -0.025  0.00  0.00    +0.086 A 
ATOM      6  C   UNL     1      -1.229   2.222   0.018  0.00  0.00    -0.041 C 
ATOM      7  C   UNL     1      -2.330   0.117   0.792  0.00  0.00    -0.069 C 
ATOM      8  C   UNL     1      -1.326  -0.749   0.022  0.00  0.00    +0.024 C 
ATOM      9  C   UNL     1      -3.704  -0.574   0.715  0.00  0.00    -0.010 C 
ATOM     10  C   UNL     1      -1.917   0.178   2.266  0.00  0.00    -0.010 C 
ATOM     11  C   UNL     1      -1.078   3.290   1.110  0.00  0.00    -0.005 C 
ATOM     12  C   UNL     1      -1.318   2.941  -1.341  0.00  0.00    -0.005 C 
ATOM     13  N   UNL     1      -2.504   1.474   0.214  0.00  0.00    +0.389 N 
ATOM     14  H   UNL     1      -2.966   1.379  -0.698  0.00  0.00    -0.084 HD
ATOM     15  H   UNL     1      -3.104   2.019   0.845  0.00  0.00    -0.084 HD
ENDROOT
BRANCH   5  16
ATOM     16  N   UNL     1       3.759  -0.084  -0.044  0.00  0.00    -0.275 N 
ATOM     17  C   UNL     1       4.691   0.889  -0.047  0.00  0.00    +0.249 C 
ATOM     18  O   UNL     1       4.351   2.056  -0.033  0.00  0.00    -0.270 OA
ATOM     19  H   UNL     1       4.030  -1.016  -0.056  0.00  0.00    +0.156 HD
BRANCH  17  20
ATOM     20  C   UNL     1       6.126   0.538  -0.067  0.00  0.00    +0.037 A 
ATOM     21  C   UNL     1       6.520  -0.802  -0.078  0.00  0.00    +0.015 A 
ATOM     22  C   UNL     1       7.861  -1.123  -0.102  0.00  0.00    +0.029 A 
ATOM     23  C   UNL     1       8.816  -0.121  -0.105  0.00  0.00    +0.106 A 
ATOM     24  C   UNL     1       8.432   1.209  -0.088  0.00  0.00    +0.029 A 
ATOM     25  C   UNL     1       7.094   1.544  -0.070  0.00  0.00    +0.015 A 
BRANCH  23  26
ATOM     26  S   UNL     1      10.527  -0.540  -0.128  0.00  0.00    +0.061 S 
ATOM     27  O   UNL     1      10.619  -1.841  -0.692  0.00  0.00    -0.153 OA
ATOM     28  O   UNL     1      11.211   0.578  -0.677  0.00  0.00    -0.153 OA
BRANCH  26  29
ATOM     29  N   UNL     1      11.021  -0.670   1.447  0.00  0.00    -0.177 NA
ATOM     30  C   UNL     1      11.566   0.421   2.267  0.00  0.00    +0.109 C 
ATOM     31  C   UNL     1      11.908  -0.172   3.650  0.00  0.00    +0.018 C 
ATOM     32  C   UNL     1      12.072  -1.685   3.347  0.00  0.00    +0.018 C 
ATOM     33  C   UNL     1      10.992  -1.902   2.257  0.00  0.00    +0.109 C 
ENDBRANCH  26  29
ENDBRANCH  23  26
ENDBRANCH  17  20
ENDBRANCH   5  16
BRANCH   1  34
ATOM     34  C   UNL     1       1.497  -2.064  -0.038  0.00  0.00    +0.342 C 
ATOM     35  O   UNL     1       1.560  -2.656  -1.099  0.00  0.00    -0.245 OA
BRANCH  34  36
ATOM     36  O   UNL     1       1.594  -2.746   1.122  0.00  0.00    -0.461 OA
BRANCH  36  38
ATOM     37  C   UNL     1       1.860  -4.780   2.434  0.00  0.00    +0.048 C 
ATOM     38  C   UNL     1       1.772  -4.184   1.028  0.00  0.00    +0.229 C 
ENDBRANCH  36  38
ENDBRANCH  34  36
ENDBRANCH   1  34
TORSDOF 7
