REMARK  Name = ZINC12242732
REMARK  7 active torsions:
REMARK  status: ('A' for Active; 'I' for Inactive)
REMARK    1  A    between atoms: C_4  and  C_7
REMARK    2  A    between atoms: C_10  and  C_13
REMARK    3  A    between atoms: C_13  and  N_64
REMARK    4  A    between atoms: C_14  and  N_64
REMARK    5  A    between atoms: N_17  and  C_20
REMARK    6  A    between atoms: C_23  and  N_26
REMARK    7  A    between atoms: C_27  and  C_29
REMARK                            x       y       z     vdW  Elec       q    Type
REMARK                         _______ _______ _______ _____ _____    ______ ____
ROOT
ATOM      1  C   UNL     1       0.117  -0.010  -0.126  0.00  0.00    -0.068 C 
ATOM      2  C   UNL     1       0.019  -0.488  -1.578  0.00  0.00    +0.003 C 
ATOM      3  C   UNL     1      -0.013  -2.018  -1.604  0.00  0.00    +0.103 C 
ATOM      4  N   UNL     1      -1.166  -2.499  -0.832  0.00  0.00    -0.330 N 
ATOM      5  C   UNL     1      -1.069  -2.092   0.575  0.00  0.00    +0.103 C 
ATOM      6  C   UNL     1      -1.070  -0.564   0.667  0.00  0.00    +0.003 C 
ENDROOT
BRANCH   4   7
ATOM      7  C   UNL     1      -1.300  -3.887  -0.945  0.00  0.00    +0.030 A 
ATOM      8  C   UNL     1      -1.322  -4.677   0.197  0.00  0.00    +0.025 A 
ATOM      9  C   UNL     1      -1.461  -6.046   0.087  0.00  0.00    +0.025 A 
ATOM     10  C   UNL     1      -1.568  -6.634  -1.167  0.00  0.00    +0.034 A 
ATOM     11  C   UNL     1      -1.540  -5.845  -2.309  0.00  0.00    +0.025 A 
ATOM     12  C   UNL     1      -1.407  -4.475  -2.198  0.00  0.00    +0.025 A 
BRANCH  10  13
ATOM     13  N   UNL     1      -1.704  -8.024  -1.279  0.00  0.00    -0.281 N 
ATOM     14  C   UNL     1      -2.375  -8.714  -0.336  0.00  0.00    +0.248 C 
ATOM     15  O   UNL     1      -2.945  -8.122   0.561  0.00  0.00    -0.270 OA
ATOM     16  H   UNL     1      -1.315  -8.490  -2.036  0.00  0.00    +0.155 HD
BRANCH  14  17
ATOM     17  C   UNL     1      -2.420 -10.188  -0.391  0.00  0.00    +0.041 A 
ATOM     18  C   UNL     1      -1.771 -10.870  -1.424  0.00  0.00    +0.017 A 
ATOM     19  C   UNL     1      -1.809 -12.246  -1.470  0.00  0.00    +0.050 A 
ATOM     20  C   UNL     1      -2.500 -12.960  -0.500  0.00  0.00    +0.166 A 
ATOM     21  C   UNL     1      -3.155 -12.284   0.531  0.00  0.00    +0.167 A 
ATOM     22  C   UNL     1      -3.115 -10.905   0.586  0.00  0.00    +0.062 A 
ATOM     23  O   UNL     1      -3.752 -13.205   1.344  0.00  0.00    -0.453 OA
ATOM     24  C   UNL     1      -3.801 -14.421   0.575  0.00  0.00    +0.466 C 
ATOM     25  O   UNL     1      -2.688 -14.300  -0.330  0.00  0.00    -0.453 OA
ENDBRANCH  14  17
ENDBRANCH  10  13
ENDBRANCH   4   7
BRANCH   1  26
ATOM     26  N   UNL     1       0.080   1.464  -0.089  0.00  0.00    +0.386 N 
ATOM     27  H   UNL     1      -0.540   1.806  -0.833  0.00  0.00    -0.085 HD
ATOM     28  H   UNL     1      -0.279   1.771   0.823  0.00  0.00    -0.085 HD
BRANCH  26  29
ATOM     29  C   UNL     1       1.433   2.016  -0.291  0.00  0.00    -0.005 C 
BRANCH  29  33
ATOM     30  C   UNL     1       1.417   5.595   0.411  0.00  0.00    +0.162 A 
ATOM     31  N   UNL     1       1.592   4.307   0.839  0.00  0.00    -0.327 N 
ATOM     32  H   UNL     1       1.829   4.014   1.733  0.00  0.00    +0.168 HD
ATOM     33  C   UNL     1       1.363   3.521  -0.248  0.00  0.00    +0.114 A 
ATOM     34  N   UNL     1       1.079   4.310  -1.249  0.00  0.00    -0.136 NA
ATOM     35  N   UNL     1       1.104   5.537  -0.865  0.00  0.00    -0.129 NA
BRANCH  30  39
ATOM     36  C   UNL     1       1.815   9.114   2.757  0.00  0.00    +0.000 A 
ATOM     37  C   UNL     1       1.477   9.213   1.419  0.00  0.00    +0.001 A 
ATOM     38  C   UNL     1       1.347   8.074   0.652  0.00  0.00    +0.011 A 
ATOM     39  C   UNL     1       1.556   6.821   1.228  0.00  0.00    +0.019 A 
ATOM     40  C   UNL     1       1.891   6.727   2.579  0.00  0.00    +0.011 A 
ATOM     41  C   UNL     1       2.024   7.874   3.334  0.00  0.00    +0.001 A 
ENDBRANCH  30  39
ENDBRANCH  29  33
ENDBRANCH  26  29
ENDBRANCH   1  26
TORSDOF 7
