REMARK  Name = ZINC06742529
REMARK  2 active torsions:
REMARK  status: ('A' for Active; 'I' for Inactive)
REMARK    1  A    between atoms: C_10  and  C_12
REMARK    2  A    between atoms: C_18  and  C_20
REMARK                            x       y       z     vdW  Elec       q    Type
REMARK                         _______ _______ _______ _____ _____    ______ ____
ROOT
ATOM      1  C   UNL     1      -2.357   0.319   1.151  0.00  0.00    +0.006 C 
ATOM      2  C   UNL     1      -2.455   1.372   0.043  0.00  0.00    +0.006 C 
ATOM      3  C   UNL     1      -1.203   2.260   0.090  0.00  0.00    +0.044 C 
ATOM      4  C   UNL     1      -0.007   1.376   0.199  0.00  0.00    +0.014 A 
ATOM      5  C   UNL     1       0.028   0.055   0.514  0.00  0.00    +0.054 A 
ATOM      6  N   UNL     1       1.234  -0.507   0.538  0.00  0.00    -0.229 NA
ATOM      7  C   UNL     1       2.330   0.172   0.273  0.00  0.00    +0.165 A 
ATOM      8  S   UNL     1       1.705   1.762  -0.051  0.00  0.00    -0.057 S 
ATOM      9  N   UNL     1       3.649  -0.268   0.258  0.00  0.00    -0.264 N 
ATOM     10  C   UNL     1       4.643   0.592  -0.041  0.00  0.00    +0.223 C 
ATOM     11  O   UNL     1       4.387   1.750  -0.295  0.00  0.00    -0.275 OA
ATOM     12  C   UNL     1      -1.263  -0.697   0.816  0.00  0.00    +0.056 C 
ATOM     13  H   UNL     1       3.853  -1.194   0.462  0.00  0.00    +0.157 HD
ENDROOT
BRANCH  10  14
ATOM     14  C   UNL     1       6.072   0.114  -0.058  0.00  0.00    +0.093 C 
ATOM     15  C   UNL     1       6.982   1.195   0.530  0.00  0.00    +0.040 C 
ATOM     16  C   UNL     1       7.071   2.361  -0.419  0.00  0.00    -0.030 C 
ATOM     17  C   UNL     1       6.735   2.309  -1.668  0.00  0.00    -0.030 C 
ATOM     18  C   UNL     1       6.200   1.081  -2.344  0.00  0.00    +0.042 C 
ATOM     19  C   UNL     1       6.507  -0.160  -1.503  0.00  0.00    +0.118 C 
BRANCH  19  20
ATOM     20  C   UNL     1       5.748  -1.345  -2.044  0.00  0.00    +0.360 C 
ATOM     21  O   UNL     1       4.941  -1.914  -1.348  0.00  0.00    -0.246 OA
ATOM     22  O   UNL     1       5.970  -1.767  -3.299  0.00  0.00    -0.246 OA
ENDBRANCH  19  20
ENDBRANCH  10  14
TORSDOF 2
