REMARK  Name = ZINC37517978
REMARK  5 active torsions:
REMARK  status: ('A' for Active; 'I' for Inactive)
REMARK    1  A    between atoms: C_1  and  C_2
REMARK    2  A    between atoms: C_9  and  N_13
REMARK    3  A    between atoms: C_10  and  C_11
REMARK    4  A    between atoms: C_14  and  C_16
REMARK    5  A    between atoms: C_19  and  C_21
REMARK                            x       y       z     vdW  Elec       q    Type
REMARK                         _______ _______ _______ _____ _____    ______ ____
ROOT
ATOM      1  C   UNL     1       8.391  -0.711   9.989  0.00  0.00    +0.008 C 
ATOM      2  C   UNL     1       7.187  -1.422   9.369  0.00  0.00    -0.009 C 
ATOM      3  C   UNL     1       6.573  -0.537   8.281  0.00  0.00    +0.008 C 
ATOM      4  C   UNL     1       5.234  -1.123   7.827  0.00  0.00    +0.037 C 
ATOM      5  C   UNL     1       5.440  -2.586   7.462  0.00  0.00    -0.018 A 
ATOM      6  C   UNL     1       6.525  -3.269   7.887  0.00  0.00    -0.004 A 
ATOM      7  S   UNL     1       6.321  -4.894   7.219  0.00  0.00    -0.077 S 
ATOM      8  C   UNL     1       4.863  -4.690   6.411  0.00  0.00    +0.090 A 
ATOM      9  C   UNL     1       4.525  -3.369   6.650  0.00  0.00    +0.084 A 
ATOM     10  C   UNL     1       7.641  -2.747   8.739  0.00  0.00    +0.046 C 
ENDROOT
BRANCH   8  11
ATOM     11  N   UNL     1       4.159  -5.631   5.672  0.00  0.00    -0.279 N 
ATOM     12  C   UNL     1       4.639  -6.883   5.542  0.00  0.00    +0.221 C 
ATOM     13  O   UNL     1       5.687  -7.189   6.070  0.00  0.00    -0.275 OA
ATOM     14  H   UNL     1       3.320  -5.386   5.250  0.00  0.00    +0.155 HD
BRANCH  12  15
ATOM     15  C   UNL     1       3.874  -7.904   4.740  0.00  0.00    +0.090 C 
ATOM     16  C   UNL     1       4.674  -9.032   4.085  0.00  0.00    +0.029 C 
ATOM     17  C   UNL     1       4.083  -7.913   3.224  0.00  0.00    +0.115 C 
BRANCH  17  18
ATOM     18  C   UNL     1       5.038  -6.899   2.648  0.00  0.00    +0.360 C 
ATOM     19  O   UNL     1       6.230  -6.977   2.892  0.00  0.00    -0.246 OA
ATOM     20  O   UNL     1       4.619  -6.002   1.937  0.00  0.00    -0.246 OA
ENDBRANCH  17  18
ENDBRANCH  12  15
ENDBRANCH   8  11
BRANCH   9  21
ATOM     21  C   UNL     1       3.324  -2.798   6.120  0.00  0.00    +0.102 C 
ATOM     22  N   UNL     1       2.371  -2.345   5.699  0.00  0.00    -0.191 NA
ENDBRANCH   9  21
TORSDOF 4
