REMARK  Name = ZINC21336439
REMARK  8 active torsions:
REMARK  status: ('A' for Active; 'I' for Inactive)
REMARK    1  A    between atoms: C_1  and  C_2
REMARK    2  A    between atoms: C_2  and  C_3
REMARK    3  A    between atoms: C_3  and  C_4
REMARK    4  A    between atoms: C_7  and  C_10
REMARK    5  A    between atoms: C_11  and  C_33
REMARK    6  A    between atoms: C_16  and  C_18
REMARK    7  A    between atoms: C_18  and  N_19
REMARK    8  A    between atoms: C_27  and  C_29
REMARK                            x       y       z     vdW  Elec       q    Type
REMARK                         _______ _______ _______ _____ _____    ______ ____
ROOT
ATOM      1  C   UNL     1      -1.724   0.299  10.067  0.00  0.00    +0.083 A 
ATOM      2  C   UNL     1      -0.436   0.336   9.611  0.00  0.00    +0.016 A 
ATOM      3  S   UNL     1      -0.712   0.353   7.844  0.00  0.00    -0.057 S 
ATOM      4  C   UNL     1      -2.498   0.319   7.896  0.00  0.00    +0.165 A 
ATOM      5  N   UNL     1      -2.723   0.291   9.197  0.00  0.00    -0.224 NA
ATOM      6  N   UNL     1      -3.409   0.315   6.847  0.00  0.00    -0.263 N 
ATOM      7  C   UNL     1      -2.969   0.347   5.573  0.00  0.00    +0.237 C 
ATOM      8  O   UNL     1      -1.778   0.378   5.343  0.00  0.00    -0.274 OA
ATOM      9  C   UNL     1       0.858   0.351  10.383  0.00  0.00    +0.054 C 
ATOM     10  H   UNL     1      -4.488   0.287   7.055  0.00  0.00    +0.157 HD
ENDROOT
BRANCH   1  14
ATOM     11  C   UNL     1      -2.519   0.211  14.243  0.00  0.00    -0.047 A 
ATOM     12  C   UNL     1      -3.370   0.895  13.394  0.00  0.00    +0.004 A 
ATOM     13  C   UNL     1      -3.118   0.927  12.038  0.00  0.00    +0.010 A 
ATOM     14  C   UNL     1      -2.001   0.269  11.524  0.00  0.00    +0.001 A 
ATOM     15  C   UNL     1      -1.150  -0.423  12.384  0.00  0.00    +0.010 A 
ATOM     16  C   UNL     1      -1.409  -0.443  13.739  0.00  0.00    +0.004 A 
BRANCH  11  17
ATOM     17  C   UNL     1      -2.801   0.180  15.723  0.00  0.00    +0.035 C 
BRANCH  17  19
ATOM     18  C   UNL     1      -3.968  -1.060  17.551  0.00  0.00    +0.004 C 
ATOM     19  C   UNL     1      -3.682  -1.028  16.049  0.00  0.00    +0.001 C 
ENDBRANCH  17  19
ENDBRANCH  11  17
ENDBRANCH   1  14
BRANCH   7  20
ATOM     20  C   UNL     1      -3.956   0.343   4.435  0.00  0.00    +0.214 C 
BRANCH  20  21
ATOM     21  N   UNL     1      -3.233   0.381   3.161  0.00  0.00    -0.215 N 
ATOM     22  C   UNL     1      -2.885   1.517   2.521  0.00  0.00    +0.247 C 
ATOM     23  O   UNL     1      -3.102   2.655   2.875  0.00  0.00    -0.273 OA
ATOM     24  C   UNL     1      -2.167   1.069   1.268  0.00  0.00    +0.115 C 
ATOM     25  C   UNL     1      -2.911   1.550   0.027  0.00  0.00    +0.035 C 
ATOM     26  C   UNL     1      -2.186   1.056  -1.227  0.00  0.00    +0.003 C 
ATOM     27  C   UNL     1      -0.753   1.593  -1.231  0.00  0.00    +0.000 C 
ATOM     28  C   UNL     1      -0.013   1.086   0.008  0.00  0.00    +0.006 C 
ATOM     29  C   UNL     1      -0.730   1.580   1.267  0.00  0.00    +0.018 C 
ATOM     30  C   UNL     1      -0.002   1.056   2.507  0.00  0.00    +0.010 C 
ATOM     31  N   UNL     1      -2.191  -0.397   1.347  0.00  0.00    -0.285 N 
ATOM     32  C   UNL     1      -2.836  -0.706   2.489  0.00  0.00    +0.310 C 
ATOM     33  O   UNL     1      -3.035  -1.844   2.866  0.00  0.00    -0.252 OA
ATOM     34  H   UNL     1      -1.730  -0.998   0.550  0.00  0.00    +0.151 HD
ENDBRANCH  20  21
ENDBRANCH   7  20
TORSDOF 5
