REMARK  Name = ZINC41181826
REMARK  3 active torsions:
REMARK  status: ('A' for Active; 'I' for Inactive)
REMARK    1  A    between atoms: C_4  and  C_7
REMARK    2  A    between atoms: C_7  and  C_9
REMARK    3  A    between atoms: C_7  and  N_22
REMARK                            x       y       z     vdW  Elec       q    Type
REMARK                         _______ _______ _______ _____ _____    ______ ____
ROOT
ATOM      1  C   UNL     1       4.014  -1.161  -1.442  0.00  0.00    +0.069 A 
ATOM      2  N   UNL     1       4.886  -0.661  -2.286  0.00  0.00    -0.245 NA
ATOM      3  C   UNL     1       5.050  -1.163  -3.498  0.00  0.00    +0.088 A 
ATOM      4  C   UNL     1       4.237  -2.242  -3.792  0.00  0.00    +0.054 A 
ATOM      5  S   UNL     1       3.318  -2.436  -2.300  0.00  0.00    -0.074 S 
ATOM      6  C   UNL     1       4.242  -2.974  -5.085  0.00  0.00    +0.273 C 
ATOM      7  O   UNL     1       4.714  -2.094  -6.114  0.00  0.00    -0.486 OA
ATOM      8  C   UNL     1       5.750  -1.254  -5.866  0.00  0.00    +0.130 A 
ATOM      9  C   UNL     1       5.979  -0.730  -4.585  0.00  0.00    +0.043 A 
ATOM     10  C   UNL     1       7.023   0.146  -4.348  0.00  0.00    +0.013 A 
ATOM     11  C   UNL     1       7.863   0.500  -5.388  0.00  0.00    +0.001 A 
ATOM     12  C   UNL     1       7.655  -0.023  -6.652  0.00  0.00    +0.004 A 
ATOM     13  C   UNL     1       6.609  -0.894  -6.894  0.00  0.00    +0.046 A 
ENDROOT
BRANCH   1  14
ATOM     14  C   UNL     1       3.711  -0.707  -0.038  0.00  0.00    +0.013 C 
BRANCH  14  18
ATOM     15  C   UNL     1      -0.017   1.378   0.010  0.00  0.00    +0.000 A 
ATOM     16  C   UNL     1       1.171   2.086   0.002  0.00  0.00    +0.000 A 
ATOM     17  C   UNL     1       2.377   1.411  -0.013  0.00  0.00    +0.002 A 
ATOM     18  C   UNL     1       2.396   0.029  -0.020  0.00  0.00    -0.056 A 
ATOM     19  C   UNL     1       1.208  -0.679  -0.012  0.00  0.00    +0.002 A 
ATOM     20  C   UNL     1       0.002  -0.004   0.002  0.00  0.00    +0.000 A 
ENDBRANCH  14  18
BRANCH  14  21
ATOM     21  N   UNL     1       3.630  -1.877   0.848  0.00  0.00    +0.387 N 
ATOM     22  H   UNL     1       2.897  -2.491   0.527  0.00  0.00    -0.089 HD
ATOM     23  H   UNL     1       4.510  -2.369   0.836  0.00  0.00    -0.089 HD
ATOM     24  H   UNL     1       3.427  -1.573   1.788  0.00  0.00    -0.089 HD
ENDBRANCH  14  21
ENDBRANCH   1  14
TORSDOF 3
