REMARK  Name = ZINC53113922
REMARK  7 active torsions:
REMARK  status: ('A' for Active; 'I' for Inactive)
REMARK    1  A    between atoms: C_3  and  N_12
REMARK    2  A    between atoms: C_4  and  N_11
REMARK    3  A    between atoms: C_6  and  S_7
REMARK    4  A    between atoms: S_7  and  N_10
REMARK    5  A    between atoms: N_12  and  C_13
REMARK    6  A    between atoms: C_13  and  C_19
REMARK    7  A    between atoms: C_19  and  O_20
REMARK                            x       y       z     vdW  Elec       q    Type
REMARK                         _______ _______ _______ _____ _____    ______ ____
ROOT
ATOM      1  C   UNL     1       5.181   1.305  -3.147  0.00  0.00    +0.030 A 
ATOM      2  C   UNL     1       4.635   2.042  -2.111  0.00  0.00    +0.027 A 
ATOM      3  C   UNL     1       4.067   1.395  -1.025  0.00  0.00    +0.049 A 
ATOM      4  C   UNL     1       4.047   0.001  -0.980  0.00  0.00    +0.048 A 
ATOM      5  C   UNL     1       4.596  -0.730  -2.022  0.00  0.00    +0.053 A 
ATOM      6  C   UNL     1       5.161  -0.076  -3.103  0.00  0.00    +0.107 A 
ENDROOT
BRANCH   6   7
ATOM      7  S   UNL     1       5.858  -1.007  -4.426  0.00  0.00    +0.056 S 
ATOM      8  O   UNL     1       5.227  -2.280  -4.403  0.00  0.00    -0.153 OA
ATOM      9  O   UNL     1       5.834  -0.166  -5.571  0.00  0.00    -0.153 OA
BRANCH   7  10
ATOM     10  N   UNL     1       7.453  -1.262  -4.059  0.00  0.00    -0.204 NA
ATOM     11  H   UNL     1       7.902  -2.061  -4.377  0.00  0.00    +0.144 HD
ATOM     12  H   UNL     1       7.938  -0.613  -3.527  0.00  0.00    +0.144 HD
ENDBRANCH   7  10
ENDBRANCH   6   7
BRANCH   4  13
ATOM     13  N   UNL     1       3.475  -0.658   0.114  0.00  0.00    -0.356 N 
ATOM     14  H   UNL     1       3.091  -0.146   0.843  0.00  0.00    +0.142 HD
ATOM     15  H   UNL     1       3.462  -1.628   0.144  0.00  0.00    +0.142 HD
ENDBRANCH   4  13
BRANCH   3  16
ATOM     16  N   UNL     1       3.514   2.139   0.025  0.00  0.00    -0.335 N 
ATOM     17  H   UNL     1       3.038   1.689   0.740  0.00  0.00    +0.147 HD
BRANCH  16  18
ATOM     18  C   UNL     1       3.656   3.597   0.043  0.00  0.00    +0.055 C 
ATOM     19  C   UNL     1       3.082   4.149   1.350  0.00  0.00    +0.028 C 
ATOM     20  C   UNL     1       3.842   3.548   2.534  0.00  0.00    +0.002 C 
ATOM     21  C   UNL     1       5.323   3.918   2.431  0.00  0.00    +0.000 C 
ATOM     22  C   UNL     1       5.896   3.367   1.124  0.00  0.00    +0.002 C 
ATOM     23  C   UNL     1       5.137   3.967  -0.060  0.00  0.00    +0.028 C 
BRANCH  18  24
ATOM     24  C   UNL     1       2.896   4.198  -1.141  0.00  0.00    +0.181 C 
BRANCH  24  25
ATOM     25  O   UNL     1       1.507   3.884  -1.026  0.00  0.00    -0.393 OA
ATOM     26  H   UNL     1       0.963   4.234  -1.744  0.00  0.00    +0.209 HD
ENDBRANCH  24  25
ENDBRANCH  18  24
ENDBRANCH  16  18
ENDBRANCH   3  16
TORSDOF 7
