REMARK  Name = ZINC67237937
REMARK  9 active torsions:
REMARK  status: ('A' for Active; 'I' for Inactive)
REMARK    1  A    between atoms: C_1  and  C_2
REMARK    2  A    between atoms: N_10  and  C_27
REMARK    3  A    between atoms: C_11  and  S_13
REMARK    4  A    between atoms: S_13  and  C_14
REMARK    5  A    between atoms: C_14  and  C_15
REMARK    6  A    between atoms: C_27  and  C_28
REMARK    7  A    between atoms: C_28  and  C_29
REMARK    8  A    between atoms: C_29  and  C_30
REMARK    9  A    between atoms: C_29  and  C_31
REMARK                            x       y       z     vdW  Elec       q    Type
REMARK                         _______ _______ _______ _____ _____    ______ ____
ROOT
ATOM      1  C   UNL     1       0.181   1.511  -0.005  0.00  0.00    +0.063 C 
ATOM      2  C   UNL     1       0.167   0.004  -0.011  0.00  0.00    +0.016 A 
ATOM      3  C   UNL     1       0.152  -0.770  -1.114  0.00  0.00    +0.051 A 
ATOM      4  C   UNL     1       0.142  -2.120  -0.698  0.00  0.00    +0.097 A 
ATOM      5  C   UNL     1       0.152  -2.107   0.702  0.00  0.00    +0.131 A 
ATOM      6  N   UNL     1       0.173  -0.786   1.098  0.00  0.00    -0.353 N 
ATOM      7  H   UNL     1       0.188  -0.472   2.016  0.00  0.00    +0.166 HD
ATOM      8  C   UNL     1       0.145  -3.334   1.389  0.00  0.00    +0.279 A 
ATOM      9  O   UNL     1       0.153  -3.365   2.609  0.00  0.00    -0.265 OA
ATOM     10  N   UNL     1       0.130  -4.477   0.669  0.00  0.00    -0.286 N 
ATOM     11  C   UNL     1       0.121  -4.434  -0.695  0.00  0.00    +0.173 A 
ATOM     12  N   UNL     1       0.126  -3.298  -1.352  0.00  0.00    -0.222 NA
ENDROOT
BRANCH  11  13
ATOM     13  S   UNL     1       0.102  -5.946  -1.599  0.00  0.00    -0.078 S 
BRANCH  13  14
ATOM     14  C   UNL     1       0.095  -5.420  -3.335  0.00  0.00    +0.173 C 
BRANCH  14  15
ATOM     15  C   UNL     1       0.079  -6.633  -4.229  0.00  0.00    +0.230 C 
ATOM     16  O   UNL     1       0.164  -7.743  -3.746  0.00  0.00    -0.274 OA
ATOM     17  N   UNL     1      -0.030  -6.486  -5.564  0.00  0.00    -0.270 N 
ATOM     18  C   UNL     1      -0.047  -5.147  -6.168  0.00  0.00    +0.114 C 
ATOM     19  C   UNL     1      -1.165  -5.121  -7.219  0.00  0.00    +0.024 C 
ATOM     20  C   UNL     1      -0.832  -6.128  -8.319  0.00  0.00    +0.038 C 
ATOM     21  C   UNL     1      -0.513  -7.474  -7.724  0.00  0.00    -0.026 A 
ATOM     22  C   UNL     1      -0.123  -7.607  -6.399  0.00  0.00    +0.039 A 
ATOM     23  C   UNL     1       0.174  -8.863  -5.883  0.00  0.00    +0.024 A 
ATOM     24  C   UNL     1       0.086  -9.980  -6.689  0.00  0.00    +0.002 A 
ATOM     25  C   UNL     1      -0.300  -9.849  -8.010  0.00  0.00    +0.000 A 
ATOM     26  C   UNL     1      -0.607  -8.600  -8.525  0.00  0.00    +0.005 A 
ENDBRANCH  14  15
ENDBRANCH  13  14
ENDBRANCH  11  13
BRANCH  10  27
ATOM     27  C   UNL     1       0.123  -5.771   1.357  0.00  0.00    +0.128 C 
BRANCH  27  28
ATOM     28  C   UNL     1      -1.322  -6.208   1.607  0.00  0.00    +0.025 C 
BRANCH  28  29
ATOM     29  C   UNL     1      -1.329  -7.559   2.325  0.00  0.00    -0.016 C 
ATOM     30  C   UNL     1      -2.768  -7.937   2.685  0.00  0.00    +0.007 C 
ATOM     31  C   UNL     1      -0.736  -8.628   1.406  0.00  0.00    +0.007 C 
ENDBRANCH  28  29
ENDBRANCH  27  28
ENDBRANCH  10  27
TORSDOF 6
