REMARK  Name = ZINC12502852
REMARK  7 active torsions:
REMARK  status: ('A' for Active; 'I' for Inactive)
REMARK    1  A    between atoms: C_6  and  O_7
REMARK    2  A    between atoms: O_7  and  C_8
REMARK    3  A    between atoms: C_8  and  C_9
REMARK    4  A    between atoms: N_11  and  C_12
REMARK    5  A    between atoms: C_12  and  N_14
REMARK    6  A    between atoms: N_14  and  N_15
REMARK    7  A    between atoms: C_16  and  C_18
REMARK                            x       y       z     vdW  Elec       q    Type
REMARK                         _______ _______ _______ _____ _____    ______ ____
ROOT
ATOM      1  C   UNL     1       2.369   1.025  -0.015  0.00  0.00    +0.153 C 
ATOM      2  S   UNL     1       3.840   1.901  -0.024  0.00  0.00    -0.017 S 
ENDROOT
BRANCH   1   5
ATOM      3  C   UNL     1       3.563  -0.981  -0.037  0.00  0.00    +0.256 C 
ATOM      4  O   UNL     1       4.605  -0.360  -0.044  0.00  0.00    -0.272 OA
ATOM      5  N   UNL     1       2.387  -0.323  -0.022  0.00  0.00    -0.264 N 
ATOM      6  H   UNL     1       1.554  -0.819  -0.017  0.00  0.00    +0.157 HD
BRANCH   3   7
ATOM      7  C   UNL     1       3.584  -2.487  -0.045  0.00  0.00    +0.324 C 
BRANCH   7   8
ATOM      8  O   UNL     1       4.937  -2.946  -0.061  0.00  0.00    -0.483 OA
BRANCH   8  14
ATOM      9  C   UNL     1       4.046  -5.151  -0.058  0.00  0.00    +0.047 A 
ATOM     10  C   UNL     1       4.247  -6.518  -0.072  0.00  0.00    +0.023 A 
ATOM     11  C   UNL     1       5.533  -7.028  -0.088  0.00  0.00    +0.041 A 
ATOM     12  C   UNL     1       6.620  -6.171  -0.094  0.00  0.00    +0.023 A 
ATOM     13  C   UNL     1       6.422  -4.804  -0.085  0.00  0.00    +0.047 A 
ATOM     14  C   UNL     1       5.133  -4.290  -0.070  0.00  0.00    +0.121 A 
ATOM     15 CL   UNL     1       5.784  -8.746  -0.099  0.00  0.00    -0.084 Cl
ENDBRANCH   8  14
ENDBRANCH   7   8
ENDBRANCH   3   7
ENDBRANCH   1   5
BRANCH   1  16
ATOM     16  N   UNL     1       1.193   1.683  -0.000  0.00  0.00    -0.245 N 
ATOM     17  H   UNL     1       1.179   2.653   0.005  0.00  0.00    +0.172 HD
BRANCH  16  18
ATOM     18  N   UNL     1      -0.011   0.966   0.007  0.00  0.00    -0.231 N 
ATOM     19  C   UNL     1      -1.187   1.624   0.017  0.00  0.00    +0.262 C 
ATOM     20  O   UNL     1      -1.204   2.839   0.023  0.00  0.00    -0.269 OA
ATOM     21  H   UNL     1       0.002  -0.004   0.002  0.00  0.00    +0.173 HD
BRANCH  19  22
ATOM     22  C   UNL     1      -2.456   0.868   0.018  0.00  0.00    +0.057 A 
ATOM     23  C   UNL     1      -2.441  -0.529   0.011  0.00  0.00    +0.016 A 
ATOM     24  C   UNL     1      -3.628  -1.228   0.013  0.00  0.00    +0.021 A 
ATOM     25  C   UNL     1      -4.837  -0.550   0.023  0.00  0.00    +0.042 A 
ATOM     26  C   UNL     1      -4.860   0.834   0.031  0.00  0.00    +0.040 A 
ATOM     27  C   UNL     1      -3.678   1.547   0.034  0.00  0.00    +0.054 A 
ATOM     28 CL   UNL     1      -3.708   3.283   0.051  0.00  0.00    -0.083 Cl
ATOM     29 CL   UNL     1      -6.327  -1.440   0.025  0.00  0.00    -0.083 Cl
ENDBRANCH  19  22
ENDBRANCH  16  18
ENDBRANCH   1  16
TORSDOF 7
