REMARK  Name = ZINC33416027
REMARK  9 active torsions:
REMARK  status: ('A' for Active; 'I' for Inactive)
REMARK    1  A    between atoms: C_1  and  C_2
REMARK    2  A    between atoms: C_2  and  C_31
REMARK    3  A    between atoms: C_5  and  C_27
REMARK    4  A    between atoms: C_6  and  N_13
REMARK    5  A    between atoms: C_9  and  C_11
REMARK    6  A    between atoms: C_9  and  C_12
REMARK    7  A    between atoms: C_14  and  C_16
REMARK    8  A    between atoms: C_27  and  O_29
REMARK    9  A    between atoms: O_29  and  C_30
REMARK                            x       y       z     vdW  Elec       q    Type
REMARK                         _______ _______ _______ _____ _____    ______ ____
ROOT
ATOM      1  C   UNL     1      -0.013   1.086   0.008  0.00  0.00    -0.010 C 
ATOM      2  C   UNL     1      -0.734   1.583   1.275  0.00  0.00    -0.069 C 
ATOM      3  C   UNL     1      -0.687   3.115   1.273  0.00  0.00    +0.024 C 
ATOM      4  C   UNL     1      -1.490   3.597   2.474  0.00  0.00    -0.024 A 
ATOM      5  C   UNL     1      -1.243   4.804   3.233  0.00  0.00    +0.091 A 
ATOM      6  C   UNL     1      -2.090   5.067   4.306  0.00  0.00    +0.086 A 
ATOM      7  S   UNL     1      -3.186   3.726   4.284  0.00  0.00    -0.079 S 
ATOM      8  C   UNL     1      -2.538   2.848   2.891  0.00  0.00    -0.016 A 
ATOM      9  C   UNL     1      -3.019   1.573   2.280  0.00  0.00    -0.041 C 
ATOM     10  N   UNL     1      -2.098   1.080   1.262  0.00  0.00    +0.389 N 
ATOM     11  C   UNL     1      -3.208   0.521   3.382  0.00  0.00    -0.005 C 
ATOM     12  C   UNL     1      -4.391   1.833   1.631  0.00  0.00    -0.005 C 
ATOM     13  C   UNL     1       0.035   1.056   2.490  0.00  0.00    -0.010 C 
ATOM     14  H   UNL     1      -2.572   1.332   0.302  0.00  0.00    -0.084 HD
ATOM     15  H   UNL     1      -2.087  -0.012   1.390  0.00  0.00    -0.084 HD
ENDROOT
BRANCH   6  16
ATOM     16  N   UNL     1      -2.060   6.143   5.179  0.00  0.00    -0.276 N 
ATOM     17  C   UNL     1      -2.969   6.231   6.170  0.00  0.00    +0.262 C 
ATOM     18  O   UNL     1      -3.814   5.370   6.296  0.00  0.00    -0.271 OA
ATOM     19  H   UNL     1      -1.293   6.923   5.064  0.00  0.00    +0.155 HD
BRANCH  17  20
ATOM     20  C   UNL     1      -2.937   7.401   7.120  0.00  0.00    +0.296 C 
ATOM     21  C   UNL     1      -3.271   8.693   6.362  0.00  0.00    +0.283 C 
ATOM     22  O   UNL     1      -3.245   9.779   7.294  0.00  0.00    -0.484 OA
ATOM     23  C   UNL     1      -3.889   9.585   8.477  0.00  0.00    +0.162 A 
ATOM     24  C   UNL     1      -4.213  10.681   9.264  0.00  0.00    +0.049 A 
ATOM     25  C   UNL     1      -4.865  10.499  10.469  0.00  0.00    +0.004 A 
ATOM     26  C   UNL     1      -5.195   9.226  10.894  0.00  0.00    +0.004 A 
ATOM     27  C   UNL     1      -4.875   8.130  10.116  0.00  0.00    +0.049 A 
ATOM     28  C   UNL     1      -4.223   8.305   8.904  0.00  0.00    +0.163 A 
ATOM     29  O   UNL     1      -3.918   7.216   8.146  0.00  0.00    -0.473 OA
ENDBRANCH  17  20
ENDBRANCH   6  16
BRANCH   5  30
ATOM     30  C   UNL     1      -0.153   5.722   2.893  0.00  0.00    +0.342 C 
ATOM     31  O   UNL     1      -0.348   6.636   2.115  0.00  0.00    -0.245 OA
BRANCH  30  32
ATOM     32  O   UNL     1       1.066   5.553   3.444  0.00  0.00    -0.464 OA
ATOM     33  C   UNL     1       2.099   6.500   3.062  0.00  0.00    +0.280 C 
ENDBRANCH  30  32
ENDBRANCH   5  30
TORSDOF 4
