REMARK  Name = ZINC42535553
REMARK  7 active torsions:
REMARK  status: ('A' for Active; 'I' for Inactive)
REMARK    1  A    between atoms: C_1  and  C_2
REMARK    2  A    between atoms: C_7  and  C_8
REMARK    3  A    between atoms: C_8  and  N_9
REMARK    4  A    between atoms: C_10  and  C_12
REMARK    5  A    between atoms: C_12  and  C_14
REMARK    6  A    between atoms: C_12  and  N_15
REMARK    7  A    between atoms: C_18  and  N_21
REMARK                            x       y       z     vdW  Elec       q    Type
REMARK                         _______ _______ _______ _____ _____    ______ ____
ROOT
ATOM      1  N   UNL     1      -3.000   2.233   5.613  0.00  0.00    +0.387 N 
ATOM      2  C   UNL     1      -2.428   1.303   6.594  0.00  0.00    -0.076 C 
ATOM      3  C   UNL     1      -2.370   1.976   7.967  0.00  0.00    +0.006 C 
ATOM      4  C   UNL     1      -3.787   2.367   8.398  0.00  0.00    +0.089 C 
ATOM      5  C   UNL     1      -4.401   3.278   7.331  0.00  0.00    +0.006 C 
ATOM      6  C   UNL     1      -4.383   2.557   5.981  0.00  0.00    -0.076 C 
ATOM      7  H   UNL     1      -2.451   3.079   5.596  0.00  0.00    -0.081 HD
ENDROOT
BRANCH   4   8
ATOM      8  N   UNL     1      -3.731   3.080   9.677  0.00  0.00    -0.289 N 
ATOM      9  C   UNL     1      -4.347   2.680  10.860  0.00  0.00    +0.070 A 
ATOM     10  C   UNL     1      -5.137   1.593  11.202  0.00  0.00    +0.028 A 
ATOM     11  C   UNL     1      -5.613   1.467  12.492  0.00  0.00    +0.002 A 
ATOM     12  C   UNL     1      -5.305   2.422  13.446  0.00  0.00    +0.002 A 
ATOM     13  C   UNL     1      -4.519   3.508  13.115  0.00  0.00    +0.028 A 
ATOM     14  C   UNL     1      -4.036   3.643  11.822  0.00  0.00    +0.067 A 
ATOM     15  N   UNL     1      -3.240   4.598  11.194  0.00  0.00    -0.306 N 
ATOM     16  H   UNL     1      -2.869   5.391  11.611  0.00  0.00    +0.170 HD
ATOM     17  C   UNL     1      -3.071   4.229   9.910  0.00  0.00    +0.328 A 
ATOM     18  O   UNL     1      -2.422   4.845   9.084  0.00  0.00    -0.247 OA
ENDBRANCH   4   8
BRANCH   1  19
ATOM     19  C   UNL     1      -2.982   1.611   4.282  0.00  0.00    +0.016 C 
ATOM     20  C   UNL     1      -3.563   2.586   3.256  0.00  0.00    -0.004 C 
BRANCH  19  22
ATOM     21  N   UNL     1      -1.313   0.237   3.079  0.00  0.00    -0.313 N 
ATOM     22  C   UNL     1      -1.562   1.272   3.906  0.00  0.00    +0.199 C 
ATOM     23  O   UNL     1      -0.644   1.931   4.347  0.00  0.00    -0.278 OA
ATOM     24  H   UNL     1      -2.047  -0.290   2.727  0.00  0.00    +0.149 HD
BRANCH  21  25
ATOM     25  C   UNL     1       0.067  -0.092   2.713  0.00  0.00    +0.139 C 
BRANCH  25  32
ATOM     26  C   UNL     1      -0.517   0.263  -0.094  0.00  0.00    +0.044 C 
ATOM     27  C   UNL     1      -0.208  -1.111   0.444  0.00  0.00    -0.046 A 
ATOM     28  C   UNL     1      -0.199  -2.200  -0.407  0.00  0.00    +0.003 A 
ATOM     29  C   UNL     1       0.083  -3.460   0.086  0.00  0.00    +0.000 A 
ATOM     30  C   UNL     1       0.357  -3.631   1.430  0.00  0.00    +0.000 A 
ATOM     31  C   UNL     1       0.349  -2.542   2.281  0.00  0.00    +0.005 A 
ATOM     32  C   UNL     1       0.071  -1.281   1.787  0.00  0.00    -0.027 A 
ENDBRANCH  25  32
ENDBRANCH  21  25
ENDBRANCH  19  22
ENDBRANCH   1  19
TORSDOF 5
