REMARK  Name = ZINC62122900
REMARK  4 active torsions:
REMARK  status: ('A' for Active; 'I' for Inactive)
REMARK    1  A    between atoms: C_1  and  C_2
REMARK    2  A    between atoms: C_13  and  C_15
REMARK    3  A    between atoms: C_15  and  C_17
REMARK    4  A    between atoms: C_15  and  C_24
REMARK                            x       y       z     vdW  Elec       q    Type
REMARK                         _______ _______ _______ _____ _____    ______ ____
ROOT
ATOM      1  C   UNL     1       5.469  -1.924   7.043  0.00  0.00    +0.111 C 
ATOM      2  C   UNL     1       4.821  -3.142   6.436  0.00  0.00    +0.216 A 
ATOM      3  N   UNL     1       5.437  -4.167   5.926  0.00  0.00    -0.111 NA
ATOM      4  N   UNL     1       4.574  -5.021   5.502  0.00  0.00    -0.093 NA
ATOM      5  C   UNL     1       3.366  -4.566   5.729  0.00  0.00    +0.311 A 
ATOM      6  O   UNL     1       3.497  -3.369   6.330  0.00  0.00    -0.410 OA
ATOM      7  N   UNL     1       2.179  -5.201   5.414  0.00  0.00    -0.281 N 
ATOM      8  C   UNL     1       0.888  -4.568   5.722  0.00  0.00    +0.128 C 
ATOM      9  C   UNL     1       0.064  -4.482   4.432  0.00  0.00    +0.127 C 
ATOM     10  N   UNL     1       0.069  -5.801   3.783  0.00  0.00    -0.298 N 
ATOM     11  C   UNL     1       1.360  -6.434   3.474  0.00  0.00    +0.127 C 
ATOM     12  C   UNL     1       2.184  -6.517   4.760  0.00  0.00    +0.128 C 
ATOM     13  C   UNL     1      -1.088  -6.419   3.476  0.00  0.00    +0.223 C 
ATOM     14  O   UNL     1      -2.145  -5.935   3.822  0.00  0.00    -0.275 OA
ENDROOT
BRANCH  13  15
ATOM     15  C   UNL     1      -1.070  -7.712   2.702  0.00  0.00    +0.108 C 
BRANCH  15  16
ATOM     16  C   UNL     1      -1.114  -8.873   3.662  0.00  0.00    -0.035 A 
ATOM     17  C   UNL     1      -2.187  -9.019   4.521  0.00  0.00    +0.006 A 
ATOM     18  C   UNL     1      -2.228 -10.083   5.402  0.00  0.00    +0.020 A 
ATOM     19  C   UNL     1      -1.194 -11.003   5.424  0.00  0.00    +0.041 A 
ATOM     20  C   UNL     1      -0.121 -10.857   4.564  0.00  0.00    +0.020 A 
ATOM     21  C   UNL     1      -0.084  -9.795   3.679  0.00  0.00    +0.006 A 
ATOM     22 CL   UNL     1      -1.244 -12.339   6.530  0.00  0.00    -0.084 Cl
ENDBRANCH  15  16
BRANCH  15  23
ATOM     23  C   UNL     1      -2.287  -7.770   1.776  0.00  0.00    +0.005 C 
ATOM     24  C   UNL     1      -2.309  -9.113   1.016  0.00  0.00    +0.004 C 
ATOM     25  C   UNL     1      -2.832  -8.742  -0.394  0.00  0.00    +0.000 C 
ATOM     26  C   UNL     1      -2.159  -7.373  -0.659  0.00  0.00    +0.000 C 
ATOM     27  C   UNL     1      -2.191  -6.664   0.711  0.00  0.00    +0.004 C 
ENDBRANCH  15  23
ENDBRANCH  13  15
TORSDOF 3
