REMARK  Name = ZINC66734307
REMARK  9 active torsions:
REMARK  status: ('A' for Active; 'I' for Inactive)
REMARK    1  A    between atoms: C_4  and  C_7
REMARK    2  A    between atoms: N_10  and  C_12
REMARK    3  A    between atoms: C_12  and  C_13
REMARK    4  A    between atoms: C_13  and  C_14
REMARK    5  A    between atoms: C_14  and  O_15
REMARK    6  A    between atoms: O_15  and  C_16
REMARK    7  A    between atoms: C_16  and  C_18
REMARK    8  A    between atoms: C_18  and  O_19
REMARK    9  A    between atoms: O_19  and  C_20
REMARK                            x       y       z     vdW  Elec       q    Type
REMARK                         _______ _______ _______ _____ _____    ______ ____
ROOT
ATOM      1  C   UNL     1       6.638  -5.415   1.333  0.00  0.00    +0.234 C 
ENDROOT
BRANCH   1   2
ATOM      2  C   UNL     1       5.989  -4.029   1.352  0.00  0.00    +0.066 C 
BRANCH   2   3
ATOM      3  C   UNL     1       5.762  -3.552  -0.084  0.00  0.00    +0.171 C 
BRANCH   3   7
ATOM      4  C   UNL     1       3.699  -0.690  -0.038  0.00  0.00    +0.205 A 
ATOM      5  N   UNL     1       4.921  -0.140  -0.042  0.00  0.00    -0.108 NA
ATOM      6  N   UNL     1       5.776  -1.106  -0.059  0.00  0.00    -0.046 NA
ATOM      7  N   UNL     1       5.141  -2.225  -0.065  0.00  0.00    -0.163 N 
ATOM      8  N   UNL     1       3.873  -1.996  -0.047  0.00  0.00    -0.130 NA
BRANCH   4  12
ATOM      9  C   UNL     1      -0.017   1.379   0.010  0.00  0.00    +0.000 A 
ATOM     10  C   UNL     1       1.169   2.092   0.002  0.00  0.00    +0.001 A 
ATOM     11  C   UNL     1       2.377   1.425  -0.013  0.00  0.00    +0.012 A 
ATOM     12  C   UNL     1       2.402   0.033  -0.021  0.00  0.00    +0.023 A 
ATOM     13  C   UNL     1       1.205  -0.680  -0.013  0.00  0.00    +0.012 A 
ATOM     14  C   UNL     1       0.002  -0.004   0.002  0.00  0.00    +0.001 A 
ENDBRANCH   4  12
ENDBRANCH   3   7
ENDBRANCH   2   3
ENDBRANCH   1   2
BRANCH   1  15
ATOM     15  O   UNL     1       6.850  -5.860   2.674  0.00  0.00    -0.462 OA
BRANCH  15  16
ATOM     16  C   UNL     1       7.416  -7.067   2.833  0.00  0.00    +0.345 C 
ATOM     17  O   UNL     1       7.721  -7.723   1.865  0.00  0.00    -0.247 OA
BRANCH  16  18
ATOM     18  C   UNL     1       7.671  -7.603   4.218  0.00  0.00    +0.349 C 
BRANCH  18  19
ATOM     19  O   UNL     1       8.275  -8.895   4.125  0.00  0.00    -0.478 OA
BRANCH  19  20
ATOM     20  C   UNL     1       8.573  -9.523   5.293  0.00  0.00    +0.159 A 
ATOM     21  C   UNL     1       8.283  -8.911   6.503  0.00  0.00    +0.087 A 
ATOM     22  C   UNL     1       8.587  -9.552   7.691  0.00  0.00    +0.127 A 
ATOM     23  C   UNL     1       9.179 -10.803   7.672  0.00  0.00    +0.041 A 
ATOM     24  C   UNL     1       9.469 -11.415   6.467  0.00  0.00    +0.045 A 
ATOM     25  C   UNL     1       9.162 -10.780   5.277  0.00  0.00    +0.165 A 
ATOM     26  F   UNL     1       9.439 -11.381   4.099  0.00  0.00    -0.202 F 
ATOM     27  F   UNL     1       8.305  -8.956   8.871  0.00  0.00    -0.205 F 
ENDBRANCH  19  20
ENDBRANCH  18  19
ENDBRANCH  16  18
ENDBRANCH  15  16
ENDBRANCH   1  15
TORSDOF 9
