REMARK  Name = ZINC08145421
REMARK  4 active torsions:
REMARK  status: ('A' for Active; 'I' for Inactive)
REMARK    1  A    between atoms: C_1  and  N_2
REMARK    2  A    between atoms: C_4  and  C_11
REMARK    3  A    between atoms: N_13  and  N_14
REMARK    4  A    between atoms: C_15  and  C_17
REMARK                            x       y       z     vdW  Elec       q    Type
REMARK                         _______ _______ _______ _____ _____    ______ ____
ROOT
ATOM      1  C   UNL     1      -2.381   7.877   0.064  0.00  0.00    +0.262 C 
ATOM      2  O   UNL     1      -1.224   8.252   0.055  0.00  0.00    -0.269 OA
ATOM      3  N   UNL     1      -2.664   6.559   0.059  0.00  0.00    -0.230 N 
ATOM      4  H   UNL     1      -3.587   6.261   0.066  0.00  0.00    +0.173 HD
ENDROOT
BRANCH   1   8
ATOM      5  C   UNL     1      -6.967   9.859   0.115  0.00  0.00    +0.149 C 
ATOM      6  N   UNL     1      -5.506   9.760   0.102  0.00  0.00    -0.349 N 
ATOM      7  C   UNL     1      -4.810   8.598   0.089  0.00  0.00    +0.099 A 
ATOM      8  C   UNL     1      -3.472   8.862   0.079  0.00  0.00    +0.063 A 
ATOM      9  C   UNL     1      -3.335  10.330   0.091  0.00  0.00    +0.012 A 
ATOM     10  C   UNL     1      -4.644  10.838   0.099  0.00  0.00    +0.050 A 
ATOM     11  C   UNL     1      -4.842  12.214   0.108  0.00  0.00    +0.026 A 
ATOM     12  C   UNL     1      -3.757  13.065   0.103  0.00  0.00    +0.002 A 
ATOM     13  C   UNL     1      -2.465  12.561   0.089  0.00  0.00    +0.001 A 
ATOM     14  C   UNL     1      -2.248  11.200   0.080  0.00  0.00    +0.011 A 
ENDBRANCH   1   8
BRANCH   3  15
ATOM     15  N   UNL     1      -1.624   5.620   0.045  0.00  0.00    -0.230 N 
ATOM     16  C   UNL     1      -1.906   4.302   0.041  0.00  0.00    +0.261 C 
ATOM     17  O   UNL     1      -3.063   3.928   0.049  0.00  0.00    -0.269 OA
ATOM     18  H   UNL     1      -0.701   5.919   0.039  0.00  0.00    +0.173 HD
BRANCH  16  19
ATOM     19  C   UNL     1      -0.814   3.316   0.026  0.00  0.00    +0.045 A 
ATOM     20  C   UNL     1      -1.079   1.899   0.017  0.00  0.00    +0.020 A 
ATOM     21  C   UNL     1      -0.013   1.076   0.008  0.00  0.00    +0.046 A 
ATOM     22  S   UNL     1       1.367   2.202   0.001  0.00  0.00    -0.104 S 
ATOM     23  C   UNL     1       0.509   3.706   0.016  0.00  0.00    +0.058 A 
ENDBRANCH  16  19
ENDBRANCH   3  15
TORSDOF 3
