REMARK  Name = ZINC36159947
REMARK  13 active torsions:
REMARK  status: ('A' for Active; 'I' for Inactive)
REMARK    1  A    between atoms: C_1  and  C_2
REMARK    2  A    between atoms: C_2  and  C_3
REMARK    3  A    between atoms: C_2  and  C_4
REMARK    4  A    between atoms: C_4  and  C_5
REMARK    5  A    between atoms: C_5  and  N_6
REMARK    6  A    between atoms: N_6  and  C_7
REMARK    7  A    between atoms: N_6  and  C_22
REMARK    8  A    between atoms: C_7  and  C_8
REMARK    9  A    between atoms: C_22  and  C_23
REMARK   10  A    between atoms: C_23  and  C_25
REMARK   11  A    between atoms: C_23  and  O_33
REMARK   12  A    between atoms: C_25  and  O_26
REMARK   13  A    between atoms: O_26  and  C_27
REMARK                            x       y       z     vdW  Elec       q    Type
REMARK                         _______ _______ _______ _____ _____    ______ ____
ROOT
ATOM      1  N   UNL     1      -2.900  -2.459  -0.133  0.00  0.00    +0.386 N 
ATOM      2  H   UNL     1      -3.379  -1.996   0.624  0.00  0.00    -0.081 HD
ENDROOT
BRANCH   1   3
ATOM      3  C   UNL     1      -1.464  -2.161  -0.059  0.00  0.00    -0.078 C 
BRANCH   3   4
ATOM      4  C   UNL     1      -0.752  -2.774  -1.267  0.00  0.00    -0.016 C 
BRANCH   4   6
ATOM      5  C   UNL     1       1.478  -3.304  -2.262  0.00  0.00    +0.007 C 
ATOM      6  C   UNL     1       0.759  -2.583  -1.119  0.00  0.00    -0.019 C 
ATOM      7  C   UNL     1       1.091  -1.090  -1.169  0.00  0.00    +0.007 C 
ENDBRANCH   4   6
ENDBRANCH   3   4
ENDBRANCH   1   3
BRANCH   1   8
ATOM      8  C   UNL     1      -3.104  -3.910  -0.028  0.00  0.00    -0.003 C 
BRANCH   8   9
ATOM      9  C   UNL     1      -2.669  -4.381   1.336  0.00  0.00    +0.094 A 
ATOM     10  N   UNL     1      -2.767  -5.699   1.649  0.00  0.00    -0.312 N 
ATOM     11  H   UNL     1      -3.115  -6.319   0.989  0.00  0.00    +0.170 HD
ATOM     12  C   UNL     1      -2.390  -6.162   2.856  0.00  0.00    +0.260 A 
ATOM     13  O   UNL     1      -2.483  -7.348   3.122  0.00  0.00    -0.267 OA
ATOM     14  C   UNL     1      -1.877  -5.235   3.820  0.00  0.00    +0.075 A 
ATOM     15  C   UNL     1      -1.409  -5.514   5.186  0.00  0.00    -0.023 A 
ATOM     16  C   UNL     1      -0.970  -4.465   5.904  0.00  0.00    -0.004 A 
ATOM     17  S   UNL     1      -1.145  -3.064   4.823  0.00  0.00    -0.073 S 
ATOM     18  C   UNL     1      -1.813  -3.898   3.408  0.00  0.00    +0.116 A 
ATOM     19  N   UNL     1      -2.200  -3.514   2.194  0.00  0.00    -0.229 NA
ATOM     20  C   UNL     1      -0.524  -4.868   7.283  0.00  0.00    +0.043 C 
ATOM     21  C   UNL     1      -1.143  -6.266   7.498  0.00  0.00    +0.010 C 
ATOM     22  C   UNL     1      -1.286  -6.772   6.050  0.00  0.00    +0.037 C 
ENDBRANCH   8   9
ENDBRANCH   1   8
BRANCH   1  23
ATOM     23  C   UNL     1      -3.434  -1.982  -1.416  0.00  0.00    -0.043 C 
BRANCH  23  24
ATOM     24  C   UNL     1      -3.342  -0.456  -1.470  0.00  0.00    +0.135 C 
BRANCH  24  25
ATOM     25  O   UNL     1      -4.133   0.107  -0.421  0.00  0.00    -0.390 OA
ATOM     26  H   UNL     1      -5.071  -0.124  -0.469  0.00  0.00    +0.210 HD
ENDBRANCH  24  25
BRANCH  24  27
ATOM     27  C   UNL     1      -3.861   0.039  -2.821  0.00  0.00    +0.258 C 
BRANCH  27  28
ATOM     28  O   UNL     1      -3.667   1.452  -2.918  0.00  0.00    -0.489 OA
BRANCH  28  29
ATOM     29  C   UNL     1      -4.077   2.054  -4.065  0.00  0.00    +0.121 A 
ATOM     30  C   UNL     1      -4.659   1.301  -5.075  0.00  0.00    +0.045 A 
ATOM     31  C   UNL     1      -5.076   1.916  -6.240  0.00  0.00    +0.004 A 
ATOM     32  C   UNL     1      -4.912   3.279  -6.401  0.00  0.00    +0.000 A 
ATOM     33  C   UNL     1      -4.333   4.031  -5.396  0.00  0.00    +0.004 A 
ATOM     34  C   UNL     1      -3.920   3.423  -4.226  0.00  0.00    +0.045 A 
ENDBRANCH  28  29
ENDBRANCH  27  28
ENDBRANCH  24  27
ENDBRANCH  23  24
ENDBRANCH   1  23
TORSDOF 11
