REMARK  Name = ZINC20685809
REMARK  8 active torsions:
REMARK  status: ('A' for Active; 'I' for Inactive)
REMARK    1  A    between atoms: C_1  and  N_2
REMARK    2  A    between atoms: N_2  and  C_3
REMARK    3  A    between atoms: N_2  and  C_13
REMARK    4  A    between atoms: C_3  and  C_4
REMARK    5  A    between atoms: C_9  and  O_10
REMARK    6  A    between atoms: O_10  and  C_11
REMARK    7  A    between atoms: C_13  and  C_14
REMARK    8  A    between atoms: C_20  and  C_25
REMARK                            x       y       z     vdW  Elec       q    Type
REMARK                         _______ _______ _______ _____ _____    ______ ____
ROOT
ATOM      1  C   UNL     1      -0.718   1.572   1.248  0.00  0.00    +0.094 A 
ATOM      2  N   UNL     1      -0.228   1.237   2.469  0.00  0.00    -0.312 N 
ATOM      3  H   UNL     1       0.676   0.615   2.547  0.00  0.00    +0.170 HD
ATOM      4  C   UNL     1      -0.828   1.651   3.601  0.00  0.00    +0.260 A 
ATOM      5  O   UNL     1      -0.375   1.341   4.689  0.00  0.00    -0.267 OA
ATOM      6  C   UNL     1      -2.005   2.459   3.506  0.00  0.00    +0.080 A 
ATOM      7  C   UNL     1      -2.824   3.025   4.572  0.00  0.00    +0.004 A 
ATOM      8  C   UNL     1      -3.906   3.768   4.237  0.00  0.00    +0.056 A 
ATOM      9  S   UNL     1      -3.884   3.750   2.455  0.00  0.00    -0.076 S 
ATOM     10  C   UNL     1      -2.437   2.755   2.203  0.00  0.00    +0.116 A 
ATOM     11  N   UNL     1      -1.787   2.313   1.129  0.00  0.00    -0.229 NA
ENDROOT
BRANCH   7  12
ATOM     12  C   UNL     1      -2.480   2.789   5.994  0.00  0.00    -0.016 A 
ATOM     13  C   UNL     1      -2.234   1.495   6.450  0.00  0.00    +0.011 A 
ATOM     14  C   UNL     1      -1.909   1.282   7.773  0.00  0.00    +0.039 A 
ATOM     15  C   UNL     1      -1.837   2.350   8.652  0.00  0.00    +0.123 A 
ATOM     16  C   UNL     1      -2.086   3.638   8.206  0.00  0.00    +0.039 A 
ATOM     17  C   UNL     1      -2.406   3.862   6.883  0.00  0.00    +0.011 A 
ATOM     18  F   UNL     1      -1.524   2.136   9.949  0.00  0.00    -0.205 F 
ENDBRANCH   7  12
BRANCH   1  19
ATOM     19  C   UNL     1      -0.013   1.086   0.008  0.00  0.00    -0.003 C 
BRANCH  19  21
ATOM     20  C   UNL     1      -2.059   0.969  -1.281  0.00  0.00    -0.095 C 
ATOM     21  N   UNL     1      -0.723   1.572  -1.182  0.00  0.00    +0.385 N 
ATOM     22  H   UNL     1      -0.850   2.660  -1.079  0.00  0.00    -0.081 HD
BRANCH  21  23
ATOM     23  C   UNL     1       0.059   1.323  -2.401  0.00  0.00    -0.039 C 
BRANCH  23  24
ATOM     24  C   UNL     1      -0.576   2.045  -3.561  0.00  0.00    -0.021 A 
ATOM     25  C   UNL     1      -1.379   1.356  -4.449  0.00  0.00    +0.020 A 
ATOM     26  C   UNL     1      -1.962   2.018  -5.514  0.00  0.00    +0.018 A 
ATOM     27  C   UNL     1      -1.741   3.373  -5.693  0.00  0.00    +0.019 A 
ATOM     28  C   UNL     1      -0.939   4.066  -4.808  0.00  0.00    +0.047 A 
ATOM     29  C   UNL     1      -0.359   3.404  -3.735  0.00  0.00    +0.121 A 
ATOM     30 BR   UNL     1      -3.061   1.072  -6.728  0.00  0.00    -0.050 Br
BRANCH  29  31
ATOM     31  O   UNL     1       0.426   4.086  -2.860  0.00  0.00    -0.495 OA
ATOM     32  C   UNL     1       0.606   5.482  -3.101  0.00  0.00    +0.277 C 
ENDBRANCH  29  31
ENDBRANCH  23  24
ENDBRANCH  21  23
ENDBRANCH  19  21
ENDBRANCH   1  19
TORSDOF 6
