REMARK  Name = ZINC12550022
REMARK  5 active torsions:
REMARK  status: ('A' for Active; 'I' for Inactive)
REMARK    1  A    between atoms: C_1  and  C_2
REMARK    2  A    between atoms: C_4  and  C_28
REMARK    3  A    between atoms: C_12  and  C_14
REMARK    4  A    between atoms: C_14  and  C_15
REMARK    5  A    between atoms: C_21  and  C_23
REMARK                            x       y       z     vdW  Elec       q    Type
REMARK                         _______ _______ _______ _____ _____    ______ ____
ROOT
ATOM      1  C   UNL     1       9.124   7.300   8.940  0.00  0.00    +0.044 C 
ATOM      2  C   UNL     1       8.903   7.223   7.451  0.00  0.00    -0.049 A 
ATOM      3  C   UNL     1       9.954   6.903   6.603  0.00  0.00    +0.009 A 
ATOM      4  C   UNL     1       9.780   6.826   5.246  0.00  0.00    -0.024 A 
ATOM      5  C   UNL     1       8.515   7.073   4.664  0.00  0.00    +0.083 A 
ATOM      6  C   UNL     1       7.469   7.396   5.559  0.00  0.00    +0.041 A 
ATOM      7  C   UNL     1       7.652   7.471   6.917  0.00  0.00    +0.020 A 
ATOM      8  S   UNL     1       6.090   7.625   4.462  0.00  0.00    -0.052 S 
ATOM      9  C   UNL     1       6.959   7.288   2.936  0.00  0.00    +0.165 A 
ATOM     10  N   UNL     1       8.176   7.033   3.358  0.00  0.00    -0.224 NA
ATOM     11  N   UNL     1       6.471   7.289   1.640  0.00  0.00    -0.264 N 
ATOM     12  C   UNL     1       5.174   7.574   1.408  0.00  0.00    +0.224 C 
ATOM     13  O   UNL     1       4.435   7.829   2.335  0.00  0.00    -0.275 OA
ATOM     14  C   UNL     1      10.950   6.474   4.364  0.00  0.00    +0.046 C 
ATOM     15  H   UNL     1       7.062   7.085   0.898  0.00  0.00    +0.157 HD
ENDROOT
BRANCH  12  16
ATOM     16  C   UNL     1       4.643   7.576  -0.002  0.00  0.00    +0.150 C 
BRANCH  16  17
ATOM     17  C   UNL     1       3.177   7.922   0.014  0.00  0.00    +0.041 A 
ATOM     18  C   UNL     1       2.803   9.201   0.024  0.00  0.00    +0.070 A 
ATOM     19  S   UNL     1       1.022   9.065   0.040  0.00  0.00    -0.057 S 
ATOM     20  C   UNL     1       0.921   7.290   0.032  0.00  0.00    +0.178 A 
ATOM     21  N   UNL     1       2.239   6.913   0.017  0.00  0.00    -0.296 N 
ATOM     22  C   UNL     1       2.216   5.521   0.016  0.00  0.00    +0.122 A 
ATOM     23  C   UNL     1       0.916   5.133   0.020  0.00  0.00    +0.097 A 
ATOM     24  N   UNL     1       0.148   6.243   0.033  0.00  0.00    -0.221 NA
BRANCH  23  25
ATOM     25  C   UNL     1       0.425   3.738   0.017  0.00  0.00    +0.039 A 
ATOM     26  C   UNL     1      -0.863   3.276   0.026  0.00  0.00    +0.018 A 
ATOM     27  C   UNL     1      -1.079   1.914   0.017  0.00  0.00    +0.008 A 
ATOM     28  C   UNL     1      -0.013   1.076   0.008  0.00  0.00    +0.046 A 
ATOM     29  S   UNL     1       1.360   2.217   0.001  0.00  0.00    -0.095 S 
ENDBRANCH  23  25
ENDBRANCH  16  17
ENDBRANCH  12  16
TORSDOF 3
