REMARK  Name = ZINC20920717
REMARK  16 active torsions:
REMARK  status: ('A' for Active; 'I' for Inactive)
REMARK    1  A    between atoms: C_1  and  C_2
REMARK    2  A    between atoms: C_2  and  O_3
REMARK    3  A    between atoms: O_3  and  C_4
REMARK    4  A    between atoms: C_4  and  C_6
REMARK    5  A    between atoms: C_7  and  C_35
REMARK    6  A    between atoms: C_8  and  C_33
REMARK    7  A    between atoms: C_9  and  N_11
REMARK    8  A    between atoms: C_12  and  C_14
REMARK    9  A    between atoms: C_14  and  S_15
REMARK   10  A    between atoms: S_15  and  C_16
REMARK   11  A    between atoms: N_20  and  N_21
REMARK   12  A    between atoms: N_22  and  N_23
REMARK   13  A    between atoms: C_24  and  C_25
REMARK   14  A    between atoms: N_28  and  C_30
REMARK   15  A    between atoms: C_30  and  C_31
REMARK   16  A    between atoms: C_30  and  C_32
REMARK                            x       y       z     vdW  Elec       q    Type
REMARK                         _______ _______ _______ _____ _____    ______ ____
ROOT
ATOM      1  C   UNL     1       3.337   2.164  -0.018  0.00  0.00    +0.210 A 
ATOM      2  N   UNL     1       2.666   3.291  -0.006  0.00  0.00    -0.119 NA
ATOM      3  N   UNL     1       1.300   2.981   0.000  0.00  0.00    -0.109 NA
ATOM      4  C   UNL     1       1.181   1.676  -0.000  0.00  0.00    +0.254 A 
ATOM      5  N   UNL     1       2.437   1.137  -0.015  0.00  0.00    -0.211 N 
ATOM      6  N   UNL     1      -0.011   0.966   0.007  0.00  0.00    -0.204 N 
ATOM      7  H   UNL     1       0.004  -0.134   0.006  0.00  0.00    +0.177 HD
ENDROOT
BRANCH   5   8
ATOM      8  N   UNL     1       2.739  -0.196  -0.025  0.00  0.00    -0.294 N 
ATOM      9  H   UNL     1       1.932  -0.943  -0.021  0.00  0.00    +0.163 HD
ATOM     10  H   UNL     1       3.790  -0.521  -0.036  0.00  0.00    +0.163 HD
ENDBRANCH   5   8
BRANCH   6  11
ATOM     11  N   UNL     1      -1.234   1.650   0.017  0.00  0.00    -0.187 NA
ATOM     12  C   UNL     1      -2.349   0.986   0.018  0.00  0.00    +0.141 C 
BRANCH  12  13
ATOM     13  C   UNL     1      -3.637   1.706   0.029  0.00  0.00    +0.032 A 
ATOM     14  C   UNL     1      -3.812   3.107   0.043  0.00  0.00    +0.143 A 
ATOM     15  N   UNL     1      -5.094   3.356   0.045  0.00  0.00    -0.179 NA
ATOM     16  N   UNL     1      -5.790   2.142   0.042  0.00  0.00    -0.268 N 
ATOM     17  C   UNL     1      -4.892   1.137   0.031  0.00  0.00    +0.118 A 
BRANCH  16  18
ATOM     18  C   UNL     1      -7.247   1.989   0.048  0.00  0.00    +0.101 C 
ATOM     19  C   UNL     1      -7.749   1.819  -1.387  0.00  0.00    +0.032 C 
ATOM     20  C   UNL     1      -7.627   0.756   0.871  0.00  0.00    +0.032 C 
ENDBRANCH  16  18
ENDBRANCH  12  13
ENDBRANCH   6  11
BRANCH   1  21
ATOM     21  S   UNL     1       5.092   2.004  -0.035  0.00  0.00    -0.075 S 
BRANCH  21  22
ATOM     22  C   UNL     1       5.689   3.717  -0.032  0.00  0.00    +0.173 C 
BRANCH  22  24
ATOM     23  N   UNL     1       7.865   4.894  -0.046  0.00  0.00    -0.278 N 
ATOM     24  C   UNL     1       7.196   3.724  -0.045  0.00  0.00    +0.228 C 
ATOM     25  O   UNL     1       7.807   2.676  -0.056  0.00  0.00    -0.275 OA
ATOM     26  H   UNL     1       7.311   5.844  -0.036  0.00  0.00    +0.155 HD
BRANCH  23  30
ATOM     27  C   UNL     1      11.879   4.431  -0.083  0.00  0.00    +0.102 A 
ATOM     28  C   UNL     1      11.474   5.750  -0.073  0.00  0.00    -0.010 A 
ATOM     29  C   UNL     1      10.111   5.998  -0.061  0.00  0.00    +0.084 A 
ATOM     30  C   UNL     1       9.247   4.900  -0.058  0.00  0.00    +0.090 A 
ATOM     31  S   UNL     1      10.331   3.547  -0.067  0.00  0.00    -0.065 S 
ATOM     32  C   UNL     1      12.475   6.877  -0.077  0.00  0.00    +0.046 C 
BRANCH  27  33
ATOM     33  C   UNL     1      13.238   3.892  -0.097  0.00  0.00    +0.346 C 
ATOM     34  O   UNL     1      14.192   4.648  -0.102  0.00  0.00    -0.244 OA
BRANCH  33  35
ATOM     35  O   UNL     1      13.435   2.557  -0.105  0.00  0.00    -0.461 OA
BRANCH  35  37
ATOM     36  C   UNL     1      14.812   0.572  -0.126  0.00  0.00    +0.048 C 
ATOM     37  C   UNL     1      14.789   2.101  -0.119  0.00  0.00    +0.229 C 
ENDBRANCH  35  37
ENDBRANCH  33  35
ENDBRANCH  27  33
BRANCH  29  38
ATOM     38  C   UNL     1       9.604   7.337  -0.051  0.00  0.00    +0.102 C 
ATOM     39  N   UNL     1       9.202   8.399  -0.043  0.00  0.00    -0.191 NA
ENDBRANCH  29  38
ENDBRANCH  23  30
ENDBRANCH  22  24
ENDBRANCH  21  22
ENDBRANCH   1  21
TORSDOF 12
