REMARK  Name = ZINC55283824
REMARK  8 active torsions:
REMARK  status: ('A' for Active; 'I' for Inactive)
REMARK    1  A    between atoms: C_1  and  C_2
REMARK    2  A    between atoms: C_7  and  N_8
REMARK    3  A    between atoms: C_9  and  C_11
REMARK    4  A    between atoms: C_12  and  C_19
REMARK    5  A    between atoms: C_14  and  C_16
REMARK    6  A    between atoms: C_16  and  C_17
REMARK    7  A    between atoms: C_16  and  C_18
REMARK    8  A    between atoms: C_20  and  C_25
REMARK                            x       y       z     vdW  Elec       q    Type
REMARK                         _______ _______ _______ _____ _____    ______ ____
ROOT
ATOM      1  C   UNL     1      -1.269   1.183   0.186  0.00  0.00    +0.046 C 
ATOM      2  C   UNL     1      -0.590  -0.159   0.087  0.00  0.00    -0.026 A 
ATOM      3  C   UNL     1      -0.586  -0.835  -1.114  0.00  0.00    +0.052 A 
ATOM      4  C   UNL     1       0.037  -2.072  -1.214  0.00  0.00    +0.140 A 
ATOM      5  C   UNL     1       0.662  -2.627  -0.083  0.00  0.00    +0.022 A 
ATOM      6  C   UNL     1       0.654  -1.935   1.131  0.00  0.00    +0.035 A 
ATOM      7  C   UNL     1       0.033  -0.701   1.209  0.00  0.00    +0.037 A 
ATOM      8  C   UNL     1       1.316  -3.934  -0.201  0.00  0.00    -0.033 A 
ATOM      9  C   UNL     1       1.290  -4.557  -1.406  0.00  0.00    +0.096 A 
ATOM     10  C   UNL     1       0.644  -3.942  -2.500  0.00  0.00    +0.337 A 
ATOM     11  O   UNL     1       0.628  -4.511  -3.576  0.00  0.00    -0.245 OA
ATOM     12  O   UNL     1       0.047  -2.746  -2.385  0.00  0.00    -0.422 OA
ATOM     13  C   UNL     1       1.999  -4.568   0.983  0.00  0.00    +0.045 C 
ENDROOT
BRANCH   7  14
ATOM     14  N   UNL     1       0.025   0.001   2.420  0.00  0.00    -0.281 N 
ATOM     15  C   UNL     1      -0.057  -0.669   3.587  0.00  0.00    +0.257 C 
ATOM     16  O   UNL     1      -0.040  -1.885   3.592  0.00  0.00    -0.269 OA
ATOM     17  H   UNL     1       0.078   0.970   2.419  0.00  0.00    +0.155 HD
BRANCH  15  18
ATOM     18  C   UNL     1      -0.165   0.069   4.849  0.00  0.00    +0.097 A 
ATOM     19  C   UNL     1      -0.254  -0.403   6.140  0.00  0.00    +0.058 A 
ATOM     20  N   UNL     1      -0.341   0.497   7.088  0.00  0.00    -0.248 NA
ATOM     21  C   UNL     1      -0.344   1.782   6.819  0.00  0.00    +0.082 A 
ATOM     22  S   UNL     1      -0.212   1.830   5.142  0.00  0.00    -0.067 S 
ATOM     23  C   UNL     1      -0.250  -1.879   6.446  0.00  0.00    +0.067 C 
BRANCH  21  24
ATOM     24  C   UNL     1      -0.437   2.938   7.782  0.00  0.00    +0.039 C 
ATOM     25  C   UNL     1       0.810   3.814   7.649  0.00  0.00    +0.014 C 
ATOM     26  C   UNL     1      -1.681   3.769   7.462  0.00  0.00    +0.014 C 
ENDBRANCH  21  24
ENDBRANCH  15  18
ENDBRANCH   7  14
TORSDOF 3
