REMARK  Name = ZINC33696229
REMARK  11 active torsions:
REMARK  status: ('A' for Active; 'I' for Inactive)
REMARK    1  A    between atoms: C_1  and  C_2
REMARK    2  A    between atoms: C_2  and  C_3
REMARK    3  A    between atoms: C_3  and  C_30
REMARK    4  A    between atoms: N_6  and  C_10
REMARK    5  A    between atoms: C_10  and  C_11
REMARK    6  A    between atoms: N_13  and  C_14
REMARK    7  A    between atoms: C_15  and  C_25
REMARK    8  A    between atoms: C_16  and  C_19
REMARK    9  A    between atoms: C_25  and  O_27
REMARK   10  A    between atoms: O_27  and  C_28
REMARK   11  A    between atoms: C_28  and  C_29
REMARK                            x       y       z     vdW  Elec       q    Type
REMARK                         _______ _______ _______ _____ _____    ______ ____
ROOT
ATOM      1  C   UNL     1      -4.747   2.821   2.773  0.00  0.00    +0.236 C 
ATOM      2  O   UNL     1      -4.759   3.600   1.843  0.00  0.00    -0.274 OA
ATOM      3  N   UNL     1      -5.598   2.991   3.805  0.00  0.00    -0.278 N 
ATOM      4  H   UNL     1      -5.587   2.285   4.648  0.00  0.00    +0.155 HD
ENDROOT
BRANCH   3   5
ATOM      5  C   UNL     1      -6.485   4.055   3.803  0.00  0.00    +0.086 A 
ATOM      6  C   UNL     1      -7.427   4.391   4.767  0.00  0.00    +0.095 A 
ATOM      7  C   UNL     1      -8.233   5.569   4.508  0.00  0.00    +0.005 A 
ATOM      8  C   UNL     1      -7.991   6.232   3.349  0.00  0.00    +0.056 A 
ATOM      9  S   UNL     1      -6.679   5.288   2.603  0.00  0.00    -0.080 S 
BRANCH   7  10
ATOM     10  C   UNL     1      -9.271   6.026   5.464  0.00  0.00    -0.017 A 
ATOM     11  C   UNL     1     -10.219   5.127   5.950  0.00  0.00    +0.008 A 
ATOM     12  C   UNL     1     -11.179   5.557   6.843  0.00  0.00    +0.001 A 
ATOM     13  C   UNL     1     -11.208   6.880   7.248  0.00  0.00    +0.000 A 
ATOM     14  C   UNL     1     -10.273   7.777   6.765  0.00  0.00    +0.001 A 
ATOM     15  C   UNL     1      -9.305   7.357   5.875  0.00  0.00    +0.008 A 
ENDBRANCH   7  10
BRANCH   6  16
ATOM     16  C   UNL     1      -7.598   3.595   5.983  0.00  0.00    +0.342 C 
ATOM     17  O   UNL     1      -6.953   3.862   6.979  0.00  0.00    -0.245 OA
BRANCH  16  18
ATOM     18  O   UNL     1      -8.470   2.566   5.999  0.00  0.00    -0.461 OA
BRANCH  18  19
ATOM     19  C   UNL     1      -8.587   1.821   7.240  0.00  0.00    +0.229 C 
ATOM     20  C   UNL     1      -9.616   0.702   7.067  0.00  0.00    +0.048 C 
ENDBRANCH  18  19
ENDBRANCH  16  18
ENDBRANCH   6  16
ENDBRANCH   3   5
BRANCH   1  21
ATOM     21  C   UNL     1      -3.782   1.664   2.775  0.00  0.00    +0.214 C 
BRANCH  21  25
ATOM     22  C   UNL     1      -1.332   2.114   0.020  0.00  0.00    +0.138 C 
ATOM     23  C   UNL     1      -1.799   2.351   1.442  0.00  0.00    +0.251 C 
ATOM     24  O   UNL     1      -1.234   2.994   2.301  0.00  0.00    -0.272 OA
ATOM     25  N   UNL     1      -2.974   1.700   1.553  0.00  0.00    -0.215 N 
ATOM     26  C   UNL     1      -3.310   1.091   0.411  0.00  0.00    +0.310 C 
ATOM     27  O   UNL     1      -4.327   0.441   0.266  0.00  0.00    -0.252 OA
ATOM     28  N   UNL     1      -2.398   1.278  -0.560  0.00  0.00    -0.281 N 
ATOM     29  H   UNL     1      -2.327   0.943  -1.605  0.00  0.00    +0.152 HD
BRANCH  22  30
ATOM     30  C   UNL     1      -0.017   1.378   0.010  0.00  0.00    -0.015 A 
ATOM     31  C   UNL     1       1.171   2.086   0.002  0.00  0.00    +0.006 A 
ATOM     32  C   UNL     1       2.377   1.411  -0.015  0.00  0.00    +0.000 A 
ATOM     33  C   UNL     1       2.396   0.029  -0.022  0.00  0.00    +0.000 A 
ATOM     34  C   UNL     1       1.208  -0.679  -0.013  0.00  0.00    +0.000 A 
ATOM     35  C   UNL     1       0.002  -0.004   0.002  0.00  0.00    +0.006 A 
ENDBRANCH  22  30
BRANCH  22  37
ATOM     36  C   UNL     1      -2.558   4.165  -0.710  0.00  0.00    +0.007 C 
ATOM     37  C   UNL     1      -1.212   3.439  -0.736  0.00  0.00    +0.037 C 
ENDBRANCH  22  37
ENDBRANCH  21  25
ENDBRANCH   1  21
TORSDOF 9
