REMARK  Name = ZINC49283962
REMARK  6 active torsions:
REMARK  status: ('A' for Active; 'I' for Inactive)
REMARK    1  A    between atoms: C_1  and  C_2
REMARK    2  A    between atoms: C_2  and  O_3
REMARK    3  A    between atoms: O_3  and  C_4
REMARK    4  A    between atoms: N_12  and  C_13
REMARK    5  A    between atoms: N_15  and  C_16
REMARK    6  A    between atoms: C_16  and  C_17
REMARK                            x       y       z     vdW  Elec       q    Type
REMARK                         _______ _______ _______ _____ _____    ______ ____
ROOT
ATOM      1  C   UNL     1       0.777  -1.811  -1.336  0.00  0.00    +0.122 A 
ATOM      2  C   UNL     1       0.245  -2.679  -0.391  0.00  0.00    +0.048 A 
ATOM      3  C   UNL     1       0.344  -4.041  -0.540  0.00  0.00    +0.030 A 
ATOM      4  C   UNL     1       0.988  -4.601  -1.657  0.00  0.00    +0.055 A 
ATOM      5  C   UNL     1       1.514  -3.701  -2.595  0.00  0.00    +0.042 A 
ATOM      6  C   UNL     1       1.413  -2.337  -2.452  0.00  0.00    +0.062 A 
ATOM      7  S   UNL     1       2.228  -4.762  -3.828  0.00  0.00    -0.052 S 
ATOM      8  C   UNL     1       1.815  -6.327  -3.076  0.00  0.00    +0.165 A 
ATOM      9  N   UNL     1       2.076  -7.554  -3.513  0.00  0.00    -0.139 NA
ATOM     10  N   UNL     1       1.164  -5.945  -1.942  0.00  0.00    -0.335 N 
ATOM     11  H   UNL     1       0.822  -6.617  -1.332  0.00  0.00    +0.168 HD
ENDROOT
BRANCH   9  12
ATOM     12  C   UNL     1       2.734  -7.729  -4.664  0.00  0.00    +0.326 C 
ATOM     13  O   UNL     1       3.094  -6.762  -5.313  0.00  0.00    -0.251 OA
ATOM     14  N   UNL     1       2.999  -8.974  -5.107  0.00  0.00    -0.293 N 
ATOM     15  H   UNL     1       2.712  -9.743  -4.590  0.00  0.00    +0.151 HD
BRANCH  14  16
ATOM     16  C   UNL     1       3.720  -9.165  -6.368  0.00  0.00    +0.148 C 
BRANCH  16  17
ATOM     17  C   UNL     1       3.885 -10.639  -6.633  0.00  0.00    +0.006 C 
ATOM     18  C   UNL     1       3.295 -11.190  -7.666  0.00  0.00    +0.021 C 
ATOM     19 BR   UNL     1       4.945 -11.695  -5.475  0.00  0.00    -0.054 Br
ENDBRANCH  16  17
ENDBRANCH  14  16
ENDBRANCH   9  12
BRANCH   1  20
ATOM     20  O   UNL     1       0.671  -0.465  -1.174  0.00  0.00    -0.492 OA
BRANCH  20  22
ATOM     21  C   UNL     1      -0.019   1.526   0.010  0.00  0.00    +0.048 C 
ATOM     22  C   UNL     1       0.002  -0.004   0.002  0.00  0.00    +0.225 C 
ENDBRANCH  20  22
ENDBRANCH   1  20
TORSDOF 5
