REMARK  Name = ZINC15727943
REMARK  5 active torsions:
REMARK  status: ('A' for Active; 'I' for Inactive)
REMARK    1  A    between atoms: C_1  and  C_2
REMARK    2  A    between atoms: C_2  and  C_3
REMARK    3  A    between atoms: N_5  and  C_6
REMARK    4  A    between atoms: C_14  and  C_15
REMARK    5  A    between atoms: N_20  and  C_23
REMARK                            x       y       z     vdW  Elec       q    Type
REMARK                         _______ _______ _______ _____ _____    ______ ____
ROOT
ATOM      1  C   UNL     1      -0.980   6.556  -2.574  0.00  0.00    +0.092 A 
ATOM      2  C   UNL     1      -1.391   6.825  -3.958  0.00  0.00    +0.042 A 
ATOM      3  C   UNL     1      -2.088   7.862  -4.579  0.00  0.00    +0.013 A 
ATOM      4  C   UNL     1      -2.316   7.813  -5.926  0.00  0.00    +0.001 A 
ATOM      5  C   UNL     1      -1.856   6.741  -6.678  0.00  0.00    +0.004 A 
ATOM      6  C   UNL     1      -1.166   5.708  -6.082  0.00  0.00    +0.047 A 
ATOM      7  C   UNL     1      -0.923   5.736  -4.713  0.00  0.00    +0.138 A 
ATOM      8  O   UNL     1      -0.288   4.894  -3.875  0.00  0.00    -0.448 OA
ATOM      9  C   UNL     1      -0.317   5.361  -2.606  0.00  0.00    +0.212 A 
ENDROOT
BRANCH   9  10
ATOM     10  C   UNL     1       0.275   4.694  -1.448  0.00  0.00    +0.284 C 
ATOM     11  O   UNL     1       1.397   4.992  -1.081  0.00  0.00    -0.267 OA
ATOM     12  N   UNL     1      -0.421   3.748  -0.786  0.00  0.00    -0.292 N 
ATOM     13  C   UNL     1       0.191   2.993   0.318  0.00  0.00    +0.127 C 
ATOM     14  C   UNL     1      -0.020   1.497   0.060  0.00  0.00    +0.124 C 
ATOM     15  N   UNL     1      -1.450   1.237  -0.152  0.00  0.00    -0.327 N 
ATOM     16  C   UNL     1      -1.946   1.931  -1.348  0.00  0.00    +0.124 C 
ATOM     17  C   UNL     1      -1.814   3.444  -1.149  0.00  0.00    +0.127 C 
BRANCH  15  18
ATOM     18  C   UNL     1      -1.703  -0.135  -0.228  0.00  0.00    +0.030 A 
ATOM     19  C   UNL     1      -0.659  -1.043  -0.110  0.00  0.00    +0.023 A 
ATOM     20  C   UNL     1      -0.913  -2.398  -0.180  0.00  0.00    +0.002 A 
ATOM     21  C   UNL     1      -2.205  -2.852  -0.378  0.00  0.00    +0.000 A 
ATOM     22  C   UNL     1      -3.246  -1.950  -0.501  0.00  0.00    +0.002 A 
ATOM     23  C   UNL     1      -2.999  -0.593  -0.426  0.00  0.00    +0.023 A 
ENDBRANCH  15  18
ENDBRANCH   9  10
BRANCH   1  26
ATOM     24  C   UNL     1      -2.363   8.057  -1.366  0.00  0.00    +0.217 C 
ATOM     25  O   UNL     1      -3.144   8.071  -2.293  0.00  0.00    -0.275 OA
ATOM     26  N   UNL     1      -1.216   7.354  -1.460  0.00  0.00    -0.282 N 
ATOM     27  H   UNL     1      -0.556   7.405  -0.752  0.00  0.00    +0.155 HD
BRANCH  24  29
ATOM     28  C   UNL     1      -4.024   9.528  -0.259  0.00  0.00    +0.013 C 
ATOM     29  C   UNL     1      -2.674   8.825  -0.107  0.00  0.00    +0.093 C 
ENDBRANCH  24  29
ENDBRANCH   1  26
TORSDOF 4
