REMARK  Name = ZINC39710208
REMARK  10 active torsions:
REMARK  status: ('A' for Active; 'I' for Inactive)
REMARK    1  A    between atoms: C_1  and  C_2
REMARK    2  A    between atoms: C_9  and  C_14
REMARK    3  A    between atoms: C_14  and  C_16
REMARK    4  A    between atoms: C_14  and  N_25
REMARK    5  A    between atoms: N_20  and  C_21
REMARK    6  A    between atoms: C_21  and  C_22
REMARK    7  A    between atoms: C_22  and  O_23
REMARK    8  A    between atoms: O_23  and  C_24
REMARK    9  A    between atoms: N_28  and  C_31
REMARK   10  A    between atoms: C_35  and  C_37
REMARK                            x       y       z     vdW  Elec       q    Type
REMARK                         _______ _______ _______ _____ _____    ______ ____
ROOT
ATOM      1  C   UNL     1      -1.165  -4.909   2.964  0.00  0.00    +0.142 C 
ENDROOT
BRANCH   1  10
ATOM      2  C   UNL     1       4.948  -4.212   6.590  0.00  0.00    +0.044 C 
ATOM      3  C   UNL     1       3.861  -3.710   5.675  0.00  0.00    -0.050 A 
ATOM      4  C   UNL     1       3.660  -2.336   5.543  0.00  0.00    +0.005 A 
ATOM      5  C   UNL     1       2.701  -1.810   4.738  0.00  0.00    +0.024 A 
ATOM      6  C   UNL     1       1.856  -2.650   3.989  0.00  0.00    +0.040 A 
ATOM      7  N   UNL     1       0.919  -2.123   3.202  0.00  0.00    -0.284 N 
ATOM      8  C   UNL     1       0.092  -2.854   2.473  0.00  0.00    +0.226 C 
ATOM      9  O   UNL     1      -0.744  -2.316   1.773  0.00  0.00    -0.275 OA
ATOM     10  C   UNL     1       0.191  -4.362   2.514  0.00  0.00    +0.123 C 
ATOM     11  C   UNL     1       1.256  -4.967   3.408  0.00  0.00    -0.003 C 
ATOM     12  C   UNL     1       2.046  -4.106   4.109  0.00  0.00    -0.007 A 
ATOM     13  C   UNL     1       3.102  -4.605   4.992  0.00  0.00    +0.012 A 
ATOM     14  H   UNL     1       0.839  -1.157   3.162  0.00  0.00    +0.155 HD
ENDBRANCH   1  10
BRANCH   1  15
ATOM     15  N   UNL     1      -1.140  -6.378   2.920  0.00  0.00    -0.289 NA
ATOM     16  C   UNL     1      -0.955  -6.860   1.544  0.00  0.00    +0.104 C 
ATOM     17  C   UNL     1      -0.753  -8.379   1.562  0.00  0.00    +0.120 C 
ATOM     18  N   UNL     1      -1.875  -8.991   2.289  0.00  0.00    -0.327 N 
ATOM     19  C   UNL     1      -2.209  -8.466   3.622  0.00  0.00    +0.120 C 
ATOM     20  C   UNL     1      -2.354  -6.943   3.523  0.00  0.00    +0.104 C 
BRANCH  18  21
ATOM     21  C   UNL     1      -2.604 -10.042   1.729  0.00  0.00    +0.030 A 
ATOM     22  C   UNL     1      -2.199 -10.607   0.526  0.00  0.00    +0.023 A 
ATOM     23  C   UNL     1      -2.922 -11.646  -0.025  0.00  0.00    +0.002 A 
ATOM     24  C   UNL     1      -4.048 -12.125   0.620  0.00  0.00    +0.012 A 
ATOM     25  C   UNL     1      -4.454 -11.566   1.817  0.00  0.00    +0.057 A 
ATOM     26  C   UNL     1      -3.732 -10.529   2.377  0.00  0.00    +0.035 A 
BRANCH  25  27
ATOM     27  C   UNL     1      -5.682 -12.090   2.516  0.00  0.00    +0.417 C 
ATOM     28  F   UNL     1      -6.235 -13.134   1.766  0.00  0.00    -0.166 F 
ATOM     29  F   UNL     1      -5.331 -12.563   3.785  0.00  0.00    -0.166 F 
ATOM     30  F   UNL     1      -6.621 -11.061   2.645  0.00  0.00    -0.166 F 
ENDBRANCH  25  27
ENDBRANCH  18  21
ENDBRANCH   1  15
BRANCH   1  31
ATOM     31  C   UNL     1      -1.448  -4.454   4.372  0.00  0.00    +0.170 A 
ATOM     32  N   UNL     1      -0.897  -4.915   5.469  0.00  0.00    -0.112 NA
ATOM     33  N   UNL     1      -1.400  -4.272   6.467  0.00  0.00    -0.023 NA
ATOM     34  N   UNL     1      -2.257  -3.414   6.035  0.00  0.00    -0.044 NA
ATOM     35  N   UNL     1      -2.311  -3.492   4.748  0.00  0.00    -0.225 N 
BRANCH  35  36
ATOM     36  C   UNL     1      -3.156  -2.687   3.862  0.00  0.00    +0.175 C 
BRANCH  36  37
ATOM     37  C   UNL     1      -4.500  -3.390   3.662  0.00  0.00    +0.183 C 
BRANCH  37  38
ATOM     38  O   UNL     1      -5.324  -2.605   2.798  0.00  0.00    -0.381 OA
ATOM     39  C   UNL     1      -6.609  -3.176   2.544  0.00  0.00    +0.194 C 
ENDBRANCH  37  38
ENDBRANCH  36  37
ENDBRANCH  35  36
ENDBRANCH   1  31
TORSDOF 8
