REMARK  Name = ZINC08696032
REMARK  11 active torsions:
REMARK  status: ('A' for Active; 'I' for Inactive)
REMARK    1  A    between atoms: C_1  and  C_2
REMARK    2  A    between atoms: C_3  and  C_12
REMARK    3  A    between atoms: C_14  and  C_19
REMARK    4  A    between atoms: C_16  and  C_17
REMARK    5  A    between atoms: C_16  and  C_18
REMARK    6  A    between atoms: C_19  and  C_20
REMARK    7  A    between atoms: N_22  and  C_23
REMARK    8  A    between atoms: N_22  and  C_30
REMARK    9  A    between atoms: C_23  and  C_24
REMARK   10  A    between atoms: C_30  and  C_35
REMARK   11  A    between atoms: N_37  and  C_38
REMARK                            x       y       z     vdW  Elec       q    Type
REMARK                         _______ _______ _______ _____ _____    ______ ____
ROOT
ATOM      1  C   UNL     1      -3.273   7.249  -2.079  0.00  0.00    +0.217 C 
ATOM      2  O   UNL     1      -3.397   7.370  -3.279  0.00  0.00    -0.276 OA
ATOM      3  N   UNL     1      -4.345   6.958  -1.316  0.00  0.00    -0.283 N 
ENDROOT
BRANCH   3   4
ATOM      4  C   UNL     1      -5.677   6.889  -1.921  0.00  0.00    +0.114 C 
ATOM      5  C   UNL     1      -6.717   6.482  -0.862  0.00  0.00    +0.035 C 
ATOM      6  C   UNL     1      -7.341   5.156  -1.346  0.00  0.00    +0.003 C 
ATOM      7  C   UNL     1      -6.269   4.550  -2.285  0.00  0.00    +0.003 C 
ATOM      8  C   UNL     1      -5.707   5.798  -3.011  0.00  0.00    +0.035 C 
BRANCH   4   9
ATOM      9  C   UNL     1      -6.043   8.224  -2.517  0.00  0.00    +0.237 C 
ATOM     10  O   UNL     1      -6.672   8.274  -3.552  0.00  0.00    -0.273 OA
ATOM     11  N   UNL     1      -5.671   9.362  -1.899  0.00  0.00    -0.308 N 
ATOM     12  H   UNL     1      -5.107   9.324  -1.110  0.00  0.00    +0.149 HD
BRANCH  11  13
ATOM     13  C   UNL     1      -6.118  10.657  -2.417  0.00  0.00    +0.035 C 
ATOM     14  C   UNL     1      -5.614  10.834  -3.851  0.00  0.00    +0.029 C 
ATOM     15  C   UNL     1      -6.081  12.186  -4.393  0.00  0.00    -0.008 C 
ATOM     16  C   UNL     1      -5.523  13.308  -3.515  0.00  0.00    +0.007 C 
ATOM     17  C   UNL     1      -6.026  13.131  -2.081  0.00  0.00    -0.008 C 
ATOM     18  C   UNL     1      -5.559  11.779  -1.539  0.00  0.00    +0.029 C 
ATOM     19  C   UNL     1      -7.555  13.186  -2.067  0.00  0.00    +0.007 C 
ATOM     20  C   UNL     1      -8.114  12.065  -2.945  0.00  0.00    -0.008 C 
ATOM     21  C   UNL     1      -7.610  12.241  -4.379  0.00  0.00    +0.007 C 
ATOM     22  C   UNL     1      -7.647  10.712  -2.404  0.00  0.00    +0.029 C 
ENDBRANCH  11  13
ENDBRANCH   4   9
ENDBRANCH   3   4
BRANCH   1  23
ATOM     23  C   UNL     1      -1.919   7.424  -1.440  0.00  0.00    +0.100 C 
BRANCH  23  25
ATOM     24  C   UNL     1       0.263   7.034  -2.830  0.00  0.00    +0.031 C 
ATOM     25  C   UNL     1      -0.924   7.935  -2.485  0.00  0.00    +0.012 C 
ATOM     26  C   UNL     1       0.480   8.302  -2.003  0.00  0.00    -0.024 C 
ATOM     27  C   UNL     1       1.176   9.481  -2.686  0.00  0.00    +0.012 C 
ATOM     28  C   UNL     1       0.783   8.131  -0.513  0.00  0.00    +0.012 C 
BRANCH  24  31
ATOM     29  C   UNL     1      -1.762   4.690  -3.030  0.00  0.00    +0.063 C 
ATOM     30  C   UNL     1      -0.507   4.692  -2.196  0.00  0.00    +0.017 A 
ATOM     31  C   UNL     1       0.363   5.711  -2.116  0.00  0.00    -0.016 A 
ATOM     32  C   UNL     1       1.432   5.291  -1.206  0.00  0.00    +0.003 A 
ATOM     33  C   UNL     1       2.599   5.896  -0.735  0.00  0.00    +0.010 A 
ATOM     34  C   UNL     1       3.412   5.219   0.131  0.00  0.00    +0.001 A 
ATOM     35  C   UNL     1       3.086   3.935   0.546  0.00  0.00    +0.002 A 
ATOM     36  C   UNL     1       1.937   3.322   0.099  0.00  0.00    +0.026 A 
ATOM     37  C   UNL     1       1.097   3.991  -0.786  0.00  0.00    +0.047 A 
ATOM     38  N   UNL     1      -0.085   3.655  -1.409  0.00  0.00    -0.358 N 
ATOM     39  H   UNL     1      -0.549   2.810  -1.304  0.00  0.00    +0.166 HD
ENDBRANCH  24  31
ENDBRANCH  23  25
ENDBRANCH   1  23
BRANCH   3  40
ATOM     40  C   UNL     1      -4.178   6.710   0.118  0.00  0.00    +0.145 C 
BRANCH  40  41
ATOM     41  C   UNL     1      -4.028   5.230   0.358  0.00  0.00    -0.012 A 
ATOM     42  C   UNL     1      -5.120   4.467   0.745  0.00  0.00    +0.008 A 
ATOM     43  C   UNL     1      -4.935   3.111   0.960  0.00  0.00    +0.020 A 
ATOM     44  C   UNL     1      -3.679   2.564   0.772  0.00  0.00    +0.111 A 
ATOM     45  N   UNL     1      -2.664   3.319   0.399  0.00  0.00    -0.263 NA
ATOM     46  C   UNL     1      -2.803   4.614   0.190  0.00  0.00    +0.115 A 
ENDBRANCH  40  41
ENDBRANCH   3  40
TORSDOF 8
