REMARK  Name = ZINC39991684
REMARK  13 active torsions:
REMARK  status: ('A' for Active; 'I' for Inactive)
REMARK    1  A    between atoms: C_1  and  C_2
REMARK    2  A    between atoms: C_5  and  C_8
REMARK    3  A    between atoms: C_10  and  C_21
REMARK    4  A    between atoms: N_14  and  C_15
REMARK    5  A    between atoms: C_15  and  C_16
REMARK    6  A    between atoms: C_16  and  C_17
REMARK    7  A    between atoms: C_17  and  O_18
REMARK    8  A    between atoms: O_18  and  C_19
REMARK    9  A    between atoms: C_21  and  C_23
REMARK   10  A    between atoms: C_24  and  C_36
REMARK   11  A    between atoms: C_26  and  S_28
REMARK   12  A    between atoms: S_28  and  C_29
REMARK   13  A    between atoms: C_32  and  C_35
REMARK                            x       y       z     vdW  Elec       q    Type
REMARK                         _______ _______ _______ _____ _____    ______ ____
ROOT
ATOM      1  C   UNL     1       0.060  -4.268  -0.013  0.00  0.00    +0.145 C 
ATOM      2  C   UNL     1      -1.285  -4.813   0.404  0.00  0.00    +0.077 C 
ATOM      3  C   UNL     1      -1.078  -5.553   1.517  0.00  0.00    +0.249 C 
ATOM      4  C   UNL     1       0.357  -5.524   1.861  0.00  0.00    +0.288 C 
ATOM      5  O   UNL     1       0.859  -6.094   2.809  0.00  0.00    -0.266 OA
ATOM      6  N   UNL     1       1.029  -4.773   0.967  0.00  0.00    -0.283 N 
ATOM      7  O   UNL     1      -2.036  -6.216   2.208  0.00  0.00    -0.282 OA
ENDROOT
BRANCH   1  12
ATOM      8  C   UNL     1      -0.026   1.510   0.069  0.00  0.00    +0.044 C 
ATOM      9  C   UNL     1      -0.003   0.003   0.047  0.00  0.00    -0.050 A 
ATOM     10  C   UNL     1       0.092  -0.670  -1.157  0.00  0.00    +0.004 A 
ATOM     11  C   UNL     1       0.113  -2.052  -1.176  0.00  0.00    +0.006 A 
ATOM     12  C   UNL     1       0.039  -2.761   0.008  0.00  0.00    -0.022 A 
ATOM     13  C   UNL     1      -0.056  -2.088   1.212  0.00  0.00    +0.006 A 
ATOM     14  C   UNL     1      -0.072  -0.706   1.232  0.00  0.00    +0.004 A 
ENDBRANCH   1  12
BRANCH   2  15
ATOM     15  C   UNL     1      -2.570  -4.583  -0.268  0.00  0.00    +0.203 C 
ATOM     16  O   UNL     1      -3.449  -3.954   0.297  0.00  0.00    -0.286 OA
BRANCH  15  17
ATOM     17  C   UNL     1      -2.789  -5.093  -1.573  0.00  0.00    +0.083 A 
ATOM     18  C   UNL     1      -3.875  -4.917  -2.427  0.00  0.00    +0.058 A 
ATOM     19  N   UNL     1      -3.802  -5.513  -3.587  0.00  0.00    -0.237 NA
ATOM     20  C   UNL     1      -2.751  -6.242  -3.926  0.00  0.00    +0.140 A 
ATOM     21  S   UNL     1      -1.744  -6.132  -2.582  0.00  0.00    -0.057 S 
ATOM     22  C   UNL     1      -5.069  -4.085  -2.033  0.00  0.00    +0.067 C 
BRANCH  20  23
ATOM     23  S   UNL     1      -2.470  -7.116  -5.429  0.00  0.00    -0.063 S 
BRANCH  23  24
ATOM     24  C   UNL     1      -3.975  -6.920  -6.325  0.00  0.00    +0.015 A 
ATOM     25  C   UNL     1      -4.100  -5.901  -7.261  0.00  0.00    +0.015 A 
ATOM     26  C   UNL     1      -5.281  -5.750  -7.961  0.00  0.00    +0.004 A 
ATOM     27  C   UNL     1      -6.338  -6.610  -7.730  0.00  0.00    -0.050 A 
ATOM     28  C   UNL     1      -6.218  -7.625  -6.798  0.00  0.00    +0.004 A 
ATOM     29  C   UNL     1      -5.037  -7.786  -6.100  0.00  0.00    +0.015 A 
ATOM     30  C   UNL     1      -7.626  -6.442  -8.495  0.00  0.00    +0.044 C 
ENDBRANCH  23  24
ENDBRANCH  20  23
ENDBRANCH  15  17
ENDBRANCH   2  15
BRANCH   6  31
ATOM     31  C   UNL     1       2.470  -4.507   0.972  0.00  0.00    +0.111 C 
BRANCH  31  32
ATOM     32  C   UNL     1       2.753  -3.246   1.791  0.00  0.00    +0.047 C 
BRANCH  32  33
ATOM     33  C   UNL     1       4.257  -2.969   1.796  0.00  0.00    +0.161 C 
BRANCH  33  34
ATOM     34  O   UNL     1       4.522  -1.791   2.562  0.00  0.00    -0.383 OA
ATOM     35  C   UNL     1       5.905  -1.441   2.631  0.00  0.00    +0.193 C 
ENDBRANCH  33  34
ENDBRANCH  32  33
ENDBRANCH  31  32
ENDBRANCH   6  31
TORSDOF 9
