REMARK  Name = ZINC39947450
REMARK  7 active torsions:
REMARK  status: ('A' for Active; 'I' for Inactive)
REMARK    1  A    between atoms: C_1  and  C_2
REMARK    2  A    between atoms: C_2  and  C_4
REMARK    3  A    between atoms: C_2  and  N_9
REMARK    4  A    between atoms: C_10  and  C_12
REMARK    5  A    between atoms: C_12  and  S_13
REMARK    6  A    between atoms: S_13  and  C_14
REMARK    7  A    between atoms: C_18  and  C_20
REMARK                            x       y       z     vdW  Elec       q    Type
REMARK                         _______ _______ _______ _____ _____    ______ ____
ROOT
ATOM      1  C   UNL     1      -5.787  -1.865  -2.647  0.00  0.00    +0.339 C 
ATOM      2  N   UNL     1      -5.768  -3.182  -1.989  0.00  0.00    -0.219 N 
ATOM      3  N   UNL     1      -6.495  -3.019  -0.801  0.00  0.00    -0.145 NA
ATOM      4  C   UNL     1      -6.922  -1.788  -0.700  0.00  0.00    +0.238 C 
ATOM      5  O   UNL     1      -6.545  -1.029  -1.762  0.00  0.00    -0.443 OA
ATOM      6  H   UNL     1      -5.342  -3.992  -2.309  0.00  0.00    +0.173 HD
ENDROOT
BRANCH   4   7
ATOM      7  C   UNL     1      -7.681  -1.307   0.376  0.00  0.00    +0.043 C 
ATOM      8  C   UNL     1      -8.101  -2.022   1.499  0.00  0.00    +0.008 A 
ATOM      9  C   UNL     1      -7.918  -3.363   1.898  0.00  0.00    +0.010 A 
ATOM     10  C   UNL     1      -8.451  -3.796   3.069  0.00  0.00    +0.001 A 
ATOM     11  C   UNL     1      -9.183  -2.944   3.899  0.00  0.00    +0.002 A 
ATOM     12  C   UNL     1      -9.397  -1.644   3.578  0.00  0.00    +0.026 A 
ATOM     13  C   UNL     1      -8.871  -1.119   2.369  0.00  0.00    +0.043 A 
ATOM     14  N   UNL     1      -8.938   0.086   1.839  0.00  0.00    -0.380 N 
ATOM     15  C   UNL     1      -8.211   0.097   0.566  0.00  0.00    +0.154 C 
ATOM     16  H   UNL     1      -9.394   0.847   2.232  0.00  0.00    +0.160 HD
ENDBRANCH   4   7
BRANCH   1  17
ATOM     17  S   UNL     1      -4.100  -1.225  -2.832  0.00  0.00    -0.087 S 
BRANCH  17  18
ATOM     18  C   UNL     1      -3.465  -1.164  -1.134  0.00  0.00    +0.170 C 
BRANCH  18  20
ATOM     19  N   UNL     1      -1.372  -0.511   0.012  0.00  0.00    -0.308 N 
ATOM     20  C   UNL     1      -2.051  -0.643  -1.145  0.00  0.00    +0.224 C 
ATOM     21  O   UNL     1      -1.524  -0.341  -2.194  0.00  0.00    -0.275 OA
ATOM     22  H   UNL     1      -1.794  -0.752   0.852  0.00  0.00    +0.149 HD
BRANCH  19  24
ATOM     23  C   UNL     1      -0.019   1.526   0.010  0.00  0.00    +0.033 C 
ATOM     24  C   UNL     1       0.002  -0.004   0.002  0.00  0.00    +0.107 C 
BRANCH  24  25
ATOM     25  C   UNL     1       0.731  -0.503   1.223  0.00  0.00    +0.010 A 
ATOM     26  C   UNL     1       2.010  -0.938   1.335  0.00  0.00    +0.013 A 
ATOM     27  C   UNL     1       2.470  -1.354   2.570  0.00  0.00    +0.008 A 
ATOM     28  C   UNL     1       1.630  -1.314   3.633  0.00  0.00    +0.045 A 
ATOM     29  S   UNL     1       0.137  -0.668   2.898  0.00  0.00    -0.100 S 
ENDBRANCH  24  25
ENDBRANCH  19  24
ENDBRANCH  18  20
ENDBRANCH  17  18
ENDBRANCH   1  17
TORSDOF 6
