REMARK  Name = ZINC61658490
REMARK  7 active torsions:
REMARK  status: ('A' for Active; 'I' for Inactive)
REMARK    1  A    between atoms: C_1  and  C_2
REMARK    2  A    between atoms: C_6  and  C_20
REMARK    3  A    between atoms: C_7  and  O_8
REMARK    4  A    between atoms: O_8  and  C_9
REMARK    5  A    between atoms: C_9  and  C_10
REMARK    6  A    between atoms: C_15  and  C_16
REMARK    7  A    between atoms: N_17  and  O_18
REMARK                            x       y       z     vdW  Elec       q    Type
REMARK                         _______ _______ _______ _____ _____    ______ ____
ROOT
ATOM      1  C   UNL     1      -1.046   1.011   4.254  0.00  0.00    +0.018 A 
ATOM      2  C   UNL     1       0.230   1.300   4.708  0.00  0.00    +0.010 A 
ATOM      3  C   UNL     1       0.367   1.983   5.907  0.00  0.00    +0.020 A 
ATOM      4  C   UNL     1      -0.766   2.354   6.611  0.00  0.00    +0.111 A 
ATOM      5  N   UNL     1      -1.968   2.068   6.156  0.00  0.00    -0.252 NA
ATOM      6  C   UNL     1      -2.142   1.420   5.011  0.00  0.00    +0.113 A 
ENDROOT
BRANCH   6   7
ATOM      7  C   UNL     1      -3.514   1.125   4.535  0.00  0.00    +0.181 C 
ATOM      8  N   UNL     1      -3.691   0.487   3.417  0.00  0.00    -0.070 NA
ATOM      9  N   UNL     1      -4.608   1.529   5.283  0.00  0.00    -0.339 N 
ATOM     10  H   UNL     1      -4.476   2.006   6.118  0.00  0.00    +0.144 HD
ATOM     11  H   UNL     1      -5.506   1.336   4.972  0.00  0.00    +0.144 HD
BRANCH   8  12
ATOM     12  O   UNL     1      -5.003   0.205   2.963  0.00  0.00    -0.408 OA
ATOM     13  H   UNL     1      -5.034  -0.273   2.123  0.00  0.00    +0.328 HD
ENDBRANCH   8  12
ENDBRANCH   6   7
BRANCH   1  14
ATOM     14  C   UNL     1      -1.246   0.270   2.957  0.00  0.00    +0.266 C 
BRANCH  14  15
ATOM     15  O   UNL     1       0.025  -0.033   2.381  0.00  0.00    -0.487 OA
BRANCH  15  22
ATOM     16  C   UNL     1      -0.018   1.503   0.010  0.00  0.00    +0.047 C 
ATOM     17  C   UNL     1       0.002  -0.004   0.002  0.00  0.00    -0.009 A 
ATOM     18  C   UNL     1       0.006  -0.689  -1.198  0.00  0.00    +0.007 A 
ATOM     19  C   UNL     1       0.024  -2.071  -1.206  0.00  0.00    +0.001 A 
ATOM     20  C   UNL     1       0.040  -2.772  -0.014  0.00  0.00    +0.007 A 
ATOM     21  C   UNL     1       0.036  -2.092   1.188  0.00  0.00    -0.009 A 
ATOM     22  C   UNL     1       0.023  -0.705   1.199  0.00  0.00    +0.127 A 
ATOM     23  C   UNL     1       0.052  -2.856   2.487  0.00  0.00    +0.047 C 
ENDBRANCH  15  22
ENDBRANCH  14  15
ENDBRANCH   1  14
TORSDOF 5
