REMARK  Name = ZINC00076393
REMARK  4 active torsions:
REMARK  status: ('A' for Active; 'I' for Inactive)
REMARK    1  A    between atoms: C_6  and  C_7
REMARK    2  A    between atoms: C_10  and  C_21
REMARK    3  A    between atoms: C_16  and  N_20
REMARK    4  A    between atoms: C_17  and  C_18
REMARK                            x       y       z     vdW  Elec       q    Type
REMARK                         _______ _______ _______ _____ _____    ______ ____
ROOT
ATOM      1  C   UNL     1      -1.293  -0.775   0.010  0.00  0.00    +0.102 C 
ATOM      2  C   UNL     1      -1.349  -1.662   1.227  0.00  0.00    +0.058 A 
ATOM      3  C   UNL     1      -1.535  -1.317   2.559  0.00  0.00    +0.173 A 
ATOM      4  N   UNL     1      -1.511  -2.418   3.272  0.00  0.00    -0.167 NA
ATOM      5  N   UNL     1      -1.308  -3.503   2.406  0.00  0.00    -0.246 N 
ATOM      6  H   UNL     1      -1.248  -4.436   2.663  0.00  0.00    +0.192 HD
ATOM      7  C   UNL     1      -1.212  -3.020   1.157  0.00  0.00    +0.223 A 
ATOM      8  O   UNL     1      -1.018  -3.677  -0.014  0.00  0.00    -0.423 OA
ATOM      9  C   UNL     1      -1.234  -2.994  -1.157  0.00  0.00    +0.200 C 
ATOM     10  C   UNL     1      -1.372  -1.650  -1.216  0.00  0.00    +0.098 C 
ENDROOT
BRANCH   1  16
ATOM     11  C   UNL     1      -0.017   1.378   0.010  0.00  0.00    +0.007 A 
ATOM     12  C   UNL     1       1.170   2.086   0.002  0.00  0.00    +0.038 A 
ATOM     13  C   UNL     1       2.379   1.410  -0.013  0.00  0.00    +0.123 A 
ATOM     14  C   UNL     1       2.396   0.026  -0.021  0.00  0.00    +0.038 A 
ATOM     15  C   UNL     1       1.208  -0.680  -0.013  0.00  0.00    +0.007 A 
ATOM     16  C   UNL     1       0.002  -0.004   0.002  0.00  0.00    -0.034 A 
ATOM     17  F   UNL     1       3.540   2.101  -0.021  0.00  0.00    -0.205 F 
ENDBRANCH   1  16
BRANCH   3  18
ATOM     18  C   UNL     1      -1.729   0.079   3.092  0.00  0.00    +0.436 C 
ATOM     19  F   UNL     1      -3.094   0.386   3.108  0.00  0.00    -0.164 F 
ATOM     20  F   UNL     1      -1.219   0.157   4.393  0.00  0.00    -0.164 F 
ATOM     21  F   UNL     1      -1.055   0.990   2.272  0.00  0.00    -0.164 F 
ENDBRANCH   3  18
BRANCH   9  22
ATOM     22  N   UNL     1      -1.317  -3.704  -2.329  0.00  0.00    -0.328 N 
ATOM     23  H   UNL     1      -1.221  -4.669  -2.319  0.00  0.00    +0.145 HD
ATOM     24  H   UNL     1      -1.471  -3.240  -3.167  0.00  0.00    +0.145 HD
ENDBRANCH   9  22
BRANCH  10  25
ATOM     25  C   UNL     1      -1.603  -1.034  -2.488  0.00  0.00    +0.101 C 
ATOM     26  N   UNL     1      -1.786  -0.546  -3.497  0.00  0.00    -0.191 NA
ENDBRANCH  10  25
TORSDOF 4
