REMARK  Name = ZINC13498682
REMARK  12 active torsions:
REMARK  status: ('A' for Active; 'I' for Inactive)
REMARK    1  A    between atoms: C_1  and  C_2
REMARK    2  A    between atoms: C_2  and  C_3
REMARK    3  A    between atoms: C_2  and  C_4
REMARK    4  A    between atoms: C_4  and  C_6
REMARK    5  A    between atoms: C_4  and  N_67
REMARK    6  A    between atoms: N_10  and  C_11
REMARK    7  A    between atoms: C_11  and  C_12
REMARK    8  A    between atoms: C_17  and  C_18
REMARK    9  A    between atoms: C_17  and  N_67
REMARK   10  A    between atoms: C_22  and  O_30
REMARK   11  A    between atoms: O_30  and  C_31
REMARK   12  A    between atoms: C_32  and  N_67
REMARK                            x       y       z     vdW  Elec       q    Type
REMARK                         _______ _______ _______ _____ _____    ______ ____
ROOT
ATOM      1  N   UNL     1       0.442   1.516   0.505  0.00  0.00    +0.391 N 
ATOM      2  H   UNL     1       0.307   2.058   1.367  0.00  0.00    -0.080 HD
ENDROOT
BRANCH   1   3
ATOM      3  C   UNL     1       0.316   0.077   0.819  0.00  0.00    -0.067 C 
ATOM      4  C   UNL     1       0.499  -0.785  -0.447  0.00  0.00    -0.015 C 
ATOM      5  C   UNL     1      -0.512  -1.945  -0.265  0.00  0.00    -0.002 C 
ATOM      6  C   UNL     1      -1.728  -1.241   0.386  0.00  0.00    -0.002 C 
ATOM      7  C   UNL     1      -1.099  -0.213   1.349  0.00  0.00    -0.015 C 
ENDBRANCH   1   3
BRANCH   1   8
ATOM      8  C   UNL     1       1.788   1.800  -0.034  0.00  0.00    +0.006 C 
BRANCH   8   9
ATOM      9  C   UNL     1       2.818   1.090   0.806  0.00  0.00    +0.139 A 
ATOM     10  N   UNL     1       2.958   1.170   2.107  0.00  0.00    -0.115 NA
ATOM     11  N   UNL     1       3.946   0.418   2.448  0.00  0.00    -0.023 NA
ATOM     12  N   UNL     1       4.446  -0.135   1.398  0.00  0.00    -0.044 NA
ATOM     13  N   UNL     1       3.778   0.255   0.365  0.00  0.00    -0.223 N 
BRANCH  13  14
ATOM     14  C   UNL     1       4.019  -0.138  -1.025  0.00  0.00    +0.221 C 
BRANCH  14  15
ATOM     15  C   UNL     1       5.127   0.706  -1.601  0.00  0.00    +0.126 A 
ATOM     16  C   UNL     1       6.433   0.385  -1.617  0.00  0.00    +0.046 A 
ATOM     17  C   UNL     1       7.110   1.452  -2.249  0.00  0.00    +0.041 A 
ATOM     18  C   UNL     1       6.178   2.367  -2.574  0.00  0.00    +0.195 A 
ATOM     19  O   UNL     1       4.979   1.909  -2.179  0.00  0.00    -0.466 OA
ENDBRANCH  14  15
ENDBRANCH  13  14
ENDBRANCH   8   9
BRANCH   8  21
ATOM     20  C   UNL     1       2.022   3.770   1.484  0.00  0.00    +0.006 C 
ATOM     21  C   UNL     1       2.033   3.309   0.026  0.00  0.00    -0.024 C 
ATOM     22  C   UNL     1       3.392   3.630  -0.600  0.00  0.00    +0.006 C 
ENDBRANCH   8  21
ENDBRANCH   1   8
BRANCH   1  23
ATOM     23  C   UNL     1      -0.590   1.911  -0.477  0.00  0.00    -0.036 C 
BRANCH  23  24
ATOM     24  C   UNL     1      -0.278   1.331  -1.832  0.00  0.00    +0.001 A 
ATOM     25  C   UNL     1      -1.007   0.290  -2.306  0.00  0.00    +0.017 A 
ATOM     26  C   UNL     1      -0.679  -0.250  -3.627  0.00  0.00    +0.002 A 
ATOM     27  C   UNL     1      -1.397  -1.322  -4.166  0.00  0.00    +0.055 A 
ATOM     28  C   UNL     1      -1.061  -1.807  -5.414  0.00  0.00    +0.121 A 
ATOM     29  C   UNL     1      -0.015  -1.235  -6.133  0.00  0.00    +0.047 A 
ATOM     30  C   UNL     1       0.699  -0.178  -5.613  0.00  0.00    +0.030 A 
ATOM     31  C   UNL     1       0.378   0.326  -4.356  0.00  0.00    +0.049 A 
ATOM     32  N   UNL     1       1.082   1.383  -3.817  0.00  0.00    -0.322 N 
ATOM     33  H   UNL     1       1.810   1.779  -4.321  0.00  0.00    +0.169 HD
ATOM     34  C   UNL     1       0.769   1.876  -2.606  0.00  0.00    +0.251 A 
ATOM     35  O   UNL     1       1.408   2.815  -2.164  0.00  0.00    -0.268 OA
BRANCH  28  36
ATOM     36  O   UNL     1      -1.755  -2.850  -5.944  0.00  0.00    -0.495 OA
ATOM     37  C   UNL     1      -1.357  -3.303  -7.239  0.00  0.00    +0.277 C 
ENDBRANCH  28  36
ENDBRANCH  23  24
ENDBRANCH   1  23
TORSDOF 9
