REMARK  Name = ZINC07000994
REMARK  7 active torsions:
REMARK  status: ('A' for Active; 'I' for Inactive)
REMARK    1  A    between atoms: C_1  and  C_2
REMARK    2  A    between atoms: C_7  and  C_28
REMARK    3  A    between atoms: N_12  and  C_13
REMARK    4  A    between atoms: N_15  and  C_24
REMARK    5  A    between atoms: C_24  and  C_25
REMARK    6  A    between atoms: C_25  and  C_26
REMARK    7  A    between atoms: C_25  and  C_27
REMARK                            x       y       z     vdW  Elec       q    Type
REMARK                         _______ _______ _______ _____ _____    ______ ____
ROOT
ATOM      1  C   UNL     1      -2.831   1.451   2.499  0.00  0.00    +0.059 A 
ATOM      2  C   UNL     1      -2.078   1.050   1.455  0.00  0.00    +0.113 A 
ATOM      3  N   UNL     1      -1.181   1.881   0.839  0.00  0.00    -0.313 N 
ATOM      4  C   UNL     1      -0.987   3.153   1.239  0.00  0.00    +0.259 A 
ATOM      5  O   UNL     1      -0.175   3.860   0.669  0.00  0.00    -0.267 OA
ATOM      6  C   UNL     1      -1.765   3.679   2.365  0.00  0.00    +0.048 A 
ATOM      7  C   UNL     1      -2.692   2.822   3.002  0.00  0.00    +0.010 A 
ATOM      8  C   UNL     1      -3.442   3.293   4.079  0.00  0.00    +0.010 A 
ATOM      9  C   UNL     1      -3.275   4.580   4.509  0.00  0.00    +0.001 A 
ATOM     10  C   UNL     1      -2.366   5.427   3.887  0.00  0.00    +0.001 A 
ATOM     11  C   UNL     1      -1.611   4.989   2.821  0.00  0.00    +0.014 A 
ENDROOT
BRANCH   1  21
ATOM     12  C   UNL     1      -5.422  -1.829   5.433  0.00  0.00    +0.028 C 
ATOM     13  C   UNL     1      -5.751  -1.004   4.187  0.00  0.00    +0.075 C 
ATOM     14  C   UNL     1      -7.226  -1.206   3.807  0.00  0.00    +0.022 C 
ATOM     15  C   UNL     1      -7.448  -2.665   3.401  0.00  0.00    +0.004 C 
ATOM     16  C   UNL     1      -6.587  -2.992   2.178  0.00  0.00    +0.022 C 
ATOM     17  C   UNL     1      -5.109  -2.809   2.536  0.00  0.00    +0.075 C 
ATOM     18  N   UNL     1      -4.915  -1.452   3.065  0.00  0.00    -0.280 N 
ATOM     19  C   UNL     1      -3.983  -0.635   2.535  0.00  0.00    +0.307 C 
ATOM     20  O   UNL     1      -3.363  -0.980   1.548  0.00  0.00    -0.252 OA
ATOM     21  N   UNL     1      -3.739   0.565   3.099  0.00  0.00    -0.267 N 
ATOM     22  C   UNL     1      -4.250  -2.998   1.284  0.00  0.00    +0.028 C 
ATOM     23  H   UNL     1      -4.191   0.815   3.920  0.00  0.00    +0.156 HD
ENDBRANCH   1  21
BRANCH   3  24
ATOM     24  C   UNL     1      -0.402   1.368  -0.290  0.00  0.00    +0.128 C 
BRANCH  24  25
ATOM     25  C   UNL     1      -1.161   1.627  -1.593  0.00  0.00    +0.003 C 
ATOM     26  C   UNL     1      -1.270   3.135  -1.829  0.00  0.00    +0.009 C 
ATOM     27  C   UNL     1      -0.408   0.983  -2.759  0.00  0.00    +0.009 C 
ENDBRANCH  24  25
ENDBRANCH   3  24
TORSDOF 3
