REMARK  Name = ZINC01407890
REMARK  15 active torsions:
REMARK  status: ('A' for Active; 'I' for Inactive)
REMARK    1  A    between atoms: C_1  and  C_2
REMARK    2  A    between atoms: C_7  and  C_8
REMARK    3  A    between atoms: C_8  and  N_9
REMARK    4  A    between atoms: N_9  and  C_10
REMARK    5  A    between atoms: C_10  and  C_12
REMARK    6  A    between atoms: C_10  and  C_19
REMARK    7  A    between atoms: N_21  and  C_22
REMARK    8  A    between atoms: C_25  and  N_28
REMARK    9  A    between atoms: N_28  and  C_29
REMARK   10  A    between atoms: N_28  and  C_30
REMARK   11  A    between atoms: C_31  and  C_33
REMARK   12  A    between atoms: C_33  and  S_34
REMARK   13  A    between atoms: S_34  and  C_35
REMARK   14  A    between atoms: C_37  and  C_42
REMARK   15  A    between atoms: C_39  and  C_41
REMARK                            x       y       z     vdW  Elec       q    Type
REMARK                         _______ _______ _______ _____ _____    ______ ____
ROOT
ATOM      1  N   UNL     1       1.906   5.444   1.397  0.00  0.00    -0.285 N 
ATOM      2  C   UNL     1       1.493   6.533   2.075  0.00  0.00    +0.227 C 
ATOM      3  O   UNL     1       2.034   6.841   3.115  0.00  0.00    -0.275 OA
ENDROOT
BRANCH   1   4
ATOM      4  C   UNL     1       1.320   5.127   0.092  0.00  0.00    +0.144 C 
BRANCH   4  11
ATOM      5  C   UNL     1      -0.064   4.003  -2.181  0.00  0.00    +0.044 C 
ATOM      6  C   UNL     1      -0.640   3.849  -0.796  0.00  0.00    -0.046 A 
ATOM      7  C   UNL     1      -1.829   3.169  -0.614  0.00  0.00    +0.003 A 
ATOM      8  C   UNL     1      -2.355   3.024   0.656  0.00  0.00    +0.000 A 
ATOM      9  C   UNL     1      -1.696   3.567   1.743  0.00  0.00    +0.000 A 
ATOM     10  C   UNL     1      -0.505   4.246   1.561  0.00  0.00    +0.005 A 
ATOM     11  C   UNL     1       0.023   4.387   0.291  0.00  0.00    -0.027 A 
ENDBRANCH   4  11
ENDBRANCH   1   4
BRANCH   1  12
ATOM     12  C   UNL     1       2.942   4.577   1.964  0.00  0.00    +0.166 C 
BRANCH  12  13
ATOM     13  C   UNL     1       4.185   4.616   1.073  0.00  0.00    +0.023 C 
ATOM     14  C   UNL     1       5.270   3.705   1.660  0.00  0.00    +0.010 C 
ATOM     15  C   UNL     1       6.426   3.624   0.662  0.00  0.00    +0.027 C 
ATOM     16  C   UNL     1       6.825   5.001   0.219  0.00  0.00    -0.031 C 
ATOM     17  C   UNL     1       6.086   6.053   0.369  0.00  0.00    -0.031 C 
ATOM     18  C   UNL     1       4.731   6.044   1.014  0.00  0.00    +0.032 C 
ENDBRANCH  12  13
BRANCH  12  19
ATOM     19  C   UNL     1       2.425   3.164   2.045  0.00  0.00    +0.238 C 
ATOM     20  O   UNL     1       1.768   2.706   1.134  0.00  0.00    -0.273 OA
ATOM     21  N   UNL     1       2.695   2.409   3.128  0.00  0.00    -0.284 N 
ATOM     22  H   UNL     1       3.132   2.804   3.898  0.00  0.00    +0.155 HD
BRANCH  21  23
ATOM     23  C   UNL     1       2.342   1.052   3.142  0.00  0.00    +0.034 A 
ATOM     24  C   UNL     1       2.500   0.282   1.997  0.00  0.00    +0.025 A 
ATOM     25  C   UNL     1       2.157  -1.055   2.012  0.00  0.00    +0.025 A 
ATOM     26  C   UNL     1       1.646  -1.628   3.169  0.00  0.00    +0.029 A 
ATOM     27  C   UNL     1       1.483  -0.857   4.312  0.00  0.00    +0.025 A 
ATOM     28  C   UNL     1       1.830   0.480   4.298  0.00  0.00    +0.025 A 
BRANCH  26  29
ATOM     29  N   UNL     1       1.294  -2.982   3.183  0.00  0.00    -0.336 N 
ATOM     30  C   UNL     1       0.646  -3.558   4.363  0.00  0.00    +0.129 C 
ATOM     31  C   UNL     1       1.575  -3.824   2.017  0.00  0.00    +0.129 C 
ENDBRANCH  26  29
ENDBRANCH  21  23
ENDBRANCH  12  19
ENDBRANCH   1  12
BRANCH   2  32
ATOM     32  C   UNL     1       0.358   7.368   1.540  0.00  0.00    +0.173 C 
BRANCH  32  33
ATOM     33  S   UNL     1      -0.057   8.660   2.737  0.00  0.00    -0.077 S 
BRANCH  33  34
ATOM     34  C   UNL     1      -1.373   9.460   1.881  0.00  0.00    +0.189 A 
ATOM     35  N   UNL     1      -1.736   9.011   0.688  0.00  0.00    -0.227 NA
ATOM     36  C   UNL     1      -2.723   9.585   0.021  0.00  0.00    +0.043 A 
ATOM     37  C   UNL     1      -3.372  10.675   0.580  0.00  0.00    +0.046 A 
ATOM     38  C   UNL     1      -2.964  11.122   1.826  0.00  0.00    +0.043 A 
ATOM     39  N   UNL     1      -1.973  10.500   2.443  0.00  0.00    -0.227 NA
ATOM     40  C   UNL     1      -3.641  12.304   2.472  0.00  0.00    +0.066 C 
ATOM     41  C   UNL     1      -3.134   9.064  -1.332  0.00  0.00    +0.066 C 
ENDBRANCH  33  34
ENDBRANCH  32  33
ENDBRANCH   2  32
TORSDOF 10
