REMARK  Name = ZINC36613891
REMARK  6 active torsions:
REMARK  status: ('A' for Active; 'I' for Inactive)
REMARK    1  A    between atoms: C_1  and  C_2
REMARK    2  A    between atoms: C_4  and  C_28
REMARK    3  A    between atoms: C_6  and  N_8
REMARK    4  A    between atoms: C_9  and  C_11
REMARK    5  A    between atoms: C_13  and  C_21
REMARK    6  A    between atoms: C_17  and  C_20
REMARK                            x       y       z     vdW  Elec       q    Type
REMARK                         _______ _______ _______ _____ _____    ______ ____
ROOT
ATOM      1  C   UNL     1       0.208  -2.796   4.887  0.00  0.00    +0.053 A 
ATOM      2  C   UNL     1       0.320  -4.182   4.945  0.00  0.00    +0.042 A 
ATOM      3  C   UNL     1       0.436  -4.803   6.191  0.00  0.00    +0.076 A 
ATOM      4  N   UNL     1       0.442  -4.102   7.314  0.00  0.00    -0.210 NA
ATOM      5  C   UNL     1       0.339  -2.783   7.316  0.00  0.00    +0.260 A 
ATOM      6  C   UNL     1       0.224  -2.081   6.102  0.00  0.00    +0.076 A 
ATOM      7  C   UNL     1       0.138  -0.663   6.445  0.00  0.00    +0.091 A 
ATOM      8  N   UNL     1       0.204  -0.572   7.739  0.00  0.00    -0.080 NA
ATOM      9  O   UNL     1       0.320  -1.863   8.302  0.00  0.00    -0.334 OA
ATOM     10  C   UNL     1      -0.002   0.483   5.476  0.00  0.00    +0.070 C 
ENDROOT
BRANCH   3  11
ATOM     11  C   UNL     1       0.555  -6.279   6.257  0.00  0.00    +0.001 A 
ATOM     12  C   UNL     1       0.556  -7.034   5.085  0.00  0.00    +0.013 A 
ATOM     13  C   UNL     1       0.667  -8.408   5.152  0.00  0.00    +0.039 A 
ATOM     14  C   UNL     1       0.777  -9.037   6.381  0.00  0.00    +0.123 A 
ATOM     15  C   UNL     1       0.776  -8.291   7.549  0.00  0.00    +0.039 A 
ATOM     16  C   UNL     1       0.672  -6.917   7.492  0.00  0.00    +0.013 A 
ATOM     17  F   UNL     1       0.886 -10.382   6.442  0.00  0.00    -0.205 F 
ENDBRANCH   3  11
BRANCH   1  19
ATOM     18  N   UNL     1       0.747  -2.551   2.510  0.00  0.00    -0.281 N 
ATOM     19  C   UNL     1       0.083  -2.094   3.590  0.00  0.00    +0.249 C 
ATOM     20  O   UNL     1      -0.618  -1.106   3.499  0.00  0.00    -0.270 OA
ATOM     21  H   UNL     1       1.244  -3.382   2.562  0.00  0.00    +0.155 HD
BRANCH  18  27
ATOM     22  C   UNL     1       3.028  -1.032  -1.571  0.00  0.00    +0.044 C 
ATOM     23  C   UNL     1       1.811  -1.072  -0.683  0.00  0.00    -0.048 A 
ATOM     24  C   UNL     1       0.665  -0.392  -1.051  0.00  0.00    +0.006 A 
ATOM     25  C   UNL     1      -0.454  -0.426  -0.239  0.00  0.00    -0.048 A 
ATOM     26  C   UNL     1      -0.430  -1.142   0.942  0.00  0.00    +0.026 A 
ATOM     27  C   UNL     1       0.719  -1.826   1.314  0.00  0.00    +0.034 A 
ATOM     28  C   UNL     1       1.840  -1.794   0.494  0.00  0.00    +0.026 A 
ATOM     29  C   UNL     1      -1.701   0.317  -0.644  0.00  0.00    +0.044 C 
ENDBRANCH  18  27
ENDBRANCH   1  19
TORSDOF 3
