REMARK  Name = ZINC07986146
REMARK  4 active torsions:
REMARK  status: ('A' for Active; 'I' for Inactive)
REMARK    1  A    between atoms: C_1  and  C_2
REMARK    2  A    between atoms: C_10  and  C_11
REMARK    3  A    between atoms: N_13  and  C_14
REMARK    4  A    between atoms: C_15  and  C_23
REMARK                            x       y       z     vdW  Elec       q    Type
REMARK                         _______ _______ _______ _____ _____    ______ ____
ROOT
ATOM      1  C   UNL     1      -2.064   1.842   5.837  0.00  0.00    +0.284 C 
ATOM      2  O   UNL     1      -2.760   2.766   5.460  0.00  0.00    -0.266 OA
ATOM      3  N   UNL     1      -1.288   1.180   4.956  0.00  0.00    -0.273 N 
ATOM      4  H   UNL     1      -0.733   0.444   5.257  0.00  0.00    +0.156 HD
ENDROOT
BRANCH   1  14
ATOM      5  C   UNL     1      -3.750   3.206   8.067  0.00  0.00    +0.048 C 
ATOM      6  C   UNL     1      -2.806   2.042   8.227  0.00  0.00    +0.008 A 
ATOM      7  C   UNL     1      -2.500   1.323   9.462  0.00  0.00    +0.025 A 
ATOM      8  C   UNL     1      -2.922   1.441  10.789  0.00  0.00    +0.012 A 
ATOM      9  C   UNL     1      -2.427   0.591  11.737  0.00  0.00    +0.002 A 
ATOM     10  C   UNL     1      -1.507  -0.390  11.390  0.00  0.00    +0.024 A 
ATOM     11  C   UNL     1      -1.077  -0.523  10.087  0.00  0.00    +0.084 A 
ATOM     12  C   UNL     1      -1.568   0.331   9.105  0.00  0.00    +0.154 A 
ATOM     13  O   UNL     1      -1.342   0.442   7.781  0.00  0.00    -0.448 OA
ATOM     14  C   UNL     1      -2.071   1.447   7.252  0.00  0.00    +0.194 A 
ATOM     15 CL   UNL     1       0.074  -1.756   9.673  0.00  0.00    -0.080 Cl
ENDBRANCH   1  14
BRANCH   3  16
ATOM     16  C   UNL     1      -1.282   1.552   3.622  0.00  0.00    +0.085 A 
ATOM     17  C   UNL     1      -0.558   0.999   2.575  0.00  0.00    +0.068 A 
ATOM     18  C   UNL     1      -0.732   1.580   1.257  0.00  0.00    -0.023 A 
ATOM     19  C   UNL     1      -1.601   2.615   1.194  0.00  0.00    -0.004 A 
ATOM     20  S   UNL     1      -2.178   2.821   2.855  0.00  0.00    -0.077 S 
ATOM     21  C   UNL     1      -1.979   3.405  -0.021  0.00  0.00    +0.043 C 
ATOM     22  C   UNL     1      -0.956   3.111  -1.127  0.00  0.00    +0.005 C 
ATOM     23  C   UNL     1      -0.758   1.595  -1.227  0.00  0.00    +0.005 C 
ATOM     24  C   UNL     1      -0.013   1.086   0.008  0.00  0.00    +0.037 C 
BRANCH  17  25
ATOM     25  C   UNL     1       0.351  -0.130   2.793  0.00  0.00    +0.244 C 
ATOM     26  O   UNL     1      -0.061  -1.271   2.694  0.00  0.00    -0.270 OA
ATOM     27  N   UNL     1       1.643   0.095   3.104  0.00  0.00    -0.325 N 
ATOM     28  H   UNL     1       1.971   1.004   3.183  0.00  0.00    +0.145 HD
ATOM     29  H   UNL     1       2.245  -0.652   3.248  0.00  0.00    +0.145 HD
ENDBRANCH  17  25
ENDBRANCH   3  16
TORSDOF 3
