REMARK  Name = ZINC40017827
REMARK  7 active torsions:
REMARK  status: ('A' for Active; 'I' for Inactive)
REMARK    1  A    between atoms: C_1  and  C_2
REMARK    2  A    between atoms: N_5  and  C_8
REMARK    3  A    between atoms: C_8  and  C_10
REMARK    4  A    between atoms: C_8  and  C_28
REMARK    5  A    between atoms: C_10  and  N_11
REMARK    6  A    between atoms: C_12  and  C_14
REMARK    7  A    between atoms: C_14  and  N_15
REMARK                            x       y       z     vdW  Elec       q    Type
REMARK                         _______ _______ _______ _____ _____    ______ ____
ROOT
ATOM      1  N   UNL     1      -2.242  -5.869   1.705  0.00  0.00    -0.315 N 
ATOM      2  C   UNL     1      -3.428  -6.505   1.770  0.00  0.00    +0.233 C 
ATOM      3  O   UNL     1      -4.460  -5.869   1.742  0.00  0.00    -0.274 OA
ATOM      4  H   UNL     1      -1.417  -6.378   1.727  0.00  0.00    +0.149 HD
ENDROOT
BRANCH   1   5
ATOM      5  C   UNL     1      -2.199  -4.408   1.601  0.00  0.00    +0.094 C 
BRANCH   5   6
ATOM      6  C   UNL     1      -0.749  -3.951   1.434  0.00  0.00    -0.013 C 
BRANCH   6  11
ATOM      7  C   UNL     1      -0.050   1.431  -0.319  0.00  0.00    +0.007 C 
ATOM      8  C   UNL     1      -0.022  -0.097  -0.232  0.00  0.00    -0.018 C 
ATOM      9  C   UNL     1      -1.455  -0.633  -0.171  0.00  0.00    -0.015 C 
ATOM     10  C   UNL     1      -1.418  -2.153  -0.003  0.00  0.00    -0.078 C 
ATOM     11  N   UNL     1      -0.714  -2.495   1.238  0.00  0.00    +0.386 N 
ATOM     12  C   UNL     1       0.682  -2.047   1.158  0.00  0.00    -0.078 C 
ATOM     13  C   UNL     1       0.726  -0.523   1.035  0.00  0.00    -0.015 C 
ATOM     14  H   UNL     1      -1.167  -2.042   2.017  0.00  0.00    -0.081 HD
ENDBRANCH   6  11
BRANCH   6  15
ATOM     15  C   UNL     1       0.037  -4.311   2.669  0.00  0.00    -0.022 A 
ATOM     16  C   UNL     1       0.877  -5.355   2.872  0.00  0.00    +0.009 A 
ATOM     17  C   UNL     1       1.497  -5.487   4.100  0.00  0.00    +0.008 A 
ATOM     18  C   UNL     1       1.247  -4.569   5.065  0.00  0.00    +0.045 A 
ATOM     19  S   UNL     1       0.109  -3.467   4.241  0.00  0.00    -0.103 S 
ENDBRANCH   6  15
ENDBRANCH   5   6
ENDBRANCH   1   5
BRANCH   2  20
ATOM     20  C   UNL     1      -3.472  -8.008   1.877  0.00  0.00    +0.222 C 
BRANCH  20  21
ATOM     21  N   UNL     1      -4.867  -8.453   1.931  0.00  0.00    -0.285 N 
ATOM     22  C   UNL     1      -5.502  -8.571   3.159  0.00  0.00    +0.059 A 
ATOM     23  C   UNL     1      -4.849  -8.279   4.346  0.00  0.00    +0.027 A 
ATOM     24  C   UNL     1      -5.518  -8.410   5.547  0.00  0.00    +0.002 A 
ATOM     25  C   UNL     1      -6.838  -8.833   5.578  0.00  0.00    +0.001 A 
ATOM     26  C   UNL     1      -7.504  -9.129   4.407  0.00  0.00    +0.015 A 
ATOM     27  C   UNL     1      -6.841  -8.999   3.189  0.00  0.00    +0.063 A 
ATOM     28  C   UNL     1      -7.505  -9.303   1.909  0.00  0.00    +0.262 A 
ATOM     29  O   UNL     1      -8.662  -9.676   1.879  0.00  0.00    -0.267 OA
ATOM     30  N   UNL     1      -6.796  -9.154   0.769  0.00  0.00    -0.274 N 
ATOM     31  H   UNL     1      -7.218  -9.349  -0.083  0.00  0.00    +0.173 HD
ATOM     32  C   UNL     1      -5.520  -8.737   0.792  0.00  0.00    +0.330 A 
ATOM     33  O   UNL     1      -4.929  -8.616  -0.264  0.00  0.00    -0.246 OA
ENDBRANCH  20  21
ENDBRANCH   2  20
TORSDOF 6
