REMARK  Name = ZINC09645965
REMARK  5 active torsions:
REMARK  status: ('A' for Active; 'I' for Inactive)
REMARK    1  A    between atoms: C_4  and  C_7
REMARK    2  A    between atoms: C_16  and  C_18
REMARK    3  A    between atoms: C_18  and  C_19
REMARK    4  A    between atoms: C_19  and  N_20
REMARK    5  A    between atoms: C_21  and  C_23
REMARK                            x       y       z     vdW  Elec       q    Type
REMARK                         _______ _______ _______ _____ _____    ______ ____
ROOT
ATOM      1  C   UNL     1      -0.838   5.787   0.040  0.00  0.00    +0.092 A 
ATOM      2  C   UNL     1      -1.666   4.713   0.042  0.00  0.00    +0.143 A 
ATOM      3  N   UNL     1      -0.877   3.573   0.029  0.00  0.00    -0.211 N 
ATOM      4  C   UNL     1       0.413   4.033   0.019  0.00  0.00    +0.197 A 
ATOM      5  N   UNL     1       0.432   5.334   0.025  0.00  0.00    -0.220 NA
ATOM      6  S   UNL     1       1.357   2.526   0.003  0.00  0.00    -0.013 S 
ATOM      7  C   UNL     1      -0.017   1.385   0.010  0.00  0.00    +0.188 A 
ATOM      8  N   UNL     1      -1.043   2.192   0.018  0.00  0.00    -0.142 NA
ATOM      9  N   UNL     1       0.002  -0.004   0.002  0.00  0.00    -0.263 N 
ATOM     10  C   UNL     1       1.178  -0.662  -0.012  0.00  0.00    +0.220 C 
ATOM     11  O   UNL     1       2.220  -0.041  -0.018  0.00  0.00    -0.275 OA
ATOM     12  H   UNL     1      -0.831  -0.500   0.007  0.00  0.00    +0.157 HD
ENDROOT
BRANCH   1  16
ATOM     13  C   UNL     1      -2.034   9.867   0.073  0.00  0.00    +0.000 A 
ATOM     14  C   UNL     1      -0.689   9.543   0.058  0.00  0.00    +0.001 A 
ATOM     15  C   UNL     1      -0.295   8.221   0.047  0.00  0.00    +0.010 A 
ATOM     16  C   UNL     1      -1.255   7.210   0.051  0.00  0.00    +0.002 A 
ATOM     17  C   UNL     1      -2.609   7.542   0.060  0.00  0.00    +0.010 A 
ATOM     18  C   UNL     1      -2.991   8.868   0.077  0.00  0.00    +0.001 A 
ENDBRANCH   1  16
BRANCH  10  19
ATOM     19  C   UNL     1       1.199  -2.169  -0.021  0.00  0.00    +0.115 C 
BRANCH  19  20
ATOM     20  C   UNL     1       2.648  -2.659  -0.036  0.00  0.00    +0.113 C 
BRANCH  20  21
ATOM     21  N   UNL     1       2.668  -4.124  -0.044  0.00  0.00    -0.311 N 
ATOM     22  C   UNL     1       3.844  -4.782  -0.059  0.00  0.00    +0.244 C 
ATOM     23  O   UNL     1       4.888  -4.160  -0.065  0.00  0.00    -0.270 OA
ATOM     24  H   UNL     1       1.834  -4.620  -0.040  0.00  0.00    +0.149 HD
BRANCH  22  25
ATOM     25  C   UNL     1       3.864  -6.260  -0.067  0.00  0.00    +0.037 A 
ATOM     26  C   UNL     1       2.666  -6.977  -0.054  0.00  0.00    +0.014 A 
ATOM     27  C   UNL     1       2.691  -8.355  -0.068  0.00  0.00    +0.021 A 
ATOM     28  C   UNL     1       3.902  -9.029  -0.083  0.00  0.00    +0.041 A 
ATOM     29  C   UNL     1       5.093  -8.323  -0.089  0.00  0.00    +0.021 A 
ATOM     30  C   UNL     1       5.081  -6.944  -0.082  0.00  0.00    +0.014 A 
ATOM     31 CL   UNL     1       3.925 -10.765  -0.093  0.00  0.00    -0.084 Cl
ENDBRANCH  22  25
ENDBRANCH  20  21
ENDBRANCH  19  20
ENDBRANCH  10  19
TORSDOF 5
