REMARK  Name = ZINC13984833
REMARK  8 active torsions:
REMARK  status: ('A' for Active; 'I' for Inactive)
REMARK    1  A    between atoms: C_1  and  O_2
REMARK    2  A    between atoms: O_2  and  C_3
REMARK    3  A    between atoms: C_13  and  C_15
REMARK    4  A    between atoms: C_15  and  C_17
REMARK    5  A    between atoms: C_15  and  C_23
REMARK    6  A    between atoms: C_17  and  C_18
REMARK    7  A    between atoms: C_26  and  S_29
REMARK    8  A    between atoms: S_29  and  N_32
REMARK                            x       y       z     vdW  Elec       q    Type
REMARK                         _______ _______ _______ _____ _____    ______ ____
ROOT
ATOM      1  C   UNL     1       5.463  -2.066  -4.099  0.00  0.00    +0.105 C 
ENDROOT
BRANCH   1  12
ATOM      2  C   UNL     1       0.718  -3.431 -11.034  0.00  0.00    +0.216 A 
ATOM      3  C   UNL     1       1.935  -3.757 -11.625  0.00  0.00    +0.069 A 
ATOM      4  C   UNL     1       3.099  -3.716 -10.895  0.00  0.00    +0.036 A 
ATOM      5  C   UNL     1       3.045  -3.338  -9.532  0.00  0.00    +0.099 A 
ATOM      6  C   UNL     1       1.761  -3.027  -9.029  0.00  0.00    +0.133 A 
ATOM      7  N   UNL     1       0.674  -3.079  -9.758  0.00  0.00    -0.204 NA
ATOM      8  S   UNL     1       2.113  -2.622  -7.333  0.00  0.00    -0.032 S 
ATOM      9  C   UNL     1       3.881  -2.872  -7.404  0.00  0.00    +0.167 A 
ATOM     10  N   UNL     1       4.063  -3.236  -8.650  0.00  0.00    -0.223 NA
ATOM     11  N   UNL     1       4.820  -2.724  -6.395  0.00  0.00    -0.264 N 
ATOM     12  C   UNL     1       4.432  -2.336  -5.164  0.00  0.00    +0.226 C 
ATOM     13  O   UNL     1       3.252  -2.206  -4.913  0.00  0.00    -0.275 OA
ATOM     14  H   UNL     1       5.757  -2.900  -6.575  0.00  0.00    +0.157 HD
BRANCH   2  16
ATOM     15  C   UNL     1      -1.638  -3.130 -11.094  0.00  0.00    +0.279 C 
ATOM     16  O   UNL     1      -0.425  -3.476 -11.765  0.00  0.00    -0.480 OA
ENDBRANCH   2  16
ENDBRANCH   1  12
BRANCH   1  17
ATOM     17  C   UNL     1       4.785  -1.508  -2.874  0.00  0.00    -0.035 A 
ATOM     18  C   UNL     1       5.131  -0.255  -2.403  0.00  0.00    +0.006 A 
ATOM     19  C   UNL     1       4.510   0.256  -1.279  0.00  0.00    +0.029 A 
ATOM     20  C   UNL     1       3.543  -0.485  -0.626  0.00  0.00    +0.105 A 
ATOM     21  C   UNL     1       3.201  -1.740  -1.094  0.00  0.00    +0.029 A 
ATOM     22  C   UNL     1       3.818  -2.249  -2.221  0.00  0.00    +0.006 A 
BRANCH  20  23
ATOM     23  S   UNL     1       2.752   0.167   0.807  0.00  0.00    +0.061 S 
ATOM     24  O   UNL     1       3.641   1.127   1.361  0.00  0.00    -0.153 OA
ATOM     25  O   UNL     1       2.275  -0.947   1.550  0.00  0.00    -0.153 OA
BRANCH  23  26
ATOM     26  N   UNL     1       1.416   1.000   0.293  0.00  0.00    -0.177 NA
ATOM     27  C   UNL     1       0.119   0.323   0.156  0.00  0.00    +0.109 C 
ATOM     28  C   UNL     1      -0.416   0.563  -1.260  0.00  0.00    +0.017 C 
ATOM     29  C   UNL     1      -0.459   2.068  -1.536  0.00  0.00    +0.003 C 
ATOM     30  C   UNL     1       0.956   2.645  -1.450  0.00  0.00    +0.017 C 
ATOM     31  C   UNL     1       1.506   2.429  -0.036  0.00  0.00    +0.109 C 
ENDBRANCH  23  26
ENDBRANCH  20  23
ENDBRANCH   1  17
BRANCH   1  32
ATOM     32  C   UNL     1       6.178  -3.369  -3.738  0.00  0.00    +0.021 C 
BRANCH  32  33
ATOM     33  C   UNL     1       7.323  -3.071  -2.768  0.00  0.00    -0.010 C 
ATOM     34  C   UNL     1       8.425  -2.265  -3.484  0.00  0.00    +0.003 C 
ATOM     35  C   UNL     1       9.746  -2.820  -2.892  0.00  0.00    +0.000 C 
ATOM     36  C   UNL     1       9.447  -4.333  -2.747  0.00  0.00    +0.000 C 
ATOM     37  C   UNL     1       7.972  -4.386  -2.299  0.00  0.00    +0.003 C 
ENDBRANCH  32  33
ENDBRANCH   1  32
TORSDOF 7
