REMARK  Name = ZINC39710758
REMARK  10 active torsions:
REMARK  status: ('A' for Active; 'I' for Inactive)
REMARK    1  A    between atoms: C_1  and  C_2
REMARK    2  A    between atoms: C_7  and  C_15
REMARK    3  A    between atoms: C_13  and  C_14
REMARK    4  A    between atoms: C_15  and  C_17
REMARK    5  A    between atoms: C_15  and  N_27
REMARK    6  A    between atoms: N_22  and  C_23
REMARK    7  A    between atoms: C_23  and  C_24
REMARK    8  A    between atoms: C_23  and  C_25
REMARK    9  A    between atoms: C_23  and  C_26
REMARK   10  A    between atoms: N_30  and  C_33
REMARK                            x       y       z     vdW  Elec       q    Type
REMARK                         _______ _______ _______ _____ _____    ______ ____
ROOT
ATOM      1  C   UNL     1       1.325  -5.759   1.300  0.00  0.00    -0.009 C 
ENDROOT
BRANCH   1   8
ATOM      2  C   UNL     1      -1.063   1.103  -0.548  0.00  0.00    +0.044 C 
ATOM      3  C   UNL     1      -0.808  -0.379  -0.451  0.00  0.00    -0.046 A 
ATOM      4  C   UNL     1      -0.637  -1.108  -1.628  0.00  0.00    +0.004 A 
ATOM      5  C   UNL     1      -0.404  -2.446  -1.604  0.00  0.00    +0.010 A 
ATOM      6  C   UNL     1      -0.333  -3.127  -0.311  0.00  0.00    -0.007 A 
ATOM      7  C   UNL     1      -0.100  -4.468  -0.238  0.00  0.00    -0.006 C 
ATOM      8  C   UNL     1      -0.042  -5.090   1.144  0.00  0.00    +0.088 C 
ATOM      9  C   UNL     1      -0.246  -4.172   2.328  0.00  0.00    +0.223 C 
ATOM     10  O   UNL     1      -0.209  -4.617   3.459  0.00  0.00    -0.275 OA
ATOM     11  N   UNL     1      -0.465  -2.883   2.129  0.00  0.00    -0.284 N 
ATOM     12  C   UNL     1      -0.517  -2.332   0.916  0.00  0.00    +0.043 A 
ATOM     13  C   UNL     1      -0.748  -0.951   0.780  0.00  0.00    -0.026 A 
ATOM     14  C   UNL     1      -0.937  -0.100   2.010  0.00  0.00    +0.046 C 
ATOM     15  H   UNL     1      -0.593  -2.311   2.902  0.00  0.00    +0.155 HD
ENDBRANCH   1   8
BRANCH   1  16
ATOM     16  N   UNL     1       1.376  -6.473   2.583  0.00  0.00    +0.387 N 
ATOM     17  C   UNL     1       2.638  -7.218   2.675  0.00  0.00    -0.059 C 
ATOM     18  C   UNL     1       2.745  -7.870   4.058  0.00  0.00    +0.086 C 
ATOM     19  N   UNL     1       1.540  -8.684   4.284  0.00  0.00    -0.331 N 
ATOM     20  C   UNL     1       0.228  -8.060   4.054  0.00  0.00    +0.086 C 
ATOM     21  C   UNL     1       0.241  -7.399   2.672  0.00  0.00    -0.059 C 
ATOM     22  H   UNL     1       1.326  -5.807   3.339  0.00  0.00    -0.081 HD
BRANCH  19  23
ATOM     23  C   UNL     1       1.640 -10.014   4.705  0.00  0.00    +0.065 A 
ATOM     24  C   UNL     1       1.655 -10.316   6.060  0.00  0.00    +0.026 A 
ATOM     25  C   UNL     1       1.753 -11.630   6.473  0.00  0.00    +0.002 A 
ATOM     26  C   UNL     1       1.837 -12.646   5.540  0.00  0.00    +0.003 A 
ATOM     27  C   UNL     1       1.823 -12.351   4.189  0.00  0.00    +0.040 A 
ATOM     28  C   UNL     1       1.719 -11.038   3.768  0.00  0.00    +0.144 A 
ATOM     29  F   UNL     1       1.699 -10.750   2.448  0.00  0.00    -0.204 F 
ENDBRANCH  19  23
ENDBRANCH   1  16
BRANCH   1  30
ATOM     30  C   UNL     1       2.422  -4.694   1.265  0.00  0.00    +0.205 C 
ATOM     31  N   UNL     1       2.193  -3.688   2.311  0.00  0.00    -0.152 NA
ATOM     32  N   UNL     1       2.035  -2.587   1.778  0.00  0.00    -0.070 NA
ATOM     33  N   UNL     1       2.120  -2.640   0.387  0.00  0.00    -0.179 N 
ATOM     34  N   UNL     1       2.363  -3.934  -0.002  0.00  0.00    -0.183 NA
ATOM     35  H   UNL     1       2.023  -1.883  -0.211  0.00  0.00    +0.191 HD
BRANCH  34  36
ATOM     36  C   UNL     1       3.632  -4.036  -0.736  0.00  0.00    +0.035 C 
ATOM     37  C   UNL     1       3.919  -5.504  -1.057  0.00  0.00    +0.029 C 
ATOM     38  C   UNL     1       3.533  -3.240  -2.039  0.00  0.00    +0.029 C 
ATOM     39  C   UNL     1       4.764  -3.470   0.123  0.00  0.00    +0.029 C 
ENDBRANCH  34  36
ENDBRANCH   1  30
TORSDOF 5
