REMARK  Name = ZINC55104531
REMARK  4 active torsions:
REMARK  status: ('A' for Active; 'I' for Inactive)
REMARK    1  A    between atoms: C_5  and  C_7
REMARK    2  A    between atoms: C_7  and  N_8
REMARK    3  A    between atoms: C_30  and  N_34
REMARK    4  A    between atoms: C_31  and  C_32
REMARK                            x       y       z     vdW  Elec       q    Type
REMARK                         _______ _______ _______ _____ _____    ______ ____
ROOT
ATOM      1  N   UNL     1       1.488  -2.679   1.333  0.00  0.00    -0.265 N 
ATOM      2  C   UNL     1       2.753  -2.918   1.840  0.00  0.00    +0.041 A 
ATOM      3  C   UNL     1       3.997  -2.760   1.228  0.00  0.00    +0.024 A 
ATOM      4  C   UNL     1       5.118  -3.079   1.978  0.00  0.00    +0.002 A 
ATOM      5  C   UNL     1       5.022  -3.534   3.278  0.00  0.00    +0.000 A 
ATOM      6  C   UNL     1       3.788  -3.695   3.899  0.00  0.00    +0.007 A 
ATOM      7  C   UNL     1       2.669  -3.380   3.158  0.00  0.00    -0.001 A 
ATOM      8  C   UNL     1       1.211  -3.432   3.495  0.00  0.00    +0.148 C 
ATOM      9  C   UNL     1       0.522  -2.948   2.235  0.00  0.00    +0.241 C 
ATOM     10  O   UNL     1      -0.674  -2.828   2.069  0.00  0.00    -0.274 OA
ATOM     11  C   UNL     1       0.891  -2.507   4.635  0.00  0.00    +0.104 A 
ATOM     12  C   UNL     1       0.610  -3.009   5.872  0.00  0.00    +0.152 A 
ATOM     13  C   UNL     1       0.307  -2.060   6.955  0.00  0.00    +0.060 A 
ATOM     14  C   UNL     1       0.021  -2.507   8.246  0.00  0.00    +0.015 A 
ATOM     15  C   UNL     1      -0.258  -1.592   9.237  0.00  0.00    +0.001 A 
ATOM     16  C   UNL     1      -0.256  -0.234   8.956  0.00  0.00    +0.004 A 
ATOM     17  C   UNL     1       0.024   0.221   7.684  0.00  0.00    +0.047 A 
ATOM     18  C   UNL     1       0.308  -0.685   6.671  0.00  0.00    +0.143 A 
ATOM     19  O   UNL     1       0.586  -0.258   5.420  0.00  0.00    -0.422 OA
ATOM     20  C   UNL     1       0.878  -1.117   4.431  0.00  0.00    +0.346 A 
ATOM     21  O   UNL     1       1.140  -0.678   3.324  0.00  0.00    -0.245 OA
ATOM     22  O   UNL     1       0.606  -4.334   6.109  0.00  0.00    -0.440 OA
ATOM     23  C   UNL     1       0.507  -5.204   5.088  0.00  0.00    +0.199 C 
ATOM     24  C   UNL     1       0.783  -4.835   3.813  0.00  0.00    +0.110 C 
ENDROOT
BRANCH  23  25
ATOM     25  N   UNL     1       0.117  -6.496   5.343  0.00  0.00    -0.328 N 
ATOM     26  H   UNL     1      -0.083  -6.771   6.251  0.00  0.00    +0.145 HD
ATOM     27  H   UNL     1       0.042  -7.132   4.615  0.00  0.00    +0.145 HD
ENDBRANCH  23  25
BRANCH  24  28
ATOM     28  C   UNL     1       0.666  -5.796   2.757  0.00  0.00    +0.102 C 
ATOM     29  N   UNL     1       0.572  -6.558   1.920  0.00  0.00    -0.191 NA
ENDBRANCH  24  28
BRANCH   1  30
ATOM     30  C   UNL     1       1.228  -2.186  -0.022  0.00  0.00    +0.151 C 
BRANCH  30  35
ATOM     31  C   UNL     1      -0.017   1.378   0.010  0.00  0.00    +0.000 A 
ATOM     32  C   UNL     1       1.171   2.087   0.002  0.00  0.00    +0.003 A 
ATOM     33  C   UNL     1       2.377   1.414  -0.013  0.00  0.00    +0.038 A 
ATOM     34  C   UNL     1       2.397   0.029  -0.021  0.00  0.00    +0.128 A 
ATOM     35  C   UNL     1       1.208  -0.679  -0.013  0.00  0.00    +0.005 A 
ATOM     36  C   UNL     1       0.002  -0.004   0.002  0.00  0.00    +0.008 A 
ATOM     37  F   UNL     1       3.577  -0.630  -0.036  0.00  0.00    -0.205 F 
ENDBRANCH  30  35
ENDBRANCH   1  30
TORSDOF 4
