REMARK  Name = ZINC67479258
REMARK  12 active torsions:
REMARK  status: ('A' for Active; 'I' for Inactive)
REMARK    1  A    between atoms: C_1  and  C_2
REMARK    2  A    between atoms: C_2  and  C_3
REMARK    3  A    between atoms: C_2  and  C_4
REMARK    4  A    between atoms: C_2  and  O_5
REMARK    5  A    between atoms: O_5  and  C_6
REMARK    6  A    between atoms: N_8  and  C_9
REMARK    7  A    between atoms: C_9  and  C_10
REMARK    8  A    between atoms: C_10  and  N_11
REMARK    9  A    between atoms: N_14  and  C_15
REMARK   10  A    between atoms: C_15  and  C_16
REMARK   11  A    between atoms: C_16  and  C_18
REMARK   12  A    between atoms: C_16  and  O_28
REMARK                            x       y       z     vdW  Elec       q    Type
REMARK                         _______ _______ _______ _____ _____    ______ ____
ROOT
ATOM      1  N   UNL     1       5.973  -0.243  -4.083  0.00  0.00    -0.298 N 
ATOM      2  C   UNL     1       6.661  -0.644  -5.171  0.00  0.00    +0.300 C 
ATOM      3  O   UNL     1       6.125  -1.348  -6.005  0.00  0.00    -0.253 OA
ATOM      4  N   UNL     1       7.944  -0.263  -5.334  0.00  0.00    -0.297 N 
ATOM      5  H   UNL     1       6.400   0.318  -3.418  0.00  0.00    +0.150 HD
ATOM      6  H   UNL     1       8.371   0.299  -4.669  0.00  0.00    +0.150 HD
ENDROOT
BRANCH   1   7
ATOM      7  C   UNL     1       4.579  -0.657  -3.906  0.00  0.00    +0.124 C 
BRANCH   7   8
ATOM      8  C   UNL     1       4.035  -0.071  -2.601  0.00  0.00    +0.126 C 
BRANCH   8  11
ATOM      9  C   UNL     1       1.952  -0.085  -1.337  0.00  0.00    +0.401 C 
ATOM     10  O   UNL     1       2.488   0.619  -0.503  0.00  0.00    -0.226 OA
ATOM     11  N   UNL     1       2.641  -0.485  -2.424  0.00  0.00    -0.280 N 
ATOM     12  H   UNL     1       2.213  -1.047  -3.089  0.00  0.00    +0.152 HD
BRANCH   9  13
ATOM     13  O   UNL     1       0.671  -0.465  -1.174  0.00  0.00    -0.445 OA
BRANCH  13  15
ATOM     14  C   UNL     1      -0.019   1.526   0.010  0.00  0.00    +0.055 C 
ATOM     15  C   UNL     1       0.002  -0.004   0.002  0.00  0.00    +0.107 C 
ATOM     16  C   UNL     1       0.742  -0.511   1.242  0.00  0.00    +0.055 C 
ATOM     17  C   UNL     1      -1.433  -0.534   0.013  0.00  0.00    +0.055 C 
ENDBRANCH  13  15
ENDBRANCH   9  13
ENDBRANCH   8  11
ENDBRANCH   7   8
ENDBRANCH   1   7
BRANCH   4  18
ATOM     18  C   UNL     1       8.692  -0.698  -6.516  0.00  0.00    +0.141 C 
BRANCH  18  19
ATOM     19  C   UNL     1      10.113  -0.132  -6.457  0.00  0.00    +0.162 C 
BRANCH  19  20
ATOM     20  C   UNL     1      10.843  -0.476  -7.729  0.00  0.00    -0.017 A 
ATOM     21  C   UNL     1      11.385  -1.751  -7.887  0.00  0.00    +0.007 A 
ATOM     22  C   UNL     1      12.051  -2.094  -9.023  0.00  0.00    +0.009 A 
ATOM     23  C   UNL     1      12.197  -1.151 -10.055  0.00  0.00    -0.018 A 
ATOM     24  C   UNL     1      12.878  -1.468 -11.242  0.00  0.00    +0.008 A 
ATOM     25  C   UNL     1      12.999  -0.530 -12.220  0.00  0.00    +0.001 A 
ATOM     26  C   UNL     1      12.457   0.745 -12.063  0.00  0.00    +0.001 A 
ATOM     27  C   UNL     1      11.791   1.088 -10.927  0.00  0.00    +0.008 A 
ATOM     28  C   UNL     1      11.646   0.145  -9.895  0.00  0.00    -0.018 A 
ATOM     29  C   UNL     1      10.960   0.461  -8.710  0.00  0.00    +0.014 A 
ENDBRANCH  19  20
BRANCH  19  30
ATOM     30  O   UNL     1      10.805  -0.697  -5.342  0.00  0.00    -0.386 OA
ATOM     31  H   UNL     1      10.883  -1.661  -5.375  0.00  0.00    +0.210 HD
ENDBRANCH  19  30
ENDBRANCH  18  19
ENDBRANCH   4  18
TORSDOF 9
