REMARK  Name = ZINC67373813
REMARK  4 active torsions:
REMARK  status: ('A' for Active; 'I' for Inactive)
REMARK    1  A    between atoms: C_6  and  C_7
REMARK    2  A    between atoms: C_7  and  C_9
REMARK    3  A    between atoms: C_7  and  O_24
REMARK    4  A    between atoms: C_19  and  C_21
REMARK                            x       y       z     vdW  Elec       q    Type
REMARK                         _______ _______ _______ _____ _____    ______ ____
ROOT
ATOM      1  C   UNL     1      -1.704  -1.415  -1.348  0.00  0.00    +0.025 C 
ATOM      2  C   UNL     1      -1.953  -0.098  -2.087  0.00  0.00    +0.025 C 
ATOM      3  C   UNL     1      -2.149  -0.384  -3.580  0.00  0.00    +0.107 C 
ATOM      4  N   UNL     1      -3.223  -1.375  -3.734  0.00  0.00    -0.315 N 
ATOM      5  C   UNL     1      -3.128  -2.641  -2.994  0.00  0.00    +0.107 C 
ATOM      6  C   UNL     1      -2.921  -2.329  -1.508  0.00  0.00    +0.025 C 
ATOM      7  C   UNL     1      -4.309  -1.119  -4.563  0.00  0.00    +0.123 A 
ATOM      8  C   UNL     1      -4.275  -0.023  -5.425  0.00  0.00    +0.045 A 
ATOM      9  C   UNL     1      -5.358   0.226  -6.248  0.00  0.00    +0.026 A 
ATOM     10  C   UNL     1      -6.450  -0.630  -6.187  0.00  0.00    +0.077 A 
ATOM     11  C   UNL     1      -6.420  -1.708  -5.303  0.00  0.00    +0.160 A 
ATOM     12  N   UNL     1      -5.359  -1.920  -4.530  0.00  0.00    -0.220 NA
ATOM     13 CL   UNL     1      -7.835  -0.362  -7.198  0.00  0.00    -0.081 Cl
ENDROOT
BRANCH  11  14
ATOM     14  C   UNL     1      -7.540  -2.598  -5.231  0.00  0.00    +0.121 C 
ATOM     15  N   UNL     1      -8.428  -3.304  -5.174  0.00  0.00    -0.189 NA
ENDBRANCH  11  14
BRANCH   1  16
ATOM     16  C   UNL     1      -1.473  -1.130   0.137  0.00  0.00    +0.148 C 
BRANCH  16  22
ATOM     17  C   UNL     1      -0.452   1.126   0.502  0.00  0.00    +0.007 A 
ATOM     18  C   UNL     1       0.646   1.953   0.647  0.00  0.00    +0.020 A 
ATOM     19  C   UNL     1       1.923   1.423   0.586  0.00  0.00    +0.041 A 
ATOM     20  C   UNL     1       2.099   0.066   0.380  0.00  0.00    +0.020 A 
ATOM     21  C   UNL     1       1.000  -0.759   0.234  0.00  0.00    +0.007 A 
ATOM     22  C   UNL     1      -0.275  -0.229   0.295  0.00  0.00    -0.019 A 
ATOM     23 CL   UNL     1       3.303   2.460   0.768  0.00  0.00    -0.084 Cl
ENDBRANCH  16  22
BRANCH  16  24
ATOM     24  O   UNL     1      -1.239  -2.359   0.828  0.00  0.00    -0.387 OA
ATOM     25  H   UNL     1      -0.470  -2.849   0.508  0.00  0.00    +0.210 HD
ENDBRANCH  16  24
ENDBRANCH   1  16
TORSDOF 4
