REMARK  Name = ZINC09018167
REMARK  10 active torsions:
REMARK  status: ('A' for Active; 'I' for Inactive)
REMARK    1  A    between atoms: C_1  and  C_2
REMARK    2  A    between atoms: C_2  and  N_3
REMARK    3  A    between atoms: N_3  and  C_4
REMARK    4  A    between atoms: N_3  and  S_6
REMARK    5  A    between atoms: C_4  and  C_5
REMARK    6  A    between atoms: S_6  and  C_9
REMARK    7  A    between atoms: C_12  and  C_15
REMARK    8  A    between atoms: C_15  and  C_16
REMARK    9  A    between atoms: N_18  and  C_19
REMARK   10  A    between atoms: C_21  and  C_36
REMARK                            x       y       z     vdW  Elec       q    Type
REMARK                         _______ _______ _______ _____ _____    ______ ____
ROOT
ATOM      1  C   UNL     1       0.002  -0.004   0.002  0.00  0.00    +0.223 C 
ATOM      2  O   UNL     1      -0.506  -0.623   0.913  0.00  0.00    -0.275 OA
ATOM      3  N   UNL     1       0.585  -0.664  -1.018  0.00  0.00    -0.270 N 
ATOM      4  H   UNL     1       0.992  -0.170  -1.747  0.00  0.00    +0.156 HD
ENDROOT
BRANCH   3   5
ATOM      5  C   UNL     1       0.604  -2.057  -1.026  0.00  0.00    +0.132 A 
ATOM      6  C   UNL     1       0.076  -2.875  -0.076  0.00  0.00    +0.068 A 
ATOM      7  C   UNL     1       0.311  -4.197  -0.468  0.00  0.00    +0.062 A 
ATOM      8  N   UNL     1       0.955  -4.186  -1.606  0.00  0.00    -0.167 NA
ATOM      9  N   UNL     1       1.151  -2.853  -1.990  0.00  0.00    -0.185 N 
ATOM     10  C   UNL     1       1.787  -2.421  -3.140  0.00  0.00    +0.234 A 
ATOM     11  N   UNL     1       2.284  -3.336  -4.013  0.00  0.00    -0.291 N 
ATOM     12  H   UNL     1       2.191  -4.284  -3.833  0.00  0.00    +0.172 HD
ATOM     13  C   UNL     1       2.908  -2.915  -5.132  0.00  0.00    +0.256 A 
ATOM     14  O   UNL     1       3.359  -3.721  -5.929  0.00  0.00    -0.267 OA
ATOM     15  C   UNL     1       3.031  -1.528  -5.369  0.00  0.00    +0.038 A 
ATOM     16  C   UNL     1       2.509  -0.660  -4.465  0.00  0.00    +0.053 A 
ATOM     17  N   UNL     1       1.896  -1.134  -3.372  0.00  0.00    -0.217 NA
ATOM     18  C   UNL     1       2.579   0.834  -4.638  0.00  0.00    +0.056 C 
ATOM     19  C   UNL     1       3.653   1.207  -5.659  0.00  0.00    +0.006 C 
ATOM     20  C   UNL     1       3.422   0.378  -6.928  0.00  0.00    +0.005 C 
ATOM     21  C   UNL     1       3.747  -1.082  -6.614  0.00  0.00    +0.042 C 
ATOM     22  C   UNL     1      -0.107  -5.429   0.293  0.00  0.00    +0.067 C 
ENDBRANCH   3   5
BRANCH   1  23
ATOM     23  C   UNL     1      -0.018   1.503   0.010  0.00  0.00    +0.131 C 
BRANCH  23  27
ATOM     24  C   UNL     1      -2.018   2.881   3.525  0.00  0.00    +0.105 A 
ATOM     25  C   UNL     1      -0.652   2.668   3.545  0.00  0.00    +0.029 A 
ATOM     26  C   UNL     1      -0.005   2.223   2.408  0.00  0.00    +0.006 A 
ATOM     27  C   UNL     1      -0.724   1.989   1.250  0.00  0.00    -0.039 A 
ATOM     28  C   UNL     1      -2.089   2.206   1.228  0.00  0.00    +0.006 A 
ATOM     29  C   UNL     1      -2.736   2.648   2.367  0.00  0.00    +0.029 A 
BRANCH  24  30
ATOM     30  S   UNL     1      -2.843   3.448   4.975  0.00  0.00    +0.061 S 
ATOM     31  O   UNL     1      -4.200   3.046   4.853  0.00  0.00    -0.153 OA
ATOM     32  O   UNL     1      -2.032   3.067   6.078  0.00  0.00    -0.153 OA
BRANCH  30  33
ATOM     33  N   UNL     1      -2.832   5.103   4.928  0.00  0.00    -0.177 NA
BRANCH  33  35
ATOM     34  C   UNL     1      -4.967   6.225   5.337  0.00  0.00    +0.022 C 
ATOM     35  C   UNL     1      -3.932   5.825   4.284  0.00  0.00    +0.106 C 
ENDBRANCH  33  35
BRANCH  33  36
ATOM     36  C   UNL     1      -1.723   5.846   5.532  0.00  0.00    +0.106 C 
ATOM     37  C   UNL     1      -0.684   6.173   4.458  0.00  0.00    +0.022 C 
ENDBRANCH  33  36
ENDBRANCH  30  33
ENDBRANCH  24  30
ENDBRANCH  23  27
ENDBRANCH   1  23
TORSDOF 7
