REMARK  Name = ZINC56912703
REMARK  6 active torsions:
REMARK  status: ('A' for Active; 'I' for Inactive)
REMARK    1  A    between atoms: C_1  and  C_2
REMARK    2  A    between atoms: C_2  and  C_3
REMARK    3  A    between atoms: N_10  and  C_17
REMARK    4  A    between atoms: C_11  and  N_12
REMARK    5  A    between atoms: C_20  and  C_24
REMARK    6  A    between atoms: C_22  and  C_23
REMARK                            x       y       z     vdW  Elec       q    Type
REMARK                         _______ _______ _______ _____ _____    ______ ____
ROOT
ATOM      1  C   UNL     1      -0.071  -0.608   1.605  0.00  0.00    +0.216 C 
ATOM      2  O   UNL     1       0.246   0.171   2.479  0.00  0.00    -0.276 OA
ATOM      3  N   UNL     1       0.313  -1.898   1.680  0.00  0.00    -0.291 N 
ATOM      4  C   UNL     1       1.106  -2.509   2.751  0.00  0.00    +0.149 C 
ATOM      5  C   UNL     1       1.289  -3.966   2.412  0.00  0.00    +0.037 A 
ATOM      6  C   UNL     1       0.644  -4.229   1.202  0.00  0.00    +0.087 A 
ATOM      7  N   UNL     1       0.806  -5.498   0.914  0.00  0.00    -0.168 NA
ATOM      8  N   UNL     1       1.564  -6.090   1.932  0.00  0.00    -0.215 N 
ATOM      9  C   UNL     1       1.852  -5.127   2.849  0.00  0.00    +0.146 A 
ATOM     10  C   UNL     1       0.010  -2.953   0.708  0.00  0.00    +0.165 C 
ENDROOT
BRANCH   8  11
ATOM     11  C   UNL     1       1.954  -7.434   1.996  0.00  0.00    +0.071 A 
ATOM     12  C   UNL     1       3.272  -7.763   2.284  0.00  0.00    +0.028 A 
ATOM     13  C   UNL     1       3.654  -9.089   2.346  0.00  0.00    +0.005 A 
ATOM     14  C   UNL     1       2.725 -10.088   2.123  0.00  0.00    -0.050 A 
ATOM     15  C   UNL     1       1.412  -9.764   1.836  0.00  0.00    +0.008 A 
ATOM     16  C   UNL     1       1.023  -8.440   1.778  0.00  0.00    -0.025 A 
ATOM     17  C   UNL     1      -0.410  -8.088   1.471  0.00  0.00    +0.046 C 
ATOM     18  C   UNL     1       3.145 -11.534   2.191  0.00  0.00    +0.044 C 
ENDBRANCH   8  11
BRANCH   9  19
ATOM     19  N   UNL     1       2.591  -5.297   4.023  0.00  0.00    -0.308 N 
ATOM     20  C   UNL     1       3.669  -4.549   4.401  0.00  0.00    +0.092 A 
ATOM     21  C   UNL     1       4.109  -5.014   5.588  0.00  0.00    +0.019 A 
ATOM     22  C   UNL     1       3.273  -6.087   5.958  0.00  0.00    +0.019 A 
ATOM     23  C   UNL     1       2.350  -6.236   4.986  0.00  0.00    +0.092 A 
ENDBRANCH   9  19
BRANCH   1  25
ATOM     24  C   UNL     1      -1.192   1.359   0.594  0.00  0.00    +0.013 C 
ATOM     25  C   UNL     1      -0.894  -0.133   0.435  0.00  0.00    +0.092 C 
ENDBRANCH   1  25
TORSDOF 3
