REMARK  Name = ZINC33822043
REMARK  8 active torsions:
REMARK  status: ('A' for Active; 'I' for Inactive)
REMARK    1  A    between atoms: C_1  and  C_2
REMARK    2  A    between atoms: C_2  and  C_3
REMARK    3  A    between atoms: C_2  and  C_4
REMARK    4  A    between atoms: C_2  and  C_5
REMARK    5  A    between atoms: C_5  and  C_7
REMARK    6  A    between atoms: C_9  and  C_29
REMARK    7  A    between atoms: C_11  and  C_24
REMARK    8  A    between atoms: C_11  and  C_26
REMARK                            x       y       z     vdW  Elec       q    Type
REMARK                         _______ _______ _______ _____ _____    ______ ____
ROOT
ATOM      1  C   UNL     1      -3.027   1.464  -0.922  0.00  0.00    +0.150 C 
ATOM      2  C   UNL     1      -2.534   0.900   0.434  0.00  0.00    +0.078 C 
ATOM      3  C   UNL     1      -3.730   1.091   1.409  0.00  0.00    +0.163 C 
ATOM      4  C   UNL     1      -4.920   1.189   0.438  0.00  0.00    +0.127 C 
ATOM      5  N   UNL     1      -4.357   2.009  -0.667  0.00  0.00    -0.310 N 
ATOM      6  C   UNL     1      -5.263   2.100  -1.694  0.00  0.00    +0.038 A 
ATOM      7  C   UNL     1      -4.926   1.971  -3.027  0.00  0.00    +0.025 A 
ATOM      8  C   UNL     1      -5.906   2.071  -3.999  0.00  0.00    +0.017 A 
ATOM      9  C   UNL     1      -7.226   2.299  -3.646  0.00  0.00    +0.019 A 
ATOM     10  C   UNL     1      -7.581   2.432  -2.317  0.00  0.00    +0.025 A 
ATOM     11  C   UNL     1      -6.608   2.337  -1.332  0.00  0.00    -0.003 A 
ATOM     12  C   UNL     1      -6.938   2.482   0.105  0.00  0.00    +0.007 C 
ATOM     13  C   UNL     1      -6.107   1.915   0.998  0.00  0.00    -0.002 C 
ATOM     14 BR   UNL     1      -8.550   2.428  -4.990  0.00  0.00    -0.050 Br
ENDROOT
BRANCH   2  15
ATOM     15  C   UNL     1      -1.335   1.674   0.918  0.00  0.00    -0.040 A 
ATOM     16  C   UNL     1      -1.418   3.043   1.086  0.00  0.00    +0.007 A 
ATOM     17  C   UNL     1      -0.321   3.753   1.534  0.00  0.00    +0.038 A 
ATOM     18  C   UNL     1       0.864   3.093   1.811  0.00  0.00    +0.123 A 
ATOM     19  C   UNL     1       0.948   1.721   1.638  0.00  0.00    +0.038 A 
ATOM     20  C   UNL     1      -0.151   1.014   1.189  0.00  0.00    +0.007 A 
ATOM     21  F   UNL     1       1.938   3.785   2.251  0.00  0.00    -0.205 F 
ENDBRANCH   2  15
BRANCH   3  22
ATOM     22  C   UNL     1      -3.578   2.361   2.205  0.00  0.00    +0.233 C 
ATOM     23  O   UNL     1      -4.248   3.334   1.928  0.00  0.00    -0.274 OA
ATOM     24  N   UNL     1      -2.698   2.418   3.224  0.00  0.00    -0.328 N 
ATOM     25  H   UNL     1      -2.587   3.345   3.804  0.00  0.00    +0.145 HD
ATOM     26  H   UNL     1      -2.090   1.536   3.475  0.00  0.00    +0.145 HD
ENDBRANCH   3  22
BRANCH   1  27
ATOM     27  C   UNL     1      -2.101   2.551  -1.401  0.00  0.00    +0.159 C 
ATOM     28  O   UNL     1      -2.296   3.698  -1.074  0.00  0.00    -0.295 OA
BRANCH  27  30
ATOM     29  C   UNL     1      -0.077   3.459  -2.511  0.00  0.00    +0.018 C 
ATOM     30  C   UNL     1      -0.931   2.209  -2.287  0.00  0.00    +0.022 C 
ATOM     31  C   UNL     1      -0.083   1.126  -1.617  0.00  0.00    +0.018 C 
ATOM     32  C   UNL     1      -1.445   1.694  -3.633  0.00  0.00    +0.018 C 
ENDBRANCH  27  30
ENDBRANCH   1  27
BRANCH   3  33
ATOM     33  C   UNL     1      -3.871  -0.072   2.301  0.00  0.00    +0.082 C 
ATOM     34  N   UNL     1      -3.981  -0.969   2.989  0.00  0.00    -0.195 NA
ENDBRANCH   3  33
TORSDOF 5
