REMARK  Name = ZINC09744515
REMARK  7 active torsions:
REMARK  status: ('A' for Active; 'I' for Inactive)
REMARK    1  A    between atoms: C_1  and  C_2
REMARK    2  A    between atoms: C_8  and  C_14
REMARK    3  A    between atoms: C_11  and  C_13
REMARK    4  A    between atoms: N_16  and  C_17
REMARK    5  A    between atoms: C_21  and  S_23
REMARK    6  A    between atoms: S_23  and  N_26
REMARK    7  A    between atoms: N_26  and  C_27
REMARK                            x       y       z     vdW  Elec       q    Type
REMARK                         _______ _______ _______ _____ _____    ______ ____
ROOT
ATOM      1  C   UNL     1      -0.152  -3.950   0.278  0.00  0.00    +0.036 A 
ATOM      2  C   UNL     1       1.087  -4.539   0.490  0.00  0.00    +0.023 A 
ATOM      3  C   UNL     1       1.187  -5.911   0.612  0.00  0.00    +0.004 A 
ATOM      4  C   UNL     1       0.054  -6.698   0.523  0.00  0.00    +0.029 A 
ATOM      5  C   UNL     1      -1.182  -6.115   0.312  0.00  0.00    +0.110 A 
ATOM      6  C   UNL     1      -1.289  -4.743   0.194  0.00  0.00    +0.052 A 
ENDROOT
BRANCH   1   9
ATOM      7  C   UNL     1      -1.189  -2.025  -0.658  0.00  0.00    +0.252 C 
ATOM      8  O   UNL     1      -1.875  -2.746  -1.355  0.00  0.00    -0.270 OA
ATOM      9  N   UNL     1      -0.257  -2.561   0.155  0.00  0.00    -0.281 N 
ATOM     10  H   UNL     1       0.342  -1.983   0.654  0.00  0.00    +0.155 HD
BRANCH   7  17
ATOM     11  C   UNL     1      -4.911   2.018  -1.858  0.00  0.00    +0.016 C 
ATOM     12  C   UNL     1      -3.597   1.689  -2.570  0.00  0.00    +0.060 C 
ATOM     13  C   UNL     1      -2.501   1.379  -1.569  0.00  0.00    +0.001 A 
ATOM     14  C   UNL     1      -1.721   2.188  -0.773  0.00  0.00    +0.007 A 
ATOM     15  C   UNL     1      -0.764   1.634   0.063  0.00  0.00    +0.001 A 
ATOM     16  C   UNL     1      -0.590   0.267   0.099  0.00  0.00    +0.017 A 
ATOM     17  C   UNL     1      -1.376  -0.562  -0.701  0.00  0.00    +0.079 A 
ATOM     18  C   UNL     1      -2.349  -0.001  -1.548  0.00  0.00    +0.137 A 
ATOM     19  O   UNL     1      -3.223  -0.607  -2.394  0.00  0.00    -0.487 OA
ATOM     20  C   UNL     1      -3.707   0.355  -3.346  0.00  0.00    +0.178 C 
ATOM     21  C   UNL     1      -2.820   0.379  -4.592  0.00  0.00    +0.052 C 
ENDBRANCH   7  17
ENDBRANCH   1   9
BRANCH   5  22
ATOM     22  S   UNL     1      -2.623  -7.123   0.198  0.00  0.00    +0.072 S 
ATOM     23  O   UNL     1      -3.580  -6.382  -0.545  0.00  0.00    -0.150 OA
ATOM     24  O   UNL     1      -2.184  -8.415  -0.199  0.00  0.00    -0.150 OA
BRANCH  22  25
ATOM     25  N   UNL     1      -3.232  -7.280   1.730  0.00  0.00    -0.213 N 
ATOM     26  H   UNL     1      -3.308  -8.159   2.135  0.00  0.00    +0.174 HD
BRANCH  25  27
ATOM     27  C   UNL     1      -3.639  -6.146   2.441  0.00  0.00    +0.083 A 
ATOM     28  C   UNL     1      -4.233  -5.083   1.774  0.00  0.00    +0.027 A 
ATOM     29  C   UNL     1      -4.637  -3.966   2.479  0.00  0.00    +0.002 A 
ATOM     30  C   UNL     1      -4.442  -3.901   3.846  0.00  0.00    +0.003 A 
ATOM     31  C   UNL     1      -3.846  -4.955   4.514  0.00  0.00    +0.040 A 
ATOM     32  C   UNL     1      -3.443  -6.078   3.816  0.00  0.00    +0.146 A 
ATOM     33  F   UNL     1      -2.860  -7.108   4.468  0.00  0.00    -0.204 F 
ENDBRANCH  25  27
ENDBRANCH  22  25
ENDBRANCH   5  22
TORSDOF 5
