REMARK  Name = ZINC13556670
REMARK  9 active torsions:
REMARK  status: ('A' for Active; 'I' for Inactive)
REMARK    1  A    between atoms: C_1  and  C_2
REMARK    2  A    between atoms: N_4  and  C_22
REMARK    3  A    between atoms: C_8  and  N_9
REMARK    4  A    between atoms: N_9  and  C_10
REMARK    5  A    between atoms: C_10  and  C_11
REMARK    6  A    between atoms: C_11  and  C_12
REMARK    7  A    between atoms: C_15  and  S_18
REMARK    8  A    between atoms: S_18  and  N_21
REMARK    9  A    between atoms: C_25  and  N_28
REMARK                            x       y       z     vdW  Elec       q    Type
REMARK                         _______ _______ _______ _____ _____    ______ ____
ROOT
ATOM      1  C   UNL     1      -0.018   1.503   0.010  0.00  0.00    +0.068 C 
ATOM      2  C   UNL     1       0.002  -0.004   0.002  0.00  0.00    +0.070 C 
ATOM      3  N   UNL     1       0.008  -0.765  -1.049  0.00  0.00    -0.176 NA
ATOM      4  N   UNL     1       0.028  -2.115  -0.698  0.00  0.00    -0.156 N 
ATOM      5  C   UNL     1       0.035  -2.244   0.644  0.00  0.00    +0.273 C 
ATOM      6  O   UNL     1       0.052  -3.285   1.280  0.00  0.00    -0.268 OA
ATOM      7  C   UNL     1       0.025  -0.879   1.184  0.00  0.00    +0.075 C 
ATOM      8  C   UNL     1       0.033  -0.499   2.515  0.00  0.00    +0.082 C 
ENDROOT
BRANCH   4   9
ATOM      9  C   UNL     1       0.038  -3.180  -1.607  0.00  0.00    +0.060 A 
ATOM     10  C   UNL     1       0.051  -4.489  -1.145  0.00  0.00    +0.028 A 
ATOM     11  C   UNL     1       0.061  -5.538  -2.044  0.00  0.00    +0.034 A 
ATOM     12  C   UNL     1       0.057  -5.285  -3.404  0.00  0.00    +0.126 A 
ATOM     13  C   UNL     1       0.044  -3.982  -3.867  0.00  0.00    +0.034 A 
ATOM     14  C   UNL     1       0.029  -2.929  -2.973  0.00  0.00    +0.028 A 
BRANCH  12  15
ATOM     15  N   UNL     1       0.068  -6.411  -4.364  0.00  0.00    +0.056 N 
ATOM     16  O   UNL     1       0.080  -7.550  -3.960  0.00  0.00    -0.126 OA
ATOM     17  O   UNL     1       0.065  -6.191  -5.553  0.00  0.00    -0.126 OA
ENDBRANCH  12  15
ENDBRANCH   4   9
BRANCH   8  18
ATOM     18  N   UNL     1       0.055  -1.436   3.484  0.00  0.00    -0.349 N 
ATOM     19  H   UNL     1       0.065  -2.377   3.248  0.00  0.00    +0.146 HD
BRANCH  18  20
ATOM     20  C   UNL     1       0.063  -1.034   4.893  0.00  0.00    +0.105 C 
BRANCH  20  21
ATOM     21  C   UNL     1       0.088  -2.280   5.779  0.00  0.00    +0.054 C 
BRANCH  21  22
ATOM     22  C   UNL     1       0.097  -1.866   7.228  0.00  0.00    -0.046 A 
ATOM     23  C   UNL     1       1.298  -1.655   7.879  0.00  0.00    +0.005 A 
ATOM     24  C   UNL     1       1.306  -1.275   9.209  0.00  0.00    +0.029 A 
ATOM     25  C   UNL     1       0.113  -1.106   9.886  0.00  0.00    +0.105 A 
ATOM     26  C   UNL     1      -1.088  -1.317   9.235  0.00  0.00    +0.029 A 
ATOM     27  C   UNL     1      -1.096  -1.692   7.904  0.00  0.00    +0.005 A 
BRANCH  25  28
ATOM     28  S   UNL     1       0.123  -0.623  11.581  0.00  0.00    +0.056 S 
ATOM     29  O   UNL     1      -1.109  -1.063  12.136  0.00  0.00    -0.153 OA
ATOM     30  O   UNL     1       1.381  -1.020  12.109  0.00  0.00    -0.153 OA
BRANCH  28  31
ATOM     31  N   UNL     1       0.095   1.032  11.618  0.00  0.00    -0.204 NA
ATOM     32  H   UNL     1      -0.325   1.494  12.361  0.00  0.00    +0.144 HD
ATOM     33  H   UNL     1       0.499   1.540  10.897  0.00  0.00    +0.144 HD
ENDBRANCH  28  31
ENDBRANCH  25  28
ENDBRANCH  21  22
ENDBRANCH  20  21
ENDBRANCH  18  20
ENDBRANCH   8  18
TORSDOF 8
