REMARK  Name = ZINC09429910
REMARK  6 active torsions:
REMARK  status: ('A' for Active; 'I' for Inactive)
REMARK    1  A    between atoms: C_1  and  C_2
REMARK    2  A    between atoms: C_2  and  C_4
REMARK    3  A    between atoms: C_2  and  N_12
REMARK    4  A    between atoms: C_4  and  C_5
REMARK    5  A    between atoms: C_5  and  C_6
REMARK    6  A    between atoms: N_27  and  C_29
REMARK                            x       y       z     vdW  Elec       q    Type
REMARK                         _______ _______ _______ _____ _____    ______ ____
ROOT
ATOM      1  N   UNL     1      -0.471   3.800   4.538  0.00  0.00    -0.222 N 
ATOM      2  C   UNL     1      -0.966   3.009   3.576  0.00  0.00    +0.240 C 
ATOM      3  O   UNL     1      -1.515   3.516   2.621  0.00  0.00    -0.274 OA
ATOM      4  C   UNL     1      -0.858   1.513   3.646  0.00  0.00    +0.143 C 
ATOM      5  C   UNL     1      -2.257   0.893   3.614  0.00  0.00    +0.064 C 
ATOM      6  C   UNL     1      -2.842   1.022   2.230  0.00  0.00    -0.017 A 
ATOM      7  C   UNL     1      -4.228   0.820   2.073  0.00  0.00    -0.013 A 
ATOM      8  C   UNL     1      -5.043   0.526   3.181  0.00  0.00    +0.009 A 
ATOM      9  C   UNL     1      -6.378   0.333   3.000  0.00  0.00    +0.001 A 
ATOM     10  C   UNL     1      -6.951   0.421   1.733  0.00  0.00    +0.001 A 
ATOM     11  C   UNL     1      -6.193   0.705   0.639  0.00  0.00    +0.008 A 
ATOM     12  C   UNL     1      -4.811   0.912   0.786  0.00  0.00    -0.018 A 
ATOM     13  C   UNL     1      -3.995   1.211  -0.319  0.00  0.00    +0.010 A 
ATOM     14  C   UNL     1      -2.666   1.411  -0.140  0.00  0.00    +0.024 A 
ATOM     15  C   UNL     1      -2.073   1.326   1.135  0.00  0.00    +0.033 A 
ATOM     16  N   UNL     1      -0.700   1.560   1.217  0.00  0.00    -0.331 N 
ATOM     17  C   UNL     1      -0.090   0.997   2.422  0.00  0.00    +0.130 C 
ATOM     18  C   UNL     1      -0.013   1.086   0.008  0.00  0.00    +0.129 C 
ATOM     19  C   UNL     1      -0.146   1.089   4.899  0.00  0.00    +0.237 C 
ATOM     20  O   UNL     1       0.025  -0.093   5.107  0.00  0.00    -0.274 OA
ATOM     21  N   UNL     1       0.305   1.980   5.793  0.00  0.00    -0.239 N 
ATOM     22  C   UNL     1       0.146   3.301   5.619  0.00  0.00    +0.315 C 
ATOM     23  O   UNL     1       0.574   4.064   6.462  0.00  0.00    -0.252 OA
ATOM     24  H   UNL     1       0.758   1.660   6.588  0.00  0.00    +0.159 HD
ENDROOT
BRANCH   1  26
ATOM     25  C   UNL     1      -1.409   5.799   5.591  0.00  0.00    +0.028 C 
ATOM     26  C   UNL     1      -0.610   5.253   4.406  0.00  0.00    +0.083 C 
BRANCH  26  27
ATOM     27  C   UNL     1       0.777   5.898   4.387  0.00  0.00    +0.027 C 
BRANCH  27  28
ATOM     28  C   UNL     1       1.532   5.447   3.134  0.00  0.00    +0.037 C 
BRANCH  28  29
ATOM     29  C   UNL     1       2.898   6.083   3.115  0.00  0.00    -0.047 A 
ATOM     30  C   UNL     1       3.083   7.306   2.498  0.00  0.00    +0.003 A 
ATOM     31  C   UNL     1       4.335   7.891   2.485  0.00  0.00    +0.000 A 
ATOM     32  C   UNL     1       5.405   7.248   3.079  0.00  0.00    +0.000 A 
ATOM     33  C   UNL     1       5.221   6.022   3.691  0.00  0.00    +0.000 A 
ATOM     34  C   UNL     1       3.968   5.439   3.709  0.00  0.00    +0.003 A 
ENDBRANCH  28  29
ENDBRANCH  27  28
ENDBRANCH  26  27
ENDBRANCH   1  26
TORSDOF 4
