REMARK  Name = ZINC29531991
REMARK  8 active torsions:
REMARK  status: ('A' for Active; 'I' for Inactive)
REMARK    1  A    between atoms: C_1  and  C_2
REMARK    2  A    between atoms: C_2  and  C_3
REMARK    3  A    between atoms: C_3  and  C_5
REMARK    4  A    between atoms: C_3  and  N_6
REMARK    5  A    between atoms: C_7  and  C_9
REMARK    6  A    between atoms: C_9  and  N_10
REMARK    7  A    between atoms: C_18  and  C_31
REMARK    8  A    between atoms: C_23  and  C_25
REMARK                            x       y       z     vdW  Elec       q    Type
REMARK                         _______ _______ _______ _____ _____    ______ ____
ROOT
ATOM      1  N   UNL     1      -1.446   1.678  -0.750  0.00  0.00    +0.387 N 
ATOM      2  C   UNL     1      -2.684   0.927  -1.001  0.00  0.00    -0.059 C 
ATOM      3  C   UNL     1      -3.387   1.504  -2.232  0.00  0.00    +0.088 C 
ATOM      4  N   UNL     1      -2.484   1.427  -3.389  0.00  0.00    -0.318 N 
ATOM      5  C   UNL     1      -1.246   2.178  -3.138  0.00  0.00    +0.088 C 
ATOM      6  C   UNL     1      -0.543   1.601  -1.907  0.00  0.00    -0.059 C 
ATOM      7  C   UNL     1      -3.112   1.875  -4.538  0.00  0.00    +0.134 A 
ATOM      8  C   UNL     1      -3.755   0.954  -5.411  0.00  0.00    +0.055 A 
ATOM      9  C   UNL     1      -3.892  -0.494  -5.295  0.00  0.00    +0.002 A 
ATOM     10  C   UNL     1      -4.564  -1.164  -6.261  0.00  0.00    +0.056 A 
ATOM     11  S   UNL     1      -5.064   0.123  -7.389  0.00  0.00    -0.076 S 
ATOM     12  C   UNL     1      -4.367   1.520  -6.549  0.00  0.00    +0.114 A 
ATOM     13  N   UNL     1      -4.327   2.817  -6.779  0.00  0.00    -0.220 NA
ATOM     14  C   UNL     1      -3.707   3.629  -5.933  0.00  0.00    +0.164 A 
ATOM     15  N   UNL     1      -3.115   3.162  -4.838  0.00  0.00    -0.212 NA
ATOM     16  H   UNL     1      -1.714   2.734  -0.598  0.00  0.00    -0.081 HD
ENDROOT
BRANCH  14  17
ATOM     17  C   UNL     1      -3.675   5.085  -6.213  0.00  0.00    +0.037 A 
ATOM     18  C   UNL     1      -4.285   5.601  -7.360  0.00  0.00    +0.014 A 
ATOM     19  C   UNL     1      -4.232   6.968  -7.572  0.00  0.00    +0.020 A 
ATOM     20  C   UNL     1      -3.574   7.770  -6.658  0.00  0.00    +0.111 A 
ATOM     21  N   UNL     1      -3.002   7.253  -5.587  0.00  0.00    -0.263 NA
ATOM     22  C   UNL     1      -3.031   5.960  -5.340  0.00  0.00    +0.122 A 
ENDBRANCH  14  17
BRANCH   9  23
ATOM     23  C   UNL     1      -3.302  -1.218  -4.145  0.00  0.00    -0.017 A 
ATOM     24  C   UNL     1      -1.938  -1.113  -3.877  0.00  0.00    +0.008 A 
ATOM     25  C   UNL     1      -1.395  -1.785  -2.801  0.00  0.00    +0.001 A 
ATOM     26  C   UNL     1      -2.199  -2.572  -1.997  0.00  0.00    +0.000 A 
ATOM     27  C   UNL     1      -3.552  -2.686  -2.262  0.00  0.00    +0.001 A 
ATOM     28  C   UNL     1      -4.107  -2.014  -3.331  0.00  0.00    +0.008 A 
ENDBRANCH   9  23
BRANCH   1  29
ATOM     29  C   UNL     1      -0.780   1.202   0.470  0.00  0.00    +0.019 C 
BRANCH  29  31
ATOM     30  N   UNL     1      -1.225   1.176   2.903  0.00  0.00    -0.314 N 
ATOM     31  C   UNL     1      -1.638   1.521   1.667  0.00  0.00    +0.197 C 
ATOM     32  O   UNL     1      -2.699   2.089   1.519  0.00  0.00    -0.278 OA
ATOM     33  H   UNL     1      -0.262   0.661   3.037  0.00  0.00    +0.149 HD
BRANCH  30  34
ATOM     34  C   UNL     1      -2.059   1.486   4.067  0.00  0.00    +0.070 C 
ATOM     35  C   UNL     1      -3.095   0.377   4.262  0.00  0.00    +0.028 C 
BRANCH  34  37
ATOM     36  C   UNL     1      -0.224   2.774   5.170  0.00  0.00    +0.005 C 
ATOM     37  C   UNL     1      -1.177   1.585   5.314  0.00  0.00    +0.018 C 
ENDBRANCH  34  37
ENDBRANCH  30  34
ENDBRANCH  29  31
ENDBRANCH   1  29
TORSDOF 6
