REMARK  Name = ZINC02422341
REMARK  9 active torsions:
REMARK  status: ('A' for Active; 'I' for Inactive)
REMARK    1  A    between atoms: C_1  and  N_2
REMARK    2  A    between atoms: N_2  and  C_3
REMARK    3  A    between atoms: N_2  and  C_4
REMARK    4  A    between atoms: C_7  and  N_10
REMARK    5  A    between atoms: C_11  and  C_13
REMARK    6  A    between atoms: C_13  and  S_14
REMARK    7  A    between atoms: S_14  and  C_15
REMARK    8  A    between atoms: C_18  and  C_21
REMARK    9  A    between atoms: N_19  and  N_20
REMARK                            x       y       z     vdW  Elec       q    Type
REMARK                         _______ _______ _______ _____ _____    ______ ____
ROOT
ATOM      1  S   UNL     1      -0.622   1.970  -1.419  0.00  0.00    -0.075 S 
ENDROOT
BRANCH   1   2
ATOM      2  C   UNL     1       0.363   1.253  -2.692  0.00  0.00    +0.209 A 
ATOM      3  N   UNL     1       1.302   0.347  -2.533  0.00  0.00    -0.121 NA
ATOM      4  N   UNL     1       1.818   0.043  -3.670  0.00  0.00    -0.127 NA
ATOM      5  C   UNL     1       1.248   0.743  -4.623  0.00  0.00    +0.184 A 
ATOM      6  N   UNL     1       0.298   1.540  -4.026  0.00  0.00    -0.224 N 
BRANCH   5   7
ATOM      7  C   UNL     1       1.565   0.687  -6.066  0.00  0.00    +0.056 A 
ATOM      8  C   UNL     1       1.747   1.865  -6.790  0.00  0.00    +0.014 A 
ATOM      9  C   UNL     1       2.044   1.806  -8.136  0.00  0.00    +0.001 A 
ATOM     10  C   UNL     1       2.162   0.581  -8.769  0.00  0.00    +0.003 A 
ATOM     11  C   UNL     1       1.983  -0.592  -8.059  0.00  0.00    +0.039 A 
ATOM     12  C   UNL     1       1.691  -0.548  -6.709  0.00  0.00    +0.134 A 
ATOM     13  F   UNL     1       1.523  -1.694  -6.014  0.00  0.00    -0.205 F 
ENDBRANCH   5   7
BRANCH   6  14
ATOM     14  N   UNL     1      -0.535   2.432  -4.638  0.00  0.00    -0.295 N 
ATOM     15  H   UNL     1      -0.133   3.357  -4.644  0.00  0.00    +0.163 HD
ATOM     16  H   UNL     1      -0.762   2.131  -5.574  0.00  0.00    +0.163 HD
ENDBRANCH   6  14
ENDBRANCH   1   2
BRANCH   1  17
ATOM     17  C   UNL     1       0.042   1.099   0.022  0.00  0.00    +0.173 C 
BRANCH  17  19
ATOM     18  N   UNL     1      -0.342   1.050   2.465  0.00  0.00    -0.285 N 
ATOM     19  C   UNL     1      -0.672   1.565   1.264  0.00  0.00    +0.227 C 
ATOM     20  O   UNL     1      -1.544   2.404   1.183  0.00  0.00    -0.275 OA
ATOM     21  H   UNL     1       0.405   0.435   2.540  0.00  0.00    +0.155 HD
BRANCH  18  25
ATOM     22  C   UNL     1      -2.530   2.098   5.857  0.00  0.00    +0.029 A 
ATOM     23  C   UNL     1      -3.163   2.003   4.625  0.00  0.00    +0.025 A 
ATOM     24  C   UNL     1      -2.438   1.656   3.502  0.00  0.00    +0.025 A 
ATOM     25  C   UNL     1      -1.077   1.402   3.605  0.00  0.00    +0.034 A 
ATOM     26  C   UNL     1      -0.445   1.491   4.838  0.00  0.00    +0.025 A 
ATOM     27  C   UNL     1      -1.168   1.844   5.960  0.00  0.00    +0.025 A 
BRANCH  22  29
ATOM     28  C   UNL     1      -4.700   2.719   6.886  0.00  0.00    +0.129 C 
ATOM     29  N   UNL     1      -3.264   2.450   6.995  0.00  0.00    -0.336 N 
ATOM     30  C   UNL     1      -2.596   2.550   8.295  0.00  0.00    +0.129 C 
ENDBRANCH  22  29
ENDBRANCH  18  25
ENDBRANCH  17  19
ENDBRANCH   1  17
TORSDOF 7
