REMARK  Name = ZINC08707316
REMARK  7 active torsions:
REMARK  status: ('A' for Active; 'I' for Inactive)
REMARK    1  A    between atoms: C_1  and  C_2
REMARK    2  A    between atoms: C_3  and  C_7
REMARK    3  A    between atoms: C_10  and  S_13
REMARK    4  A    between atoms: N_11  and  C_12
REMARK    5  A    between atoms: S_13  and  C_14
REMARK    6  A    between atoms: C_14  and  C_15
REMARK    7  A    between atoms: N_20  and  C_21
REMARK                            x       y       z     vdW  Elec       q    Type
REMARK                         _______ _______ _______ _____ _____    ______ ____
ROOT
ATOM      1  C   UNL     1       4.341   8.328  -0.417  0.00  0.00    +0.133 C 
ENDROOT
BRANCH   1   2
ATOM      2  C   UNL     1       3.239   7.310  -0.281  0.00  0.00    +0.061 A 
ATOM      3  C   UNL     1       1.940   7.675  -0.400  0.00  0.00    +0.072 A 
ATOM      4  S   UNL     1       1.129   6.101  -0.161  0.00  0.00    -0.060 S 
ATOM      5  C   UNL     1       2.558   5.144   0.076  0.00  0.00    +0.163 A 
ATOM      6  N   UNL     1       3.517   6.042  -0.044  0.00  0.00    -0.229 NA
ATOM      7  N   UNL     1       2.664   3.783   0.322  0.00  0.00    -0.294 N 
ATOM      8  H   UNL     1       3.537   3.360   0.340  0.00  0.00    +0.154 HD
BRANCH   7   9
ATOM      9  C   UNL     1       1.514   3.021   0.544  0.00  0.00    +0.033 A 
ATOM     10  C   UNL     1       1.454   1.706   0.102  0.00  0.00    +0.023 A 
ATOM     11  C   UNL     1       0.316   0.955   0.323  0.00  0.00    +0.002 A 
ATOM     12  C   UNL     1      -0.764   1.513   0.981  0.00  0.00    +0.000 A 
ATOM     13  C   UNL     1      -0.706   2.821   1.428  0.00  0.00    +0.002 A 
ATOM     14  C   UNL     1       0.429   3.577   1.210  0.00  0.00    +0.023 A 
ENDBRANCH   7   9
ENDBRANCH   1   2
BRANCH   1  15
ATOM     15  S   UNL     1       4.852   8.437  -2.150  0.00  0.00    -0.080 S 
BRANCH  15  19
ATOM     16  C   UNL     1       7.709  11.083  -2.473  0.00  0.00    +0.168 A 
ATOM     17  N   UNL     1       7.438  11.105  -1.189  0.00  0.00    -0.128 NA
ATOM     18  N   UNL     1       6.495  10.273  -0.925  0.00  0.00    -0.122 NA
ATOM     19  C   UNL     1       6.111   9.662  -2.022  0.00  0.00    +0.192 A 
ATOM     20  N   UNL     1       6.867  10.159  -3.047  0.00  0.00    -0.305 N 
ATOM     21  C   UNL     1       6.796   9.784  -4.462  0.00  0.00    +0.153 C 
BRANCH  16  24
ATOM     22  C   UNL     1      10.695  11.474  -1.603  0.00  0.00    +0.087 C 
ATOM     23  C   UNL     1      10.024  12.080  -2.808  0.00  0.00    +0.112 A 
ATOM     24  C   UNL     1       8.726  11.899  -3.171  0.00  0.00    +0.060 A 
ATOM     25  C   UNL     1       8.541  12.687  -4.396  0.00  0.00    +0.053 A 
ATOM     26  C   UNL     1       9.731  13.256  -4.654  0.00  0.00    +0.196 A 
ATOM     27  O   UNL     1      10.607  12.887  -3.707  0.00  0.00    -0.467 OA
ENDBRANCH  16  24
ENDBRANCH  15  19
ENDBRANCH   1  15
TORSDOF 5
