REMARK  Name = ZINC20413322
REMARK  9 active torsions:
REMARK  status: ('A' for Active; 'I' for Inactive)
REMARK    1  A    between atoms: C_1  and  C_2
REMARK    2  A    between atoms: C_9  and  O_19
REMARK    3  A    between atoms: C_21  and  C_22
REMARK    4  A    between atoms: N_24  and  C_25
REMARK    5  A    between atoms: C_25  and  C_26
REMARK    6  A    between atoms: C_26  and  C_27
REMARK    7  A    between atoms: C_27  and  N_28
REMARK    8  A    between atoms: C_30  and  C_37
REMARK    9  A    between atoms: C_33  and  C_36
REMARK                            x       y       z     vdW  Elec       q    Type
REMARK                         _______ _______ _______ _____ _____    ______ ____
ROOT
ATOM      1  C   UNL     1       0.176   1.853  -0.119  0.00  0.00    +0.048 C 
ATOM      2  C   UNL     1       0.365   0.364   0.019  0.00  0.00    +0.008 A 
ATOM      3  C   UNL     1       0.263  -0.637  -1.041  0.00  0.00    +0.033 A 
ATOM      4  C   UNL     1       0.521  -1.874  -0.425  0.00  0.00    +0.137 A 
ATOM      5  C   UNL     1       0.494  -3.033  -1.192  0.00  0.00    +0.050 A 
ATOM      6  C   UNL     1       0.214  -2.960  -2.537  0.00  0.00    +0.049 A 
ATOM      7  C   UNL     1      -0.043  -1.733  -3.154  0.00  0.00    +0.128 A 
ATOM      8  C   UNL     1      -0.016  -0.572  -2.412  0.00  0.00    +0.034 A 
ATOM      9  C   UNL     1      -0.271   0.772  -3.044  0.00  0.00    +0.152 C 
ATOM     10  C   UNL     1      -0.971   0.587  -4.392  0.00  0.00    +0.084 C 
ATOM     11  C   UNL     1      -0.215  -0.486  -5.184  0.00  0.00    +0.113 C 
ATOM     12  O   UNL     1      -0.321  -1.725  -4.484  0.00  0.00    -0.485 OA
ATOM     13  C   UNL     1      -0.832  -0.624  -6.576  0.00  0.00    +0.048 C 
ATOM     14  C   UNL     1      -0.078  -1.697  -7.364  0.00  0.00    +0.004 C 
ATOM     15  C   UNL     1       1.393  -1.297  -7.492  0.00  0.00    +0.000 C 
ATOM     16  C   UNL     1       2.009  -1.162  -6.098  0.00  0.00    +0.004 C 
ATOM     17  C   UNL     1       1.255  -0.088  -5.310  0.00  0.00    +0.048 C 
ATOM     18  O   UNL     1       0.755  -1.638   0.881  0.00  0.00    -0.450 OA
ATOM     19  C   UNL     1       0.672  -0.318   1.153  0.00  0.00    +0.193 A 
ENDROOT
BRANCH  19  20
ATOM     20  C   UNL     1       0.877   0.288   2.476  0.00  0.00    +0.280 C 
ATOM     21  O   UNL     1       0.776   1.492   2.616  0.00  0.00    -0.267 OA
ATOM     22  N   UNL     1       1.178  -0.491   3.534  0.00  0.00    -0.309 N 
ATOM     23  H   UNL     1       1.259  -1.451   3.423  0.00  0.00    +0.149 HD
BRANCH  22  24
ATOM     24  C   UNL     1       1.383   0.114   4.853  0.00  0.00    +0.103 C 
BRANCH  24  25
ATOM     25  C   UNL     1       1.710  -0.981   5.870  0.00  0.00    +0.000 C 
BRANCH  25  26
ATOM     26  C   UNL     1       1.925  -0.350   7.248  0.00  0.00    -0.077 C 
BRANCH  26  27
ATOM     27  N   UNL     1       2.238  -1.402   8.224  0.00  0.00    +0.380 N 
ATOM     28  C   UNL     1       1.081  -2.292   8.372  0.00  0.00    -0.076 C 
ATOM     29  C   UNL     1       1.430  -3.436   9.327  0.00  0.00    -0.031 C 
ATOM     30  C   UNL     1       1.807  -2.855  10.693  0.00  0.00    +0.003 C 
ATOM     31  C   UNL     1       2.967  -1.871  10.516  0.00  0.00    -0.031 C 
ATOM     32  C   UNL     1       2.561  -0.786   9.517  0.00  0.00    -0.076 C 
ATOM     33  C   UNL     1       3.301  -1.228  11.864  0.00  0.00    +0.005 C 
ATOM     34  C   UNL     1       0.221  -4.361   9.479  0.00  0.00    +0.005 C 
ATOM     35  H   UNL     1       3.031  -1.935   7.900  0.00  0.00    -0.082 HD
ENDBRANCH  26  27
ENDBRANCH  25  26
ENDBRANCH  24  25
ENDBRANCH  22  24
ENDBRANCH  19  20
BRANCH   9  36
ATOM     36  O   UNL     1      -1.103   1.552  -2.182  0.00  0.00    -0.387 OA
ATOM     37  H   UNL     1      -1.993   1.193  -2.065  0.00  0.00    +0.210 HD
ENDBRANCH   9  36
TORSDOF 6
