REMARK  Name = ZINC13615517
REMARK  4 active torsions:
REMARK  status: ('A' for Active; 'I' for Inactive)
REMARK    1  A    between atoms: C_1  and  O_2
REMARK    2  A    between atoms: O_2  and  C_3
REMARK    3  A    between atoms: C_5  and  N_27
REMARK    4  A    between atoms: C_10  and  C_19
REMARK                            x       y       z     vdW  Elec       q    Type
REMARK                         _______ _______ _______ _____ _____    ______ ____
ROOT
ATOM      1  C   UNL     1      -3.702   1.906   0.037  0.00  0.00    +0.143 A 
ATOM      2  C   UNL     1      -2.496   1.232   0.021  0.00  0.00    +0.080 A 
ATOM      3  C   UNL     1      -1.306   1.936   0.019  0.00  0.00    +0.130 A 
ATOM      4  C   UNL     1      -1.329   3.318   0.032  0.00  0.00    +0.039 A 
ATOM      5  C   UNL     1      -2.528   4.001   0.036  0.00  0.00    -0.014 A 
ATOM      6  C   UNL     1      -3.739   3.306   0.051  0.00  0.00    +0.074 A 
ATOM      7  N   UNL     1      -4.992   3.918   0.102  0.00  0.00    -0.334 N 
ATOM      8  C   UNL     1      -5.013   5.368   0.042  0.00  0.00    +0.106 C 
ATOM      9  C   UNL     1      -3.841   5.890   0.848  0.00  0.00    +0.029 C 
ATOM     10  C   UNL     1      -2.582   5.479   0.024  0.00  0.00    +0.049 C 
ATOM     11  C   UNL     1      -1.520   6.324   0.624  0.00  0.00    -0.023 C 
ATOM     12  C   UNL     1      -2.059   7.438   1.076  0.00  0.00    -0.030 C 
ATOM     13  C   UNL     1      -3.575   7.399   0.871  0.00  0.00    +0.033 C 
ATOM     14  H   UNL     1      -5.620   3.514  -0.578  0.00  0.00    +0.147 HD
ENDROOT
BRANCH   8  15
ATOM     15  C   UNL     1      -4.878   5.798  -1.396  0.00  0.00    -0.007 A 
ATOM     16  C   UNL     1      -4.392   4.913  -2.340  0.00  0.00    +0.007 A 
ATOM     17  C   UNL     1      -4.268   5.307  -3.659  0.00  0.00    +0.002 A 
ATOM     18  C   UNL     1      -4.631   6.587  -4.036  0.00  0.00    +0.021 A 
ATOM     19  C   UNL     1      -5.118   7.474  -3.093  0.00  0.00    +0.060 A 
ATOM     20  C   UNL     1      -5.248   7.077  -1.773  0.00  0.00    +0.064 A 
ATOM     21 CL   UNL     1      -5.867   8.186  -0.589  0.00  0.00    -0.082 Cl
ATOM     22 CL   UNL     1      -5.574   9.081  -3.566  0.00  0.00    -0.082 Cl
ENDBRANCH   8  15
BRANCH   3  23
ATOM     23  N   UNL     1      -0.014   1.214   0.009  0.00  0.00    +0.057 N 
ATOM     24  O   UNL     1       0.002  -0.004   0.002  0.00  0.00    -0.126 OA
ATOM     25  O   UNL     1       1.032   1.837   0.002  0.00  0.00    -0.126 OA
ENDBRANCH   3  23
BRANCH   1  27
ATOM     26  C   UNL     1      -4.762  -0.223   0.025  0.00  0.00    +0.277 C 
ATOM     27  O   UNL     1      -4.866   1.202   0.039  0.00  0.00    -0.493 OA
ENDBRANCH   1  27
TORSDOF 3
