REMARK  Name = ZINC40065779
REMARK  13 active torsions:
REMARK  status: ('A' for Active; 'I' for Inactive)
REMARK    1  A    between atoms: C_1  and  C_2
REMARK    2  A    between atoms: C_2  and  C_3
REMARK    3  A    between atoms: C_3  and  O_4
REMARK    4  A    between atoms: O_4  and  C_5
REMARK    5  A    between atoms: C_8  and  C_14
REMARK    6  A    between atoms: C_10  and  O_11
REMARK    7  A    between atoms: O_11  and  C_12
REMARK    8  A    between atoms: C_12  and  C_13
REMARK    9  A    between atoms: C_22  and  C_34
REMARK   10  A    between atoms: C_23  and  C_33
REMARK   11  A    between atoms: N_29  and  C_30
REMARK   12  A    between atoms: C_30  and  C_31
REMARK   13  A    between atoms: C_31  and  O_32
REMARK                            x       y       z     vdW  Elec       q    Type
REMARK                         _______ _______ _______ _____ _____    ______ ____
ROOT
ATOM      1  C   UNL     1      -6.403  -4.585   0.038  0.00  0.00    +0.145 C 
ATOM      2  C   UNL     1      -6.990  -4.558   1.411  0.00  0.00    +0.072 A 
ATOM      3  C   UNL     1      -6.507  -5.114   2.680  0.00  0.00    +0.199 A 
ATOM      4  O   UNL     1      -5.388  -5.573   2.824  0.00  0.00    -0.287 OA
ATOM      5  C   UNL     1      -7.511  -5.062   3.772  0.00  0.00    +0.065 A 
ATOM      6  C   UNL     1      -7.280  -5.726   4.976  0.00  0.00    +0.015 A 
ATOM      7  C   UNL     1      -8.217  -5.673   5.971  0.00  0.00    +0.004 A 
ATOM      8  C   UNL     1      -9.394  -4.963   5.783  0.00  0.00    -0.044 A 
ATOM      9  C   UNL     1      -9.638  -4.300   4.602  0.00  0.00    -0.005 A 
ATOM     10  C   UNL     1      -8.697  -4.337   3.573  0.00  0.00    +0.143 A 
ATOM     11  O   UNL     1      -8.953  -3.671   2.424  0.00  0.00    -0.449 OA
ATOM     12  C   UNL     1      -8.173  -3.879   1.345  0.00  0.00    +0.199 A 
ATOM     13  C   UNL     1      -8.387  -3.459  -0.051  0.00  0.00    +0.283 C 
ATOM     14  O   UNL     1      -9.351  -2.836  -0.450  0.00  0.00    -0.267 OA
ATOM     15  N   UNL     1      -7.358  -3.868  -0.823  0.00  0.00    -0.281 N 
ATOM     16  C   UNL     1     -10.924  -3.535   4.419  0.00  0.00    +0.048 C 
ATOM     17  C   UNL     1     -10.419  -4.916   6.888  0.00  0.00    +0.044 C 
ENDROOT
BRANCH   1  21
ATOM     18  C   UNL     1      -2.617  -2.596   0.013  0.00  0.00    +0.162 A 
ATOM     19  C   UNL     1      -3.790  -1.859   0.022  0.00  0.00    +0.050 A 
ATOM     20  C   UNL     1      -5.013  -2.505   0.030  0.00  0.00    +0.009 A 
ATOM     21  C   UNL     1      -5.068  -3.886   0.029  0.00  0.00    -0.019 A 
ATOM     22  C   UNL     1      -3.901  -4.628   0.020  0.00  0.00    +0.055 A 
ATOM     23  C   UNL     1      -2.673  -3.987   0.006  0.00  0.00    +0.162 A 
BRANCH  18  24
ATOM     24  O   UNL     1      -1.414  -1.962   0.005  0.00  0.00    -0.488 OA
BRANCH  24  25
ATOM     25  C   UNL     1      -1.433  -0.534   0.013  0.00  0.00    +0.229 C 
BRANCH  25  27
ATOM     26  C   UNL     1      -0.019   1.526   0.010  0.00  0.00    +0.007 C 
ATOM     27  C   UNL     1       0.002  -0.004   0.002  0.00  0.00    +0.038 C 
ENDBRANCH  25  27
ENDBRANCH  24  25
ENDBRANCH  18  24
BRANCH  23  28
ATOM     28  O   UNL     1      -1.524  -4.715  -0.009  0.00  0.00    -0.489 OA
BRANCH  28  29
ATOM     29  C   UNL     1      -1.658  -6.138  -0.015  0.00  0.00    +0.226 C 
ATOM     30  C   UNL     1      -0.270  -6.780  -0.032  0.00  0.00    +0.048 C 
ENDBRANCH  28  29
ENDBRANCH  23  28
ENDBRANCH   1  21
BRANCH  15  31
ATOM     31  C   UNL     1      -7.214  -3.638  -2.262  0.00  0.00    +0.137 C 
BRANCH  31  32
ATOM     32  C   UNL     1      -7.854  -4.796  -3.030  0.00  0.00    +0.175 C 
BRANCH  32  33
ATOM     33  O   UNL     1      -9.262  -4.807  -2.788  0.00  0.00    -0.393 OA
ATOM     34  H   UNL     1      -9.734  -5.517  -3.245  0.00  0.00    +0.209 HD
ENDBRANCH  32  33
ENDBRANCH  31  32
ENDBRANCH  15  31
TORSDOF 9
