REMARK  Name = ZINC05032093
REMARK  5 active torsions:
REMARK  status: ('A' for Active; 'I' for Inactive)
REMARK    1  A    between atoms: C_1  and  C_2
REMARK    2  A    between atoms: C_5  and  C_8
REMARK    3  A    between atoms: C_9  and  C_10
REMARK    4  A    between atoms: C_13  and  C_18
REMARK    5  A    between atoms: C_22  and  C_23
REMARK                            x       y       z     vdW  Elec       q    Type
REMARK                         _______ _______ _______ _____ _____    ______ ____
ROOT
ATOM      1  C   UNL     1       1.249   1.827  -0.000  0.00  0.00    +0.125 A 
ATOM      2  N   UNL     1       2.479   1.372  -0.009  0.00  0.00    -0.156 NA
ATOM      3  N   UNL     1       3.564   2.238  -0.020  0.00  0.00    -0.185 N 
ATOM      4  C   UNL     1       4.951   2.200  -0.034  0.00  0.00    +0.189 A 
ATOM      5  N   UNL     1       5.386   3.438  -0.031  0.00  0.00    -0.126 NA
ATOM      6  N   UNL     1       4.390   4.254  -0.017  0.00  0.00    -0.120 NA
ATOM      7  C   UNL     1       3.277   3.583  -0.010  0.00  0.00    +0.219 A 
ATOM      8  S   UNL     1       1.502   3.595   0.008  0.00  0.00    -0.027 S 
ENDROOT
BRANCH   4   9
ATOM      9  C   UNL     1       5.789   0.981  -0.049  0.00  0.00    +0.062 A 
ATOM     10  C   UNL     1       5.327  -0.413  -0.053  0.00  0.00    +0.053 A 
ATOM     11  C   UNL     1       6.436  -1.171  -0.069  0.00  0.00    +0.196 A 
ATOM     12  O   UNL     1       7.513  -0.372  -0.074  0.00  0.00    -0.467 OA
ATOM     13  C   UNL     1       7.148   0.919  -0.069  0.00  0.00    +0.113 A 
ATOM     14  C   UNL     1       8.084   2.100  -0.079  0.00  0.00    +0.087 C 
ENDBRANCH   4   9
BRANCH   1  16
ATOM     15  C   UNL     1      -1.186   1.732   0.017  0.00  0.00    +0.010 C 
ATOM     16  C   UNL     1      -0.013   1.076   0.008  0.00  0.00    +0.037 C 
BRANCH  15  21
ATOM     17  C   UNL     1      -6.127  -1.210   0.024  0.00  0.00    +0.044 C 
ATOM     18  C   UNL     1      -4.832  -0.439   0.023  0.00  0.00    -0.050 A 
ATOM     19  C   UNL     1      -4.855   0.945   0.030  0.00  0.00    +0.004 A 
ATOM     20  C   UNL     1      -3.674   1.657   0.029  0.00  0.00    +0.008 A 
ATOM     21  C   UNL     1      -2.452   0.979   0.019  0.00  0.00    -0.025 A 
ATOM     22  C   UNL     1      -2.437  -0.419   0.006  0.00  0.00    +0.008 A 
ATOM     23  C   UNL     1      -3.626  -1.118   0.013  0.00  0.00    +0.004 A 
ENDBRANCH  15  21
ENDBRANCH   1  16
TORSDOF 3
