REMARK  Name = ZINC17176181
REMARK  9 active torsions:
REMARK  status: ('A' for Active; 'I' for Inactive)
REMARK    1  A    between atoms: C_1  and  C_2
REMARK    2  A    between atoms: C_10  and  O_13
REMARK    3  A    between atoms: O_13  and  C_14
REMARK    4  A    between atoms: C_14  and  C_16
REMARK    5  A    between atoms: C_17  and  C_21
REMARK    6  A    between atoms: C_17  and  C_22
REMARK    7  A    between atoms: C_23  and  C_24
REMARK    8  A    between atoms: C_25  and  C_26
REMARK    9  A    between atoms: C_25  and  C_27
REMARK                            x       y       z     vdW  Elec       q    Type
REMARK                         _______ _______ _______ _____ _____    ______ ____
ROOT
ATOM      1  C   UNL     1       0.953   3.175   3.342  0.00  0.00    +0.039 C 
ATOM      2  C   UNL     1       0.031   2.049   3.732  0.00  0.00    -0.076 C 
ATOM      3  C   UNL     1       0.518   0.853   3.889  0.00  0.00    -0.027 C 
ATOM      4  C   UNL     1      -0.409  -0.300   4.235  0.00  0.00    +0.049 C 
ATOM      5  C   UNL     1      -1.260  -0.563   3.013  0.00  0.00    +0.111 C 
ATOM      6  C   UNL     1      -1.792  -2.000   2.898  0.00  0.00    +0.023 C 
ATOM      7  C   UNL     1      -3.085  -1.869   2.057  0.00  0.00    +0.013 C 
ATOM      8  C   UNL     1      -3.289  -0.351   1.808  0.00  0.00    +0.082 C 
ATOM      9  C   UNL     1      -2.529   0.296   2.993  0.00  0.00    +0.136 C 
ATOM     10  C   UNL     1      -2.243   1.764   2.756  0.00  0.00    +0.054 C 
ATOM     11  C   UNL     1      -1.443   2.333   3.932  0.00  0.00    +0.034 C 
ATOM     12  C   UNL     1      -2.539   0.026   0.522  0.00  0.00    +0.136 C 
ATOM     13  O   UNL     1      -1.174  -0.474   0.580  0.00  0.00    -0.453 OA
ATOM     14  C   UNL     1      -0.500  -0.255   1.734  0.00  0.00    +0.318 C 
ATOM     15  O   UNL     1       0.634   0.160   1.745  0.00  0.00    -0.250 OA
ATOM     16  C   UNL     1      -3.255  -0.589  -0.681  0.00  0.00    +0.061 C 
ENDROOT
BRANCH  12  17
ATOM     17  C   UNL     1      -2.516   1.526   0.378  0.00  0.00    +0.020 C 
ATOM     18  C   UNL     1      -1.552   2.114  -0.333  0.00  0.00    +0.000 C 
BRANCH  18  19
ATOM     19  C   UNL     1      -0.623   1.300  -1.119  0.00  0.00    +0.010 C 
ATOM     20  C   UNL     1       0.410   1.887  -1.766  0.00  0.00    +0.038 C 
ATOM     21  C   UNL     1       1.483   1.039  -2.398  0.00  0.00    +0.051 C 
BRANCH  20  22
ATOM     22  C   UNL     1       0.484   3.301  -1.848  0.00  0.00    +0.382 C 
ATOM     23  O   UNL     1      -0.447   3.982  -1.461  0.00  0.00    -0.241 OA
ATOM     24  O   UNL     1       1.587   3.891  -2.354  0.00  0.00    -0.241 OA
ENDBRANCH  20  22
ENDBRANCH  18  19
ENDBRANCH  12  17
BRANCH   9  25
ATOM     25  O   UNL     1      -3.265   0.127   4.233  0.00  0.00    -0.457 OA
BRANCH  25  26
ATOM     26  C   UNL     1      -4.407   0.820   4.364  0.00  0.00    +0.305 C 
ATOM     27  O   UNL     1      -4.779   1.545   3.472  0.00  0.00    -0.251 OA
ATOM     28  C   UNL     1      -5.223   0.695   5.625  0.00  0.00    +0.136 C 
ENDBRANCH  25  26
ENDBRANCH   9  25
TORSDOF 5
