REMARK  Name = ZINC15068455
REMARK  9 active torsions:
REMARK  status: ('A' for Active; 'I' for Inactive)
REMARK    1  A    between atoms: C_1  and  C_2
REMARK    2  A    between atoms: C_3  and  C_7
REMARK    3  A    between atoms: C_7  and  C_8
REMARK    4  A    between atoms: C_8  and  C_9
REMARK    5  A    between atoms: N_11  and  C_12
REMARK    6  A    between atoms: N_11  and  C_19
REMARK    7  A    between atoms: C_12  and  C_13
REMARK    8  A    between atoms: C_19  and  C_20
REMARK    9  A    between atoms: N_23  and  C_26
REMARK                            x       y       z     vdW  Elec       q    Type
REMARK                         _______ _______ _______ _____ _____    ______ ____
ROOT
ATOM      1  C   UNL     1       1.415   0.465  -4.497  0.00  0.00    +0.216 C 
ATOM      2  O   UNL     1       0.359   0.649  -5.064  0.00  0.00    -0.276 OA
ATOM      3  N   UNL     1       2.576   0.702  -5.139  0.00  0.00    -0.299 N 
ENDROOT
BRANCH   1   4
ATOM      4  C   UNL     1       1.429  -0.028  -3.072  0.00  0.00    +0.101 C 
BRANCH   4   5
ATOM      5  C   UNL     1      -0.008  -0.215  -2.583  0.00  0.00    +0.053 C 
BRANCH   5   8
ATOM      6  C   UNL     1      -0.018   1.503   0.010  0.00  0.00    +0.066 C 
ATOM      7  C   UNL     1       0.002  -0.004   0.002  0.00  0.00    +0.049 A 
ATOM      8  C   UNL     1       0.006  -0.708  -1.159  0.00  0.00    +0.013 A 
ATOM      9  S   UNL     1       0.032  -2.379  -0.531  0.00  0.00    -0.080 S 
ATOM     10  C   UNL     1       0.036  -2.009   1.111  0.00  0.00    +0.156 A 
ATOM     11  N   UNL     1       0.023  -0.699   1.122  0.00  0.00    -0.252 NA
ENDBRANCH   5   8
ENDBRANCH   4   5
ENDBRANCH   1   4
BRANCH   3  12
ATOM     12  C   UNL     1       3.851   0.480  -4.454  0.00  0.00    +0.139 C 
BRANCH  12  13
ATOM     13  C   UNL     1       4.312  -0.960  -4.687  0.00  0.00    +0.136 C 
ATOM     14  C   UNL     1       5.643  -1.227  -3.941  0.00  0.00    +0.035 C 
ATOM     15  C   UNL     1       5.576  -2.767  -3.758  0.00  0.00    +0.031 C 
ATOM     16  C   UNL     1       4.063  -3.008  -3.562  0.00  0.00    +0.160 C 
ATOM     17  O   UNL     1       3.369  -1.883  -4.118  0.00  0.00    -0.375 OA
ENDBRANCH  12  13
ENDBRANCH   3  12
BRANCH   3  18
ATOM     18  C   UNL     1       2.562   1.181  -6.524  0.00  0.00    +0.111 C 
BRANCH  18  19
ATOM     19  C   UNL     1       2.541   2.711  -6.534  0.00  0.00    +0.003 C 
ATOM     20  C   UNL     1       1.224   3.209  -5.929  0.00  0.00    -0.014 C 
ATOM     21  C   UNL     1       1.175   4.736  -6.015  0.00  0.00    -0.078 C 
ATOM     22  N   UNL     1       1.260   5.154  -7.419  0.00  0.00    +0.382 N 
ATOM     23  C   UNL     1       2.550   4.742  -7.985  0.00  0.00    -0.078 C 
ATOM     24  C   UNL     1       2.652   3.215  -7.975  0.00  0.00    -0.014 C 
ATOM     25  H   UNL     1       0.512   4.724  -7.943  0.00  0.00    -0.081 HD
BRANCH  22  26
ATOM     26  C   UNL     1       1.134   6.615  -7.502  0.00  0.00    -0.069 C 
ATOM     27  C   UNL     1      -0.251   7.056  -6.985  0.00  0.00    -0.015 C 
ATOM     28  C   UNL     1      -0.646   8.232  -7.913  0.00  0.00    -0.002 C 
ATOM     29  C   UNL     1      -0.115   7.771  -9.294  0.00  0.00    -0.002 C 
ATOM     30  C   UNL     1       1.220   7.069  -8.970  0.00  0.00    -0.015 C 
ENDBRANCH  22  26
ENDBRANCH  18  19
ENDBRANCH   3  18
TORSDOF 8
