REMARK  Name = ZINC57309817
REMARK  14 active torsions:
REMARK  status: ('A' for Active; 'I' for Inactive)
REMARK    1  A    between atoms: C_1  and  C_2
REMARK    2  A    between atoms: C_2  and  N_3
REMARK    3  A    between atoms: N_3  and  C_4
REMARK    4  A    between atoms: N_3  and  C_6
REMARK    5  A    between atoms: C_4  and  C_5
REMARK    6  A    between atoms: C_6  and  C_7
REMARK    7  A    between atoms: C_7  and  C_8
REMARK    8  A    between atoms: C_8  and  C_9
REMARK    9  A    between atoms: C_9  and  C_11
REMARK   10  A    between atoms: C_9  and  N_12
REMARK   11  A    between atoms: C_13  and  C_15
REMARK   12  A    between atoms: C_17  and  C_33
REMARK   13  A    between atoms: C_21  and  C_32
REMARK   14  A    between atoms: N_23  and  C_24
REMARK                            x       y       z     vdW  Elec       q    Type
REMARK                         _______ _______ _______ _____ _____    ______ ____
ROOT
ATOM      1  C   UNL     1       3.543  -3.124   4.289  0.00  0.00    +0.051 A 
ATOM      2  C   UNL     1       4.184  -3.192   3.059  0.00  0.00    +0.045 A 
ATOM      3  C   UNL     1       5.471  -2.654   2.927  0.00  0.00    +0.109 A 
ATOM      4  N   UNL     1       6.087  -2.082   3.951  0.00  0.00    -0.224 NA
ATOM      5  C   UNL     1       5.522  -1.990   5.144  0.00  0.00    +0.160 A 
ATOM      6  C   UNL     1       4.226  -2.502   5.360  0.00  0.00    +0.054 A 
ATOM      7  C   UNL     1       3.899  -2.251   6.709  0.00  0.00    +0.070 A 
ATOM      8  N   UNL     1       4.901  -1.636   7.272  0.00  0.00    -0.174 NA
ATOM      9  N   UNL     1       5.932  -1.461   6.341  0.00  0.00    -0.241 N 
ATOM     10  C   UNL     1       2.608  -2.631   7.387  0.00  0.00    +0.068 C 
ENDROOT
BRANCH   9  11
ATOM     11  C   UNL     1       7.219  -0.811   6.597  0.00  0.00    +0.132 C 
ATOM     12  C   UNL     1       7.963  -1.554   7.719  0.00  0.00    +0.051 C 
ATOM     13  C   UNL     1       9.158  -0.704   8.214  0.00  0.00    +0.168 C 
ATOM     14  S   UNL     1       8.599   1.015   7.873  0.00  0.00    -0.029 S 
ATOM     15  O   UNL     1       8.358   1.676   9.108  0.00  0.00    -0.174 OA
ATOM     16  O   UNL     1       9.474   1.605   6.923  0.00  0.00    -0.174 OA
ATOM     17  C   UNL     1       6.984   0.655   7.061  0.00  0.00    +0.192 C 
ENDBRANCH   9  11
BRANCH   3  18
ATOM     18  C   UNL     1       6.154  -2.725   1.620  0.00  0.00    +0.153 A 
ATOM     19  C   UNL     1       7.400  -2.253   1.343  0.00  0.00    +0.051 A 
ATOM     20  C   UNL     1       7.647  -2.533  -0.014  0.00  0.00    +0.042 A 
ATOM     21  C   UNL     1       6.552  -3.155  -0.495  0.00  0.00    +0.196 A 
ATOM     22  O   UNL     1       5.654  -3.275   0.496  0.00  0.00    -0.461 OA
ENDBRANCH   3  18
BRANCH   1  24
ATOM     23  N   UNL     1       1.265  -3.547   3.495  0.00  0.00    -0.309 N 
ATOM     24  C   UNL     1       2.185  -3.680   4.471  0.00  0.00    +0.245 C 
ATOM     25  O   UNL     1       1.898  -4.257   5.502  0.00  0.00    -0.270 OA
ATOM     26  H   UNL     1       1.494  -3.087   2.673  0.00  0.00    +0.149 HD
BRANCH  23  27
ATOM     27  C   UNL     1      -0.080  -4.098   3.676  0.00  0.00    +0.070 C 
ATOM     28  C   UNL     1      -0.085  -5.575   3.277  0.00  0.00    +0.028 C 
BRANCH  27  29
ATOM     29  C   UNL     1      -1.069  -3.329   2.797  0.00  0.00    +0.020 C 
BRANCH  29  30
ATOM     30  C   UNL     1      -1.157  -1.879   3.276  0.00  0.00    -0.017 C 
BRANCH  30  31
ATOM     31  C   UNL     1      -2.145  -1.111   2.397  0.00  0.00    -0.079 C 
BRANCH  31  32
ATOM     32  N   UNL     1      -2.230   0.282   2.857  0.00  0.00    +0.379 N 
ATOM     33  H   UNL     1      -2.468   0.298   3.838  0.00  0.00    -0.082 HD
BRANCH  32  35
ATOM     34  C   UNL     1      -0.982   2.350   3.257  0.00  0.00    -0.017 C 
ATOM     35  C   UNL     1      -0.935   0.944   2.656  0.00  0.00    -0.082 C 
ENDBRANCH  32  35
BRANCH  32  36
ATOM     36  C   UNL     1      -3.266   0.988   2.091  0.00  0.00    -0.082 C 
ATOM     37  C   UNL     1      -4.636   0.387   2.409  0.00  0.00    -0.017 C 
ENDBRANCH  32  36
ENDBRANCH  31  32
ENDBRANCH  30  31
ENDBRANCH  29  30
ENDBRANCH  27  29
ENDBRANCH  23  27
ENDBRANCH   1  24
TORSDOF 10
