REMARK  Name = ZINC39623721
REMARK  8 active torsions:
REMARK  status: ('A' for Active; 'I' for Inactive)
REMARK    1  A    between atoms: C_4  and  C_7
REMARK    2  A    between atoms: C_7  and  C_8
REMARK    3  A    between atoms: C_8  and  C_9
REMARK    4  A    between atoms: C_9  and  N_10
REMARK    5  A    between atoms: C_11  and  C_13
REMARK    6  A    between atoms: C_24  and  C_26
REMARK    7  A    between atoms: C_31  and  O_32
REMARK    8  A    between atoms: O_32  and  C_33
REMARK                            x       y       z     vdW  Elec       q    Type
REMARK                         _______ _______ _______ _____ _____    ______ ____
ROOT
ATOM      1  C   UNL     1       7.544  -2.967   3.846  0.00  0.00    +0.100 C 
ATOM      2  C   UNL     1       6.517  -3.648   4.779  0.00  0.00    +0.121 C 
ATOM      3  N   UNL     1       6.946  -5.065   4.837  0.00  0.00    -0.296 N 
ATOM      4  C   UNL     1       8.426  -5.001   4.887  0.00  0.00    +0.115 C 
ATOM      5  C   UNL     1       8.797  -3.856   3.923  0.00  0.00    -0.004 C 
ATOM      6  C   UNL     1       9.976  -3.061   4.476  0.00  0.00    -0.010 C 
ATOM      7  C   UNL     1      11.224  -3.949   4.488  0.00  0.00    -0.082 C 
ATOM      8  N   UNL     1      11.513  -4.408   3.124  0.00  0.00    +0.379 N 
ATOM      9  C   UNL     1      10.415  -5.249   2.635  0.00  0.00    -0.082 C 
ATOM     10  C   UNL     1       9.133  -4.417   2.545  0.00  0.00    -0.010 C 
ATOM     11  C   UNL     1       6.166  -6.164   4.844  0.00  0.00    +0.252 C 
ATOM     12  O   UNL     1       6.666  -7.263   4.991  0.00  0.00    -0.270 OA
ATOM     13  H   UNL     1      11.619  -3.609   2.517  0.00  0.00    -0.086 HD
ATOM     14  H   UNL     1      12.370  -4.942   3.125  0.00  0.00    -0.086 HD
ENDROOT
BRANCH  11  15
ATOM     15  C   UNL     1       4.707  -6.034   4.673  0.00  0.00    +0.099 A 
ATOM     16  C   UNL     1       4.023  -4.932   5.200  0.00  0.00    +0.020 A 
ATOM     17  C   UNL     1       2.655  -4.857   5.012  0.00  0.00    +0.021 A 
ATOM     18  C   UNL     1       2.007  -5.862   4.317  0.00  0.00    +0.114 A 
ATOM     19  N   UNL     1       2.671  -6.893   3.829  0.00  0.00    -0.220 NA
ATOM     20  C   UNL     1       3.980  -7.010   3.975  0.00  0.00    +0.233 A 
BRANCH  20  21
ATOM     21  O   UNL     1       4.621  -8.082   3.453  0.00  0.00    -0.437 OA
BRANCH  21  22
ATOM     22  C   UNL     1       3.870  -9.055   2.871  0.00  0.00    +0.130 A 
ATOM     23  C   UNL     1       3.356  -8.865   1.597  0.00  0.00    +0.048 A 
ATOM     24  C   UNL     1       2.593  -9.854   1.007  0.00  0.00    +0.023 A 
ATOM     25  C   UNL     1       2.342 -11.033   1.686  0.00  0.00    +0.041 A 
ATOM     26  C   UNL     1       2.854 -11.224   2.957  0.00  0.00    +0.023 A 
ATOM     27  C   UNL     1       3.623 -10.240   3.548  0.00  0.00    +0.048 A 
ATOM     28 CL   UNL     1       1.383 -12.275   0.942  0.00  0.00    -0.084 Cl
ENDBRANCH  21  22
ENDBRANCH  20  21
ENDBRANCH  11  15
BRANCH   1  30
ATOM     29  N   UNL     1       7.412  -1.934   1.603  0.00  0.00    -0.315 N 
ATOM     30  C   UNL     1       7.020  -2.920   2.434  0.00  0.00    +0.218 C 
ATOM     31  O   UNL     1       6.247  -3.769   2.046  0.00  0.00    -0.275 OA
ATOM     32  H   UNL     1       8.030  -1.254   1.914  0.00  0.00    +0.149 HD
BRANCH  29  33
ATOM     33  C   UNL     1       6.902  -1.888   0.230  0.00  0.00    +0.104 C 
BRANCH  33  34
ATOM     34  C   UNL     1       7.498  -0.679  -0.494  0.00  0.00    +0.023 C 
BRANCH  34  35
ATOM     35  C   UNL     1       6.966  -0.631  -1.928  0.00  0.00    +0.036 C 
BRANCH  35  39
ATOM     36  C   UNL     1       8.627   2.743  -3.954  0.00  0.00    +0.000 A 
ATOM     37  C   UNL     1       9.280   1.525  -3.989  0.00  0.00    +0.000 A 
ATOM     38  C   UNL     1       8.742   0.433  -3.334  0.00  0.00    +0.003 A 
ATOM     39  C   UNL     1       7.552   0.559  -2.642  0.00  0.00    -0.047 A 
ATOM     40  C   UNL     1       6.900   1.778  -2.606  0.00  0.00    +0.003 A 
ATOM     41  C   UNL     1       7.437   2.869  -3.262  0.00  0.00    +0.000 A 
ENDBRANCH  35  39
ENDBRANCH  34  35
ENDBRANCH  33  34
ENDBRANCH  29  33
ENDBRANCH   1  30
TORSDOF 8
