REMARK  Name = ZINC11873896
REMARK  8 active torsions:
REMARK  status: ('A' for Active; 'I' for Inactive)
REMARK    1  A    between atoms: C_4  and  C_29
REMARK    2  A    between atoms: C_5  and  C_7
REMARK    3  A    between atoms: C_7  and  N_8
REMARK    4  A    between atoms: C_14  and  C_16
REMARK    5  A    between atoms: C_16  and  C_17
REMARK    6  A    between atoms: N_19  and  C_20
REMARK    7  A    between atoms: C_20  and  C_21
REMARK    8  A    between atoms: C_21  and  N_22
REMARK                            x       y       z     vdW  Elec       q    Type
REMARK                         _______ _______ _______ _____ _____    ______ ____
ROOT
ATOM      1  N   UNL     1       1.366  -2.491   0.877  0.00  0.00    +0.391 N 
ATOM      2  C   UNL     1       0.111  -2.219   1.595  0.00  0.00    -0.058 C 
ATOM      3  C   UNL     1       0.355  -2.387   3.096  0.00  0.00    +0.085 C 
ATOM      4  N   UNL     1       0.997  -3.674   3.354  0.00  0.00    -0.318 N 
ATOM      5  C   UNL     1       1.607  -4.380   2.396  0.00  0.00    +0.200 C 
ATOM      6  O   UNL     1       2.138  -5.429   2.694  0.00  0.00    -0.278 OA
ATOM      7  C   UNL     1       1.662  -3.926   0.964  0.00  0.00    +0.028 C 
ATOM      8  H   UNL     1       0.981  -4.030   4.256  0.00  0.00    +0.149 HD
ATOM      9  H   UNL     1       2.118  -1.965   1.296  0.00  0.00    -0.080 HD
ENDROOT
BRANCH   1  10
ATOM     10  C   UNL     1       1.221  -2.103  -0.532  0.00  0.00    -0.041 C 
BRANCH  10  15
ATOM     11  C   UNL     1      -0.500   1.246  -0.812  0.00  0.00    +0.000 A 
ATOM     12  C   UNL     1       0.578   2.112  -0.793  0.00  0.00    +0.001 A 
ATOM     13  C   UNL     1       1.863   1.614  -0.690  0.00  0.00    +0.012 A 
ATOM     14  C   UNL     1       2.071   0.249  -0.605  0.00  0.00    +0.056 A 
ATOM     15  C   UNL     1       0.994  -0.616  -0.624  0.00  0.00    -0.052 A 
ATOM     16  C   UNL     1      -0.292  -0.118  -0.728  0.00  0.00    +0.002 A 
BRANCH  14  17
ATOM     17  C   UNL     1       3.472  -0.294  -0.493  0.00  0.00    +0.418 C 
ATOM     18  F   UNL     1       4.390   0.754  -0.625  0.00  0.00    -0.166 F 
ATOM     19  F   UNL     1       3.638  -0.905   0.754  0.00  0.00    -0.166 F 
ATOM     20  F   UNL     1       3.690  -1.234  -1.506  0.00  0.00    -0.166 F 
ENDBRANCH  14  17
ENDBRANCH  10  15
ENDBRANCH   1  10
BRANCH   7  21
ATOM     21  C   UNL     1       3.060  -4.191   0.401  0.00  0.00    +0.089 C 
BRANCH  21  22
ATOM     22  C   UNL     1       4.089  -3.524   1.278  0.00  0.00    +0.212 C 
ATOM     23  O   UNL     1       3.749  -2.989   2.311  0.00  0.00    -0.276 OA
ATOM     24  N   UNL     1       5.386  -3.523   0.912  0.00  0.00    -0.314 N 
ATOM     25  H   UNL     1       5.658  -3.952   0.086  0.00  0.00    +0.149 HD
BRANCH  24  26
ATOM     26  C   UNL     1       6.386  -2.875   1.764  0.00  0.00    +0.123 C 
BRANCH  26  27
ATOM     27  C   UNL     1       7.769  -3.017   1.125  0.00  0.00    +0.126 C 
BRANCH  27  28
ATOM     28  N   UNL     1       8.770  -2.369   1.977  0.00  0.00    -0.300 N 
ATOM     29  C   UNL     1       9.053  -0.958   1.745  0.00  0.00    +0.108 C 
ATOM     30  C   UNL     1       9.728  -0.339   2.970  0.00  0.00    +0.019 C 
ATOM     31  C   UNL     1      10.914  -1.223   3.376  0.00  0.00    +0.011 C 
ATOM     32  C   UNL     1      10.369  -2.559   3.887  0.00  0.00    +0.096 C 
ATOM     33  C   UNL     1       9.360  -3.105   2.919  0.00  0.00    +0.216 C 
ATOM     34  O   UNL     1       9.070  -4.280   2.995  0.00  0.00    -0.276 OA
ENDBRANCH  27  28
ENDBRANCH  26  27
ENDBRANCH  24  26
ENDBRANCH  21  22
ENDBRANCH   7  21
TORSDOF 8
