REMARK  Name = ZINC08654267
REMARK  5 active torsions:
REMARK  status: ('A' for Active; 'I' for Inactive)
REMARK    1  A    between atoms: C_1  and  C_2
REMARK    2  A    between atoms: C_2  and  N_3
REMARK    3  A    between atoms: N_9  and  C_10
REMARK    4  A    between atoms: C_13  and  O_16
REMARK    5  A    between atoms: O_16  and  C_17
REMARK                            x       y       z     vdW  Elec       q    Type
REMARK                         _______ _______ _______ _____ _____    ______ ____
ROOT
ATOM      1  N   UNL     1       0.789   3.443   0.150  0.00  0.00    -0.328 N 
ATOM      2  C   UNL     1       1.777   4.145  -0.507  0.00  0.00    +0.107 A 
ATOM      3  C   UNL     1       2.925   3.518  -0.837  0.00  0.00    +0.130 A 
ATOM      4  N   UNL     1       3.125   2.222  -0.577  0.00  0.00    -0.235 NA
ATOM      5  C   UNL     1       2.139   1.453  -0.153  0.00  0.00    +0.164 A 
ATOM      6  C   UNL     1       0.804   2.068  -0.017  0.00  0.00    +0.175 A 
ATOM      7  N   UNL     1      -0.306   1.351  -0.046  0.00  0.00    -0.227 NA
ATOM      8  N   UNL     1       2.347   0.116   0.149  0.00  0.00    -0.312 N 
ATOM      9  C   UNL     1       3.201  -0.029   1.335  0.00  0.00    +0.106 C 
ATOM     10  C   UNL     1       3.290  -1.506   1.724  0.00  0.00    +0.019 C 
ATOM     11  C   UNL     1       3.872  -2.303   0.553  0.00  0.00    +0.003 C 
ATOM     12  C   UNL     1       2.990  -2.097  -0.682  0.00  0.00    +0.019 C 
ATOM     13  C   UNL     1       2.910  -0.602  -1.001  0.00  0.00    +0.106 C 
ENDROOT
BRANCH   7  14
ATOM     14  C   UNL     1      -0.238  -0.013  -0.089  0.00  0.00    +0.067 A 
ATOM     15  C   UNL     1      -0.285  -0.679  -1.317  0.00  0.00    +0.031 A 
ATOM     16  C   UNL     1      -0.210  -2.055  -1.355  0.00  0.00    +0.048 A 
ATOM     17  C   UNL     1      -0.101  -2.780  -0.176  0.00  0.00    +0.120 A 
ATOM     18  C   UNL     1      -0.059  -2.123   1.046  0.00  0.00    +0.048 A 
ATOM     19  C   UNL     1      -0.127  -0.747   1.095  0.00  0.00    +0.031 A 
BRANCH  17  20
ATOM     20  O   UNL     1      -0.033  -4.138  -0.219  0.00  0.00    -0.495 OA
ATOM     21  C   UNL     1       0.034  -4.743  -1.511  0.00  0.00    +0.277 C 
ENDBRANCH  17  20
ENDBRANCH   7  14
BRANCH   1  23
ATOM     22  C   UNL     1       0.288   4.216   2.415  0.00  0.00    +0.027 C 
ATOM     23  C   UNL     1      -0.219   4.113   0.975  0.00  0.00    +0.120 C 
ENDBRANCH   1  23
TORSDOF 3
