REMARK  Name = ZINC13500198
REMARK  12 active torsions:
REMARK  status: ('A' for Active; 'I' for Inactive)
REMARK    1  A    between atoms: C_1  and  C_2
REMARK    2  A    between atoms: C_2  and  C_3
REMARK    3  A    between atoms: C_3  and  C_4
REMARK    4  A    between atoms: C_4  and  C_6
REMARK    5  A    between atoms: C_4  and  N_71
REMARK    6  A    between atoms: N_10  and  C_11
REMARK    7  A    between atoms: C_11  and  C_12
REMARK    8  A    between atoms: C_11  and  C_13
REMARK    9  A    between atoms: C_11  and  C_14
REMARK   10  A    between atoms: C_15  and  C_16
REMARK   11  A    between atoms: C_15  and  N_71
REMARK   12  A    between atoms: C_31  and  N_71
REMARK                            x       y       z     vdW  Elec       q    Type
REMARK                         _______ _______ _______ _____ _____    ______ ____
ROOT
ATOM      1  N   UNL     1       1.104   4.870  -0.164  0.00  0.00    +0.391 N 
ATOM      2  H   UNL     1       0.690   5.280  -1.010  0.00  0.00    -0.080 HD
ENDROOT
BRANCH   1   3
ATOM      3  C   UNL     1       0.913   3.405  -0.199  0.00  0.00    -0.067 C 
ATOM      4  C   UNL     1       1.411   2.874  -1.545  0.00  0.00    -0.015 C 
ATOM      5  C   UNL     1       1.200   1.359  -1.605  0.00  0.00    -0.002 C 
ATOM      6  C   UNL     1       1.982   0.690  -0.473  0.00  0.00    -0.000 C 
ATOM      7  C   UNL     1       1.484   1.221   0.873  0.00  0.00    -0.002 C 
ATOM      8  C   UNL     1       1.695   2.735   0.933  0.00  0.00    -0.015 C 
ENDBRANCH   1   3
BRANCH   1   9
ATOM      9  C   UNL     1       2.546   5.191  -0.132  0.00  0.00    +0.003 C 
BRANCH   9  10
ATOM     10  C   UNL     1       3.115   4.927   1.239  0.00  0.00    +0.139 A 
ATOM     11  N   UNL     1       2.519   5.138   2.387  0.00  0.00    -0.115 NA
ATOM     12  N   UNL     1       3.328   4.785   3.326  0.00  0.00    -0.023 NA
ATOM     13  N   UNL     1       4.427   4.362   2.807  0.00  0.00    -0.043 NA
ATOM     14  N   UNL     1       4.334   4.433   1.522  0.00  0.00    -0.226 N 
BRANCH  14  15
ATOM     15  C   UNL     1       5.364   4.049   0.552  0.00  0.00    +0.059 C 
ATOM     16  C   UNL     1       5.606   5.205  -0.419  0.00  0.00    +0.036 C 
ATOM     17  C   UNL     1       6.663   3.721   1.291  0.00  0.00    +0.036 C 
ATOM     18  C   UNL     1       4.896   2.818  -0.227  0.00  0.00    +0.036 C 
ENDBRANCH  14  15
ENDBRANCH   9  10
BRANCH   9  19
ATOM     19  C   UNL     1       2.728   6.669  -0.483  0.00  0.00    -0.008 C 
BRANCH  19  21
ATOM     20  C   UNL     1       2.582   8.357  -2.319  0.00  0.00    +0.004 C 
ATOM     21  C   UNL     1       2.286   6.908  -1.928  0.00  0.00    -0.005 C 
ENDBRANCH  19  21
ENDBRANCH   9  19
ENDBRANCH   1   9
BRANCH   1  22
ATOM     22  C   UNL     1       0.432   5.439   1.023  0.00  0.00    -0.036 C 
BRANCH  22  23
ATOM     23  C   UNL     1      -1.044   5.540   0.740  0.00  0.00    +0.001 A 
ATOM     24  C   UNL     1      -1.900   4.636   1.281  0.00  0.00    +0.017 A 
ATOM     25  C   UNL     1      -3.328   4.764   0.993  0.00  0.00    +0.002 A 
ATOM     26  C   UNL     1      -4.257   3.862   1.527  0.00  0.00    +0.059 A 
ATOM     27  C   UNL     1      -5.595   4.007   1.234  0.00  0.00    +0.167 A 
ATOM     28  C   UNL     1      -6.027   5.050   0.406  0.00  0.00    +0.168 A 
ATOM     29  C   UNL     1      -5.117   5.944  -0.127  0.00  0.00    +0.075 A 
ATOM     30  C   UNL     1      -3.764   5.812   0.158  0.00  0.00    +0.053 A 
ATOM     31  N   UNL     1      -2.841   6.694  -0.365  0.00  0.00    -0.322 N 
ATOM     32  H   UNL     1      -3.142   7.415  -0.941  0.00  0.00    +0.169 HD
ATOM     33  C   UNL     1      -1.531   6.570  -0.090  0.00  0.00    +0.251 A 
ATOM     34  O   UNL     1      -0.744   7.367  -0.570  0.00  0.00    -0.268 OA
ATOM     35  O   UNL     1      -7.384   4.968   0.280  0.00  0.00    -0.453 OA
ATOM     36  C   UNL     1      -7.821   4.123   1.360  0.00  0.00    +0.466 C 
ATOM     37  O   UNL     1      -6.684   3.279   1.620  0.00  0.00    -0.453 OA
ENDBRANCH  22  23
ENDBRANCH   1  22
TORSDOF 8
