REMARK  Name = ZINC63576365
REMARK  9 active torsions:
REMARK  status: ('A' for Active; 'I' for Inactive)
REMARK    1  A    between atoms: C_1  and  C_2
REMARK    2  A    between atoms: C_2  and  O_3
REMARK    3  A    between atoms: O_3  and  C_4
REMARK    4  A    between atoms: C_4  and  C_6
REMARK    5  A    between atoms: C_7  and  C_35
REMARK    6  A    between atoms: C_14  and  N_15
REMARK    7  A    between atoms: N_15  and  C_16
REMARK    8  A    between atoms: C_16  and  C_17
REMARK    9  A    between atoms: C_17  and  C_18
REMARK                            x       y       z     vdW  Elec       q    Type
REMARK                         _______ _______ _______ _____ _____    ______ ____
ROOT
ATOM      1  C   UNL     1       1.372  -2.582  -2.407  0.00  0.00    +0.085 C 
ATOM      2  C   UNL     1       1.539  -3.891  -2.752  0.00  0.00    +0.106 C 
ATOM      3  O   UNL     1       2.245  -4.025  -3.917  0.00  0.00    -0.487 OA
ATOM      4  C   UNL     1       1.965  -2.840  -4.647  0.00  0.00    +0.216 C 
ATOM      5  C   UNL     1       2.066  -1.806  -3.486  0.00  0.00    +0.109 C 
ATOM      6  C   UNL     1       1.450  -0.540  -3.976  0.00  0.00    +0.025 C 
ATOM      7  C   UNL     1       0.592   0.185  -3.224  0.00  0.00    +0.075 C 
ATOM      8  C   UNL     1       1.830  -0.145  -5.301  0.00  0.00    +0.191 C 
ATOM      9  O   UNL     1       1.375   0.865  -5.808  0.00  0.00    -0.287 OA
ATOM     10  C   UNL     1       2.795  -1.002  -6.038  0.00  0.00    +0.029 A 
ATOM     11  C   UNL     1       2.876  -2.372  -5.719  0.00  0.00    +0.004 A 
ATOM     12  C   UNL     1       3.749  -3.186  -6.394  0.00  0.00    +0.008 A 
ATOM     13  C   UNL     1       4.569  -2.658  -7.378  0.00  0.00    +0.000 A 
ATOM     14  C   UNL     1       4.514  -1.310  -7.685  0.00  0.00    +0.001 A 
ATOM     15  C   UNL     1       3.619  -0.480  -7.027  0.00  0.00    +0.012 A 
ATOM     16  C   UNL     1       1.012  -5.051  -1.946  0.00  0.00    +0.086 C 
ENDROOT
BRANCH   1  17
ATOM     17  C   UNL     1       0.688  -2.068  -1.280  0.00  0.00    +0.339 C 
ATOM     18  O   UNL     1       1.314  -1.698  -0.304  0.00  0.00    -0.245 OA
BRANCH  17  19
ATOM     19  O   UNL     1      -0.659  -1.989  -1.286  0.00  0.00    -0.462 OA
BRANCH  19  21
ATOM     20  C   UNL     1      -2.799  -1.473  -0.288  0.00  0.00    +0.048 C 
ATOM     21  C   UNL     1      -1.278  -1.360  -0.162  0.00  0.00    +0.229 C 
ENDBRANCH  19  21
ENDBRANCH  17  19
ENDBRANCH   1  17
BRANCH   7  22
ATOM     22  N   UNL     1      -0.058   1.255  -3.768  0.00  0.00    -0.349 N 
ATOM     23  H   UNL     1       0.032   1.446  -4.715  0.00  0.00    +0.146 HD
BRANCH  22  24
ATOM     24  C   UNL     1      -0.891   2.114  -2.923  0.00  0.00    +0.105 C 
BRANCH  24  25
ATOM     25  C   UNL     1      -1.598   3.154  -3.794  0.00  0.00    +0.052 C 
BRANCH  25  26
ATOM     26  C   UNL     1      -2.455   4.038  -2.925  0.00  0.00    -0.040 C 
ATOM     27  C   UNL     1      -2.117   5.240  -2.405  0.00  0.00    -0.001 A 
ATOM     28  C   UNL     1      -0.897   6.053  -2.489  0.00  0.00    +0.010 A 
ATOM     29  C   UNL     1      -0.856   7.242  -1.846  0.00  0.00    +0.001 A 
ATOM     30  C   UNL     1      -1.945   7.716  -1.102  0.00  0.00    +0.002 A 
ATOM     31  C   UNL     1      -3.099   7.027  -0.978  0.00  0.00    +0.026 A 
ATOM     32  C   UNL     1      -3.253   5.764  -1.614  0.00  0.00    +0.043 A 
ATOM     33  N   UNL     1      -4.255   4.918  -1.643  0.00  0.00    -0.380 N 
ATOM     34  C   UNL     1      -3.868   3.764  -2.463  0.00  0.00    +0.144 C 
ATOM     35  H   UNL     1      -5.110   5.037  -1.201  0.00  0.00    +0.160 HD
ENDBRANCH  25  26
ENDBRANCH  24  25
ENDBRANCH  22  24
ENDBRANCH   7  22
TORSDOF 7
