REMARK  Name = ZINC64188077
REMARK  4 active torsions:
REMARK  status: ('A' for Active; 'I' for Inactive)
REMARK    1  A    between atoms: C_8  and  C_25
REMARK    2  A    between atoms: N_10  and  C_11
REMARK    3  A    between atoms: C_11  and  C_12
REMARK    4  A    between atoms: N_14  and  C_15
REMARK                            x       y       z     vdW  Elec       q    Type
REMARK                         _______ _______ _______ _____ _____    ______ ____
ROOT
ATOM      1  C   UNL     1       4.913  -0.501  -0.050  0.00  0.00    +0.203 C 
ENDROOT
BRANCH   1  10
ATOM      2  C   UNL     1      -0.009   1.386  -0.013  0.00  0.00    +0.002 A 
ATOM      3  C   UNL     1       1.179   2.093  -0.024  0.00  0.00    +0.002 A 
ATOM      4  C   UNL     1       2.386   1.420  -0.032  0.00  0.00    +0.025 A 
ATOM      5  C   UNL     1       2.410   0.031  -0.030  0.00  0.00    +0.053 A 
ATOM      6  C   UNL     1       1.214  -0.681  -0.020  0.00  0.00    +0.050 A 
ATOM      7  C   UNL     1       0.005   0.004  -0.011  0.00  0.00    +0.025 A 
ATOM      8  N   UNL     1       1.481  -2.057  -0.020  0.00  0.00    -0.317 N 
ATOM      9  C   UNL     1       2.940  -2.220  -0.032  0.00  0.00    +0.266 C 
ATOM     10  N   UNL     1       3.493  -0.860  -0.038  0.00  0.00    -0.294 N 
ATOM     11  H   UNL     1       0.823  -2.770  -0.013  0.00  0.00    +0.148 HD
BRANCH   9  12
ATOM     12  C   UNL     1       3.377  -2.975  -1.288  0.00  0.00    +0.424 C 
ATOM     13  F   UNL     1       2.958  -2.274  -2.424  0.00  0.00    -0.167 F 
ATOM     14  F   UNL     1       4.771  -3.093  -1.301  0.00  0.00    -0.167 F 
ATOM     15  F   UNL     1       2.801  -4.250  -1.290  0.00  0.00    -0.167 F 
ENDBRANCH   9  12
ENDBRANCH   1  10
BRANCH   1  16
ATOM     16  C   UNL     1       5.411  -0.377   1.367  0.00  0.00    +0.235 C 
ATOM     17  O   UNL     1       4.655  -0.569   2.295  0.00  0.00    -0.274 OA
ATOM     18  N   UNL     1       6.698  -0.051   1.603  0.00  0.00    -0.284 N 
ATOM     19  H   UNL     1       7.319   0.037   0.863  0.00  0.00    +0.155 HD
BRANCH  18  20
ATOM     20  C   UNL     1       7.138   0.159   2.916  0.00  0.00    +0.034 A 
ATOM     21  C   UNL     1       6.609  -0.606   3.957  0.00  0.00    +0.025 A 
ATOM     22  C   UNL     1       7.024  -0.418   5.243  0.00  0.00    +0.029 A 
ATOM     23  C   UNL     1       7.987   0.547   5.531  0.00  0.00    +0.066 A 
ATOM     24  C   UNL     1       8.527   1.325   4.489  0.00  0.00    +0.021 A 
ATOM     25  C   UNL     1       8.097   1.118   3.174  0.00  0.00    +0.035 A 
ATOM     26  C   UNL     1       9.492   2.228   5.109  0.00  0.00    +0.142 A 
ATOM     27  N   UNL     1       9.500   1.985   6.389  0.00  0.00    -0.181 NA
ATOM     28  N   UNL     1       8.593   0.964   6.689  0.00  0.00    -0.277 N 
ATOM     29  H   UNL     1       8.421   0.607   7.575  0.00  0.00    +0.189 HD
ENDBRANCH  18  20
ENDBRANCH   1  16
TORSDOF 4
