REMARK  Name = ZINC04786306
REMARK  8 active torsions:
REMARK  status: ('A' for Active; 'I' for Inactive)
REMARK    1  A    between atoms: C_1  and  C_2
REMARK    2  A    between atoms: C_2  and  N_3
REMARK    3  A    between atoms: C_10  and  C_22
REMARK    4  A    between atoms: C_12  and  C_18
REMARK    5  A    between atoms: C_12  and  C_20
REMARK    6  A    between atoms: C_13  and  N_17
REMARK    7  A    between atoms: C_14  and  C_15
REMARK    8  A    between atoms: C_27  and  N_28
REMARK                            x       y       z     vdW  Elec       q    Type
REMARK                         _______ _______ _______ _____ _____    ______ ____
ROOT
ATOM      1  N   UNL     1      -0.512   1.917  -1.041  0.00  0.00    -0.298 NA
ATOM      2  C   UNL     1      -0.771   1.520  -2.436  0.00  0.00    +0.112 C 
ATOM      3  C   UNL     1       0.556   1.472  -3.152  0.00  0.00    -0.007 C 
ATOM      4  C   UNL     1       1.650   1.128  -2.498  0.00  0.00    -0.026 C 
ATOM      5  C   UNL     1       1.645   0.719  -1.053  0.00  0.00    +0.044 C 
ATOM      6  C   UNL     1       0.305   0.921  -0.382  0.00  0.00    +0.093 C 
ATOM      7  C   UNL     1       2.762   1.482  -0.339  0.00  0.00    +0.070 C 
ATOM      8  C   UNL     1       4.107   1.071  -0.939  0.00  0.00    +0.188 C 
ATOM      9  C   UNL     1       4.102   1.173  -2.435  0.00  0.00    +0.054 C 
ATOM     10  C   UNL     1       2.967   1.190  -3.180  0.00  0.00    +0.074 C 
ENDROOT
BRANCH   7  11
ATOM     11  C   UNL     1       2.742   1.146   1.131  0.00  0.00    -0.011 A 
ATOM     12  C   UNL     1       2.750  -0.175   1.538  0.00  0.00    +0.007 A 
ATOM     13  C   UNL     1       2.737  -0.483   2.885  0.00  0.00    +0.020 A 
ATOM     14  C   UNL     1       2.705   0.531   3.826  0.00  0.00    +0.043 A 
ATOM     15  C   UNL     1       2.692   1.853   3.418  0.00  0.00    +0.053 A 
ATOM     16  C   UNL     1       2.711   2.160   2.070  0.00  0.00    +0.131 A 
ATOM     17 CL   UNL     1       2.682   0.145   5.518  0.00  0.00    -0.083 Cl
BRANCH  16  18
ATOM     18  N   UNL     1       2.697   3.574   1.633  0.00  0.00    +0.057 N 
ATOM     19  O   UNL     1       3.305   4.414   2.271  0.00  0.00    -0.126 OA
ATOM     20  O   UNL     1       2.078   3.897   0.635  0.00  0.00    -0.126 OA
ENDBRANCH  16  18
ENDBRANCH   7  11
BRANCH   9  21
ATOM     21  N   UNL     1       5.303   1.254  -3.082  0.00  0.00    -0.358 N 
ATOM     22  H   UNL     1       5.332   1.330  -4.179  0.00  0.00    +0.142 HD
ATOM     23  H   UNL     1       6.240   1.242  -2.506  0.00  0.00    +0.142 HD
ENDBRANCH   9  21
BRANCH   1  25
ATOM     24  C   UNL     1      -2.495   3.348  -0.910  0.00  0.00    +0.020 C 
ATOM     25  C   UNL     1      -1.770   2.139  -0.316  0.00  0.00    +0.081 C 
ENDBRANCH   1  25
BRANCH  10  26
ATOM     26  C   UNL     1       3.041   1.266  -4.608  0.00  0.00    +0.101 C 
ATOM     27  N   UNL     1       3.099   1.326  -5.741  0.00  0.00    -0.191 NA
ENDBRANCH  10  26
BRANCH   8  28
ATOM     28  C   UNL     1       5.160   1.947  -0.402  0.00  0.00    +0.091 C 
ATOM     29  N   UNL     1       5.973   2.623   0.013  0.00  0.00    -0.194 NA
ENDBRANCH   8  28
BRANCH   8  30
ATOM     30  C   UNL     1       4.399  -0.320  -0.555  0.00  0.00    +0.091 C 
ATOM     31  N   UNL     1       4.625  -1.393  -0.258  0.00  0.00    -0.194 NA
ENDBRANCH   8  30
TORSDOF 7
