REMARK  Name = ZINC58481934
REMARK  9 active torsions:
REMARK  status: ('A' for Active; 'I' for Inactive)
REMARK    1  A    between atoms: C_1  and  C_2
REMARK    2  A    between atoms: C_2  and  C_3
REMARK    3  A    between atoms: C_2  and  C_4
REMARK    4  A    between atoms: C_2  and  O_5
REMARK    5  A    between atoms: O_5  and  C_6
REMARK    6  A    between atoms: C_12  and  C_15
REMARK    7  A    between atoms: N_17  and  C_18
REMARK    8  A    between atoms: C_20  and  C_29
REMARK    9  A    between atoms: N_22  and  C_23
REMARK                            x       y       z     vdW  Elec       q    Type
REMARK                         _______ _______ _______ _____ _____    ______ ____
ROOT
ATOM      1  C   UNL     1       5.639   0.868  -4.257  0.00  0.00    +0.223 C 
ATOM      2  O   UNL     1       6.196   0.366  -5.210  0.00  0.00    -0.275 OA
ATOM      3  N   UNL     1       6.318   1.694  -3.437  0.00  0.00    -0.270 N 
ATOM      4  H   UNL     1       5.872   2.095  -2.675  0.00  0.00    +0.156 HD
ENDROOT
BRANCH   1  11
ATOM      5  C   UNL     1       1.952  -0.085  -1.337  0.00  0.00    +0.403 C 
ATOM      6  O   UNL     1       2.488   0.619  -0.503  0.00  0.00    -0.226 OA
ATOM      7  N   UNL     1       2.641  -0.485  -2.424  0.00  0.00    -0.267 N 
ATOM      8  C   UNL     1       2.005  -1.331  -3.443  0.00  0.00    +0.111 C 
ATOM      9  C   UNL     1       2.172  -0.664  -4.812  0.00  0.00    +0.020 C 
ATOM     10  C   UNL     1       3.656  -0.387  -5.062  0.00  0.00    +0.016 C 
ATOM     11  C   UNL     1       4.186   0.570  -3.991  0.00  0.00    +0.093 C 
ATOM     12  C   UNL     1       4.040  -0.078  -2.616  0.00  0.00    +0.123 C 
BRANCH   5  13
ATOM     13  O   UNL     1       0.671  -0.465  -1.174  0.00  0.00    -0.445 OA
BRANCH  13  15
ATOM     14  C   UNL     1      -0.019   1.526   0.010  0.00  0.00    +0.055 C 
ATOM     15  C   UNL     1       0.002  -0.004   0.002  0.00  0.00    +0.107 C 
ATOM     16  C   UNL     1       0.742  -0.511   1.242  0.00  0.00    +0.055 C 
ATOM     17  C   UNL     1      -1.433  -0.534   0.013  0.00  0.00    +0.055 C 
ENDBRANCH  13  15
ENDBRANCH   5  13
ENDBRANCH   1  11
BRANCH   3  18
ATOM     18  C   UNL     1       7.663   1.970  -3.683  0.00  0.00    +0.129 A 
ATOM     19  C   UNL     1       8.409   1.484  -4.712  0.00  0.00    +0.069 A 
ATOM     20  C   UNL     1       9.700   2.006  -4.590  0.00  0.00    +0.068 A 
ATOM     21  N   UNL     1       9.738   2.777  -3.533  0.00  0.00    -0.169 NA
ATOM     22  N   UNL     1       8.467   2.780  -2.942  0.00  0.00    -0.218 N 
BRANCH  22  23
ATOM     23  C   UNL     1       8.093   3.488  -1.792  0.00  0.00    +0.067 A 
ATOM     24  C   UNL     1       6.811   4.010  -1.683  0.00  0.00    +0.028 A 
ATOM     25  C   UNL     1       6.445   4.707  -0.548  0.00  0.00    +0.002 A 
ATOM     26  C   UNL     1       7.353   4.885   0.479  0.00  0.00    +0.000 A 
ATOM     27  C   UNL     1       8.631   4.367   0.373  0.00  0.00    +0.002 A 
ATOM     28  C   UNL     1       9.001   3.663  -0.756  0.00  0.00    +0.028 A 
ENDBRANCH  22  23
BRANCH  20  29
ATOM     29  C   UNL     1      10.854   1.729  -5.518  0.00  0.00    +0.040 C 
ATOM     30  C   UNL     1      10.732   0.526  -6.457  0.00  0.00    +0.010 C 
ATOM     31  C   UNL     1      11.682   0.469  -5.259  0.00  0.00    +0.010 C 
ENDBRANCH  20  29
ENDBRANCH   3  18
TORSDOF 6
