REMARK  Name = ZINC14242416
REMARK  9 active torsions:
REMARK  status: ('A' for Active; 'I' for Inactive)
REMARK    1  A    between atoms: C_1  and  C_2
REMARK    2  A    between atoms: C_2  and  C_4
REMARK    3  A    between atoms: C_2  and  N_29
REMARK    4  A    between atoms: N_6  and  C_7
REMARK    5  A    between atoms: C_10  and  S_13
REMARK    6  A    between atoms: S_13  and  N_16
REMARK    7  A    between atoms: C_19  and  C_22
REMARK    8  A    between atoms: C_22  and  C_23
REMARK    9  A    between atoms: C_30  and  C_32
REMARK                            x       y       z     vdW  Elec       q    Type
REMARK                         _______ _______ _______ _____ _____    ______ ____
ROOT
ATOM      1  C   UNL     1      -3.772  -4.447   1.366  0.00  0.00    +0.034 A 
ATOM      2  C   UNL     1      -4.709  -3.524   1.811  0.00  0.00    +0.025 A 
ATOM      3  C   UNL     1      -5.853  -3.959   2.453  0.00  0.00    +0.030 A 
ATOM      4  C   UNL     1      -6.058  -5.310   2.663  0.00  0.00    +0.106 A 
ATOM      5  C   UNL     1      -5.124  -6.231   2.225  0.00  0.00    +0.030 A 
ATOM      6  C   UNL     1      -3.981  -5.803   1.578  0.00  0.00    +0.025 A 
ENDROOT
BRANCH   1   9
ATOM      7  C   UNL     1      -2.658  -2.915  -0.074  0.00  0.00    +0.237 C 
ATOM      8  O   UNL     1      -3.717  -2.363  -0.288  0.00  0.00    -0.273 OA
ATOM      9  N   UNL     1      -2.615  -4.010   0.710  0.00  0.00    -0.284 N 
ATOM     10  H   UNL     1      -1.783  -4.496   0.820  0.00  0.00    +0.155 HD
BRANCH   7  12
ATOM     11  C   UNL     1      -0.759  -3.445  -1.579  0.00  0.00    +0.038 C 
ATOM     12  C   UNL     1      -1.390  -2.376  -0.685  0.00  0.00    +0.156 C 
BRANCH  12  13
ATOM     13  N   UNL     1      -1.701  -1.190  -1.488  0.00  0.00    -0.298 N 
ATOM     14  C   UNL     1      -0.751  -0.260  -1.711  0.00  0.00    +0.280 C 
ATOM     15  O   UNL     1       0.364  -0.405  -1.246  0.00  0.00    -0.267 OA
ATOM     16  H   UNL     1      -2.590  -1.075  -1.858  0.00  0.00    +0.150 HD
BRANCH  14  17
ATOM     17  C   UNL     1      -1.062   0.927  -2.514  0.00  0.00    +0.189 A 
ATOM     18  C   UNL     1      -0.199   1.941  -2.816  0.00  0.00    +0.054 A 
ATOM     19  C   UNL     1      -0.913   2.860  -3.599  0.00  0.00    +0.042 A 
ATOM     20  C   UNL     1      -2.166   2.374  -3.740  0.00  0.00    +0.196 A 
ATOM     21  O   UNL     1      -2.250   1.206  -3.090  0.00  0.00    -0.458 OA
ENDBRANCH  14  17
ENDBRANCH  12  13
ENDBRANCH   7  12
ENDBRANCH   1   9
BRANCH   4  22
ATOM     22  S   UNL     1      -7.514  -5.859   3.489  0.00  0.00    +0.061 S 
ATOM     23  O   UNL     1      -8.489  -4.841   3.314  0.00  0.00    -0.153 OA
ATOM     24  O   UNL     1      -7.732  -7.202   3.078  0.00  0.00    -0.153 OA
BRANCH  22  25
ATOM     25  N   UNL     1      -7.169  -5.911   5.108  0.00  0.00    -0.177 NA
ATOM     26  C   UNL     1      -6.634  -7.135   5.721  0.00  0.00    +0.110 C 
ATOM     27  C   UNL     1      -5.341  -6.780   6.471  0.00  0.00    +0.021 C 
ATOM     28  C   UNL     1      -5.628  -5.653   7.466  0.00  0.00    -0.004 C 
ATOM     29  C   UNL     1      -6.100  -4.410   6.708  0.00  0.00    +0.021 C 
ATOM     30  C   UNL     1      -7.397  -4.736   5.960  0.00  0.00    +0.110 C 
BRANCH  28  31
ATOM     31  C   UNL     1      -4.351  -5.322   8.242  0.00  0.00    +0.038 C 
BRANCH  31  32
ATOM     32  C   UNL     1      -3.954  -6.507   9.084  0.00  0.00    -0.047 A 
ATOM     33  C   UNL     1      -4.427  -6.627  10.377  0.00  0.00    +0.003 A 
ATOM     34  C   UNL     1      -4.066  -7.716  11.148  0.00  0.00    +0.000 A 
ATOM     35  C   UNL     1      -3.224  -8.681  10.628  0.00  0.00    +0.000 A 
ATOM     36  C   UNL     1      -2.747  -8.560   9.337  0.00  0.00    +0.000 A 
ATOM     37  C   UNL     1      -3.111  -7.473   8.565  0.00  0.00    +0.003 A 
ENDBRANCH  31  32
ENDBRANCH  28  31
ENDBRANCH  22  25
ENDBRANCH   4  22
TORSDOF 8
