REMARK  Name = ZINC62892003
REMARK  6 active torsions:
REMARK  status: ('A' for Active; 'I' for Inactive)
REMARK    1  A    between atoms: C_1  and  C_2
REMARK    2  A    between atoms: C_2  and  C_3
REMARK    3  A    between atoms: C_3  and  C_8
REMARK    4  A    between atoms: N_10  and  C_11
REMARK    5  A    between atoms: C_11  and  C_13
REMARK    6  A    between atoms: C_11  and  C_14
REMARK                            x       y       z     vdW  Elec       q    Type
REMARK                         _______ _______ _______ _____ _____    ______ ____
ROOT
ATOM      1  C   UNL     1       2.055  -0.055   1.423  0.00  0.00    +0.218 C 
ATOM      2  O   UNL     1       3.019  -0.787   1.336  0.00  0.00    -0.275 OA
ATOM      3  N   UNL     1       2.227   1.256   1.683  0.00  0.00    -0.308 N 
ATOM      4  H   UNL     1       1.463   1.855   1.680  0.00  0.00    +0.149 HD
ENDROOT
BRANCH   1   5
ATOM      5  C   UNL     1       0.667  -0.612   1.239  0.00  0.00    +0.030 C 
ATOM      6  C   UNL     1      -0.193  -0.383   2.509  0.00  0.00    -0.005 C 
ATOM      7  C   UNL     1       0.240  -1.575   3.399  0.00  0.00    -0.082 C 
ATOM      8  N   UNL     1       0.427  -2.700   2.458  0.00  0.00    +0.380 N 
ATOM      9  C   UNL     1       0.708  -2.150   1.119  0.00  0.00    -0.067 C 
ATOM     10  H   UNL     1       1.202  -3.270   2.761  0.00  0.00    -0.086 HD
ATOM     11  H   UNL     1      -0.412  -3.259   2.427  0.00  0.00    -0.086 HD
BRANCH   5  13
ATOM     12  C   UNL     1       0.826  -0.302  -1.235  0.00  0.00    +0.005 C 
ATOM     13  C   UNL     1      -0.004   0.008   0.012  0.00  0.00    +0.011 C 
ENDBRANCH   5  13
ENDBRANCH   1   5
BRANCH   3  14
ATOM     14  C   UNL     1       3.565   1.777   1.970  0.00  0.00    +0.101 C 
ATOM     15  C   UNL     1       3.877   1.592   3.456  0.00  0.00    +0.033 C 
BRANCH  14  16
ATOM     16  C   UNL     1       3.618   3.243   1.625  0.00  0.00    -0.014 A 
ATOM     17  C   UNL     1       2.459   3.997   1.629  0.00  0.00    +0.006 A 
ATOM     18  C   UNL     1       2.508   5.341   1.312  0.00  0.00    +0.000 A 
ATOM     19  C   UNL     1       3.716   5.933   0.992  0.00  0.00    +0.001 A 
ATOM     20  C   UNL     1       4.875   5.181   0.988  0.00  0.00    +0.015 A 
ATOM     21  C   UNL     1       4.827   3.836   1.309  0.00  0.00    +0.023 A 
ATOM     22 BR   UNL     1       6.414   2.807   1.310  0.00  0.00    -0.050 Br
ENDBRANCH  14  16
ENDBRANCH   3  14
TORSDOF 4
