REMARK  Name = ZINC20672696
REMARK  6 active torsions:
REMARK  status: ('A' for Active; 'I' for Inactive)
REMARK    1  A    between atoms: C_1  and  C_2
REMARK    2  A    between atoms: C_2  and  C_3
REMARK    3  A    between atoms: C_4  and  C_23
REMARK    4  A    between atoms: C_8  and  C_13
REMARK    5  A    between atoms: C_9  and  C_12
REMARK    6  A    between atoms: N_15  and  C_16
REMARK                            x       y       z     vdW  Elec       q    Type
REMARK                         _______ _______ _______ _____ _____    ______ ____
ROOT
ATOM      1  C   UNL     1       2.376   3.239   1.063  0.00  0.00    +0.073 A 
ATOM      2  C   UNL     1       1.025   3.042   0.750  0.00  0.00    +0.051 A 
ATOM      3  C   UNL     1       0.872   1.698   0.400  0.00  0.00    +0.186 A 
ATOM      4  N   UNL     1      -0.180   0.966   0.018  0.00  0.00    -0.128 NA
ATOM      5  N   UNL     1      -0.060  -0.285  -0.256  0.00  0.00    -0.141 NA
ATOM      6  C   UNL     1       1.128  -0.911  -0.172  0.00  0.00    +0.169 A 
ATOM      7  C   UNL     1       2.249  -0.206   0.217  0.00  0.00    +0.074 A 
ATOM      8  N   UNL     1       2.115   1.118   0.506  0.00  0.00    -0.214 N 
ATOM      9  N   UNL     1       3.016   2.103   0.918  0.00  0.00    -0.169 NA
ATOM     10  C   UNL     1       3.590  -0.886   0.318  0.00  0.00    +0.068 C 
ENDROOT
BRANCH   2  11
ATOM     11  C   UNL     1      -0.043   4.068   0.785  0.00  0.00    -0.012 A 
ATOM     12  C   UNL     1       0.001   5.154  -0.089  0.00  0.00    +0.010 A 
ATOM     13  C   UNL     1      -1.000   6.103  -0.057  0.00  0.00    +0.020 A 
ATOM     14  C   UNL     1      -2.040   5.986   0.850  0.00  0.00    +0.041 A 
ATOM     15  C   UNL     1      -2.085   4.913   1.724  0.00  0.00    +0.020 A 
ATOM     16  C   UNL     1      -1.093   3.955   1.696  0.00  0.00    +0.010 A 
ATOM     17 CL   UNL     1      -3.291   7.188   0.890  0.00  0.00    -0.084 Cl
ENDBRANCH   2  11
BRANCH   6  18
ATOM     18  C   UNL     1       1.231  -2.348  -0.493  0.00  0.00    +0.270 C 
ATOM     19  O   UNL     1       2.321  -2.885  -0.532  0.00  0.00    -0.268 OA
ATOM     20  N   UNL     1       0.117  -3.064  -0.744  0.00  0.00    -0.279 N 
ATOM     21  H   UNL     1      -0.861  -2.563  -0.787  0.00  0.00    +0.155 HD
BRANCH  20  22
ATOM     22  C   UNL     1       0.205  -4.445  -0.948  0.00  0.00    +0.052 A 
ATOM     23  C   UNL     1       1.322  -5.144  -0.508  0.00  0.00    +0.025 A 
ATOM     24  C   UNL     1       1.404  -6.509  -0.708  0.00  0.00    +0.002 A 
ATOM     25  C   UNL     1       0.380  -7.178  -1.355  0.00  0.00    +0.002 A 
ATOM     26  C   UNL     1      -0.731  -6.485  -1.799  0.00  0.00    +0.022 A 
ATOM     27  C   UNL     1      -0.821  -5.120  -1.598  0.00  0.00    +0.062 A 
ATOM     28 CL   UNL     1      -2.216  -4.250  -2.157  0.00  0.00    -0.082 Cl
ENDBRANCH  20  22
ENDBRANCH   6  18
BRANCH   1  30
ATOM     29  C   UNL     1       2.932   4.657   3.020  0.00  0.00    +0.010 C 
ATOM     30  C   UNL     1       2.994   4.544   1.495  0.00  0.00    +0.054 C 
ENDBRANCH   1  30
TORSDOF 4
