REMARK  Name = ZINC35586425
REMARK  2 active torsions:
REMARK  status: ('A' for Active; 'I' for Inactive)
REMARK    1  A    between atoms: C_3  and  C_6
REMARK    2  A    between atoms: C_12  and  C_14
REMARK                            x       y       z     vdW  Elec       q    Type
REMARK                         _______ _______ _______ _____ _____    ______ ____
ROOT
ATOM      1  C   UNL     1       3.560   0.619  -0.029  0.00  0.00    +0.287 C 
ATOM      2  O   UNL     1       4.194   1.658  -0.029  0.00  0.00    -0.266 OA
ATOM      3  N   UNL     1       4.206  -0.564  -0.041  0.00  0.00    -0.232 N 
ATOM      4  C   UNL     1       5.591  -0.598  -0.054  0.00  0.00    +0.315 A 
ATOM      5  N   UNL     1       6.391   0.439  -0.051  0.00  0.00    -0.092 NA
ATOM      6  N   UNL     1       7.614   0.039  -0.067  0.00  0.00    -0.106 NA
ATOM      7  C   UNL     1       7.642  -1.273  -0.081  0.00  0.00    +0.252 A 
ATOM      8  O   UNL     1       6.362  -1.703  -0.068  0.00  0.00    -0.405 OA
ATOM      9  H   UNL     1       3.700  -1.392  -0.041  0.00  0.00    +0.160 HD
ENDROOT
BRANCH   7  10
ATOM     10  C   UNL     1       8.850  -2.122  -0.102  0.00  0.00    +0.065 A 
ATOM     11  C   UNL     1      10.168  -1.544  -0.102  0.00  0.00    +0.042 A 
ATOM     12  C   UNL     1      11.230  -2.377  -0.121  0.00  0.00    +0.080 A 
ATOM     13  S   UNL     1      10.469  -3.989  -0.140  0.00  0.00    -0.064 S 
ATOM     14  C   UNL     1       8.757  -3.488  -0.116  0.00  0.00    +0.092 A 
ATOM     15 CL   UNL     1       7.334  -4.482  -0.112  0.00  0.00    -0.075 Cl
ATOM     16 CL   UNL     1      12.919  -1.978  -0.127  0.00  0.00    -0.076 Cl
ENDBRANCH   7  10
BRANCH   1  19
ATOM     17  C   UNL     1      -0.016   1.347   0.009  0.00  0.00    +0.042 A 
ATOM     18  C   UNL     1       1.319   1.778  -0.001  0.00  0.00    +0.054 A 
ATOM     19  C   UNL     1       2.095   0.654  -0.014  0.00  0.00    +0.189 A 
ATOM     20  O   UNL     1       1.276  -0.418  -0.012  0.00  0.00    -0.458 OA
ATOM     21  C   UNL     1       0.002  -0.004   0.002  0.00  0.00    +0.196 A 
ENDBRANCH   1  19
TORSDOF 2
