REMARK  Name = ZINC63806819
REMARK  11 active torsions:
REMARK  status: ('A' for Active; 'I' for Inactive)
REMARK    1  A    between atoms: C_1  and  C_2
REMARK    2  A    between atoms: C_3  and  S_8
REMARK    3  A    between atoms: C_4  and  C_7
REMARK    4  A    between atoms: S_8  and  N_11
REMARK    5  A    between atoms: N_11  and  C_12
REMARK    6  A    between atoms: C_12  and  C_13
REMARK    7  A    between atoms: C_13  and  C_15
REMARK    8  A    between atoms: C_13  and  C_24
REMARK    9  A    between atoms: C_18  and  N_21
REMARK   10  A    between atoms: N_21  and  C_22
REMARK   11  A    between atoms: N_21  and  C_23
REMARK                            x       y       z     vdW  Elec       q    Type
REMARK                         _______ _______ _______ _____ _____    ______ ____
ROOT
ATOM      1  C   UNL     1       3.700  -0.905  -4.169  0.00  0.00    +0.063 C 
ENDROOT
BRANCH   1   2
ATOM      2  C   UNL     1       4.495   0.130  -3.415  0.00  0.00    -0.033 C 
ATOM      3  C   UNL     1       4.817   1.374  -3.838  0.00  0.00    -0.000 A 
ATOM      4  C   UNL     1       4.536   2.107  -5.079  0.00  0.00    +0.010 A 
ATOM      5  C   UNL     1       5.003   3.369  -5.215  0.00  0.00    +0.001 A 
ATOM      6  C   UNL     1       5.747   3.993  -4.205  0.00  0.00    +0.002 A 
ATOM      7  C   UNL     1       6.046   3.384  -3.037  0.00  0.00    +0.026 A 
ATOM      8  C   UNL     1       5.605   2.055  -2.786  0.00  0.00    +0.043 A 
ATOM      9  N   UNL     1       5.763   1.264  -1.753  0.00  0.00    -0.380 N 
ATOM     10  C   UNL     1       5.088  -0.009  -2.031  0.00  0.00    +0.145 C 
ATOM     11  H   UNL     1       6.243   1.484  -0.940  0.00  0.00    +0.160 HD
ENDBRANCH   1   2
BRANCH   1  12
ATOM     12  C   UNL     1       4.541  -2.140  -4.363  0.00  0.00    -0.039 A 
ATOM     13  C   UNL     1       5.021  -2.828  -3.264  0.00  0.00    +0.006 A 
ATOM     14  C   UNL     1       5.792  -3.961  -3.438  0.00  0.00    +0.023 A 
ATOM     15  C   UNL     1       6.085  -4.409  -4.720  0.00  0.00    +0.029 A 
ATOM     16  C   UNL     1       5.601  -3.715  -5.822  0.00  0.00    +0.023 A 
ATOM     17  C   UNL     1       4.826  -2.587  -5.641  0.00  0.00    +0.006 A 
BRANCH  15  18
ATOM     18  N   UNL     1       6.864  -5.553  -4.901  0.00  0.00    -0.336 N 
ATOM     19  C   UNL     1       7.374  -6.283  -3.737  0.00  0.00    +0.129 C 
ATOM     20  C   UNL     1       7.172  -6.024  -6.253  0.00  0.00    +0.129 C 
ENDBRANCH  15  18
ENDBRANCH   1  12
BRANCH   1  21
ATOM     21  C   UNL     1       2.444  -1.263  -3.371  0.00  0.00    +0.118 C 
BRANCH  21  22
ATOM     22  N   UNL     1       1.570  -0.091  -3.285  0.00  0.00    -0.189 NA
ATOM     23  H   UNL     1       1.915   0.789  -3.504  0.00  0.00    +0.148 HD
BRANCH  22  24
ATOM     24  S   UNL     1      -0.008  -0.267  -2.813  0.00  0.00    +0.064 S 
ATOM     25  O   UNL     1      -0.547  -1.328  -3.589  0.00  0.00    -0.153 OA
ATOM     26  O   UNL     1      -0.577   1.035  -2.802  0.00  0.00    -0.153 OA
BRANCH  24  29
ATOM     27  C   UNL     1      -0.018   1.503   0.010  0.00  0.00    +0.071 C 
ATOM     28  C   UNL     1       0.002  -0.004   0.002  0.00  0.00    +0.107 A 
ATOM     29  C   UNL     1       0.008  -0.824  -1.141  0.00  0.00    +0.169 A 
ATOM     30  C   UNL     1       0.027  -2.108  -0.735  0.00  0.00    +0.161 A 
ATOM     31  O   UNL     1       0.034  -2.119   0.606  0.00  0.00    -0.358 OA
ATOM     32  N   UNL     1       0.023  -0.775   1.052  0.00  0.00    -0.081 NA
ATOM     33  C   UNL     1       0.039  -3.320  -1.631  0.00  0.00    +0.091 C 
ENDBRANCH  24  29
ENDBRANCH  22  24
ENDBRANCH  21  22
ENDBRANCH   1  21
TORSDOF 7
