REMARK  Name = ZINC04730224
REMARK  10 active torsions:
REMARK  status: ('A' for Active; 'I' for Inactive)
REMARK    1  A    between atoms: C_1  and  C_2
REMARK    2  A    between atoms: C_2  and  C_3
REMARK    3  A    between atoms: C_3  and  N_4
REMARK    4  A    between atoms: C_5  and  C_7
REMARK    5  A    between atoms: C_7  and  N_8
REMARK    6  A    between atoms: C_15  and  C_32
REMARK    7  A    between atoms: C_16  and  C_18
REMARK    8  A    between atoms: N_20  and  C_21
REMARK    9  A    between atoms: C_26  and  C_31
REMARK   10  A    between atoms: C_28  and  C_30
REMARK                            x       y       z     vdW  Elec       q    Type
REMARK                         _______ _______ _______ _____ _____    ______ ____
ROOT
ATOM      1  N   UNL     1       4.463   0.057  -0.040  0.00  0.00    -0.290 N 
ATOM      2  C   UNL     1       3.866  -1.160  -0.041  0.00  0.00    +0.203 A 
ATOM      3  N   UNL     1       2.567  -1.291  -0.030  0.00  0.00    -0.230 NA
ATOM      4  C   UNL     1       1.762  -0.236  -0.016  0.00  0.00    +0.116 A 
ATOM      5  C   UNL     1       2.264   1.085  -0.014  0.00  0.00    +0.076 A 
ATOM      6  C   UNL     1       3.740   1.194  -0.027  0.00  0.00    +0.263 A 
ATOM      7  O   UNL     1       4.287   2.282  -0.027  0.00  0.00    -0.267 OA
ATOM      8  C   UNL     1       1.304   2.100   0.001  0.00  0.00    -0.017 A 
ATOM      9  C   UNL     1      -0.022   1.781   0.012  0.00  0.00    +0.079 A 
ATOM     10  S   UNL     1       0.002  -0.004   0.002  0.00  0.00    -0.064 S 
ATOM     11  C   UNL     1       1.733   3.545   0.004  0.00  0.00    +0.046 C 
ENDROOT
BRANCH   9  12
ATOM     12  C   UNL     1      -1.180   2.680   0.022  0.00  0.00    +0.251 C 
ATOM     13  O   UNL     1      -1.014   3.886   0.028  0.00  0.00    -0.270 OA
ATOM     14  N   UNL     1      -2.428   2.172   0.026  0.00  0.00    -0.308 N 
ATOM     15  H   UNL     1      -2.561   1.211   0.022  0.00  0.00    +0.149 HD
BRANCH  14  16
ATOM     16  C   UNL     1      -3.585   3.070   0.037  0.00  0.00    +0.076 C 
ATOM     17  C   UNL     1      -3.918   3.490  -1.396  0.00  0.00    +0.022 C 
ATOM     18  C   UNL     1      -5.127   4.428  -1.385  0.00  0.00    +0.002 C 
ATOM     19  C   UNL     1      -6.328   3.705  -0.773  0.00  0.00    +0.003 C 
ATOM     20  C   UNL     1      -5.995   3.286   0.661  0.00  0.00    -0.009 C 
ATOM     21  C   UNL     1      -4.787   2.348   0.649  0.00  0.00    +0.009 C 
ATOM     22  C   UNL     1      -4.454   1.928   2.083  0.00  0.00    +0.009 C 
ATOM     23  C   UNL     1      -7.197   2.563   1.273  0.00  0.00    +0.008 C 
ENDBRANCH  14  16
ENDBRANCH   9  12
BRANCH   1  24
ATOM     24  C   UNL     1       5.926   0.138  -0.054  0.00  0.00    +0.221 C 
BRANCH  24  26
ATOM     25  N   UNL     1       7.767   0.230   1.596  0.00  0.00    -0.314 N 
ATOM     26  C   UNL     1       6.441   0.158   1.362  0.00  0.00    +0.233 C 
ATOM     27  O   UNL     1       5.663   0.110   2.291  0.00  0.00    -0.274 OA
ATOM     28  H   UNL     1       8.389   0.268   0.853  0.00  0.00    +0.149 HD
BRANCH  25  29
ATOM     29  C   UNL     1       8.268   0.249   2.973  0.00  0.00    +0.104 C 
BRANCH  29  31
ATOM     30  C   UNL     1      10.318   0.354   4.396  0.00  0.00    +0.005 C 
ATOM     31  C   UNL     1       9.795   0.333   2.959  0.00  0.00    +0.015 C 
ENDBRANCH  29  31
ENDBRANCH  25  29
ENDBRANCH  24  26
ENDBRANCH   1  24
TORSDOF 6
