REMARK  Name = ZINC27189786
REMARK  6 active torsions:
REMARK  status: ('A' for Active; 'I' for Inactive)
REMARK    1  A    between atoms: C_3  and  C_17
REMARK    2  A    between atoms: C_6  and  C_7
REMARK    3  A    between atoms: C_10  and  C_13
REMARK    4  A    between atoms: N_15  and  O_16
REMARK    5  A    between atoms: C_21  and  C_26
REMARK    6  A    between atoms: N_27  and  O_28
REMARK                            x       y       z     vdW  Elec       q    Type
REMARK                         _______ _______ _______ _____ _____    ______ ____
ROOT
ATOM      1  C   UNL     1      -2.233   4.391   0.037  0.00  0.00    +0.009 A 
ATOM      2  C   UNL     1      -1.107   3.600   0.027  0.00  0.00    +0.010 A 
ATOM      3  C   UNL     1      -1.230   2.210   0.020  0.00  0.00    +0.002 A 
ATOM      4  C   UNL     1      -2.495   1.622   0.018  0.00  0.00    +0.010 A 
ATOM      5  C   UNL     1      -3.622   2.414   0.033  0.00  0.00    +0.009 A 
ATOM      6  C   UNL     1      -3.499   3.803   0.041  0.00  0.00    -0.018 A 
ENDROOT
BRANCH   3   7
ATOM      7  C   UNL     1      -0.016   1.358   0.009  0.00  0.00    +0.090 A 
ATOM      8  C   UNL     1       0.002  -0.004   0.002  0.00  0.00    +0.121 A 
ATOM      9  N   UNL     1       1.315  -0.387  -0.013  0.00  0.00    -0.305 N 
ATOM     10  C   UNL     1       1.911  -1.612  -0.025  0.00  0.00    +0.104 A 
ATOM     11  C   UNL     1       3.269  -1.721  -0.039  0.00  0.00    +0.034 A 
ATOM     12  C   UNL     1       4.072  -0.555  -0.041  0.00  0.00    +0.016 A 
ATOM     13  C   UNL     1       3.481   0.666  -0.028  0.00  0.00    +0.047 A 
ATOM     14  C   UNL     1       2.072   0.757  -0.014  0.00  0.00    +0.138 A 
ATOM     15  N   UNL     1       1.253   1.797  -0.000  0.00  0.00    -0.228 NA
BRANCH  11  16
ATOM     16  C   UNL     1       3.904  -3.057  -0.053  0.00  0.00    +0.164 C 
ATOM     17  N   UNL     1       3.166  -4.128  -0.052  0.00  0.00    -0.071 NA
ATOM     18  N   UNL     1       5.284  -3.167  -0.068  0.00  0.00    -0.340 N 
ATOM     19  H   UNL     1       5.757  -4.160  -0.078  0.00  0.00    +0.144 HD
ATOM     20  H   UNL     1       5.909  -2.261  -0.068  0.00  0.00    +0.144 HD
BRANCH  17  21
ATOM     21  O   UNL     1       3.774  -5.407  -0.066  0.00  0.00    -0.408 OA
ATOM     22  H   UNL     1       3.150  -6.313  -0.065  0.00  0.00    +0.328 HD
ENDBRANCH  17  21
ENDBRANCH  11  16
ENDBRANCH   3   7
BRANCH   6  23
ATOM     23  C   UNL     1      -4.712   4.655   0.052  0.00  0.00    -0.018 A 
ATOM     24  C   UNL     1      -4.588   6.045   0.066  0.00  0.00    +0.009 A 
ATOM     25  C   UNL     1      -5.715   6.836   0.071  0.00  0.00    +0.012 A 
ATOM     26  C   UNL     1      -6.981   6.248   0.074  0.00  0.00    +0.017 A 
ATOM     27  C   UNL     1      -7.104   4.857   0.067  0.00  0.00    +0.012 A 
ATOM     28  C   UNL     1      -5.977   4.067   0.055  0.00  0.00    +0.009 A 
BRANCH  26  29
ATOM     29  C   UNL     1      -8.192   7.098   0.087  0.00  0.00    +0.129 C 
ATOM     30  N   UNL     1      -9.373   6.549   0.091  0.00  0.00    -0.383 N 
ATOM     31  N   UNL     1      -8.070   8.471   0.095  0.00  0.00    -0.253 N 
ATOM     32  H   UNL     1     -10.273   7.181   0.100  0.00  0.00    +0.157 HD
ATOM     33  H   UNL     1      -7.072   8.935   0.092  0.00  0.00    +0.195 HD
ATOM     34  H   UNL     1      -9.470   5.453   0.085  0.00  0.00    +0.157 HD
BRANCH  31  35
ATOM     35  O   UNL     1      -9.229   9.284   0.107  0.00  0.00    -0.288 OA
ATOM     36  H   UNL     1      -9.131  10.380   0.113  0.00  0.00    +0.244 HD
ENDBRANCH  31  35
ENDBRANCH  26  29
ENDBRANCH   6  23
TORSDOF 6
