REMARK  Name = ZINC40548096
REMARK  12 active torsions:
REMARK  status: ('A' for Active; 'I' for Inactive)
REMARK    1  A    between atoms: C_1  and  C_2
REMARK    2  A    between atoms: C_5  and  O_40
REMARK    3  A    between atoms: C_6  and  C_8
REMARK    4  A    between atoms: N_16  and  C_32
REMARK    5  A    between atoms: C_17  and  C_19
REMARK    6  A    between atoms: C_22  and  O_27
REMARK    7  A    between atoms: C_23  and  O_25
REMARK    8  A    between atoms: O_25  and  C_26
REMARK    9  A    between atoms: O_27  and  C_28
REMARK   10  A    between atoms: C_28  and  C_29
REMARK   11  A    between atoms: C_29  and  C_30
REMARK   12  A    between atoms: C_29  and  C_31
REMARK                            x       y       z     vdW  Elec       q    Type
REMARK                         _______ _______ _______ _____ _____    ______ ____
ROOT
ATOM      1  C   UNL     1       0.197  -3.077   2.738  0.00  0.00    +0.102 A 
ATOM      2  C   UNL     1       0.133  -4.467   2.590  0.00  0.00    +0.035 A 
ATOM      3  C   UNL     1       0.044  -4.978   3.870  0.00  0.00    +0.126 A 
ATOM      4  N   UNL     1       0.058  -3.902   4.711  0.00  0.00    -0.272 N 
ATOM      5  H   UNL     1       0.008  -3.950   5.678  0.00  0.00    +0.189 HD
ATOM      6  N   UNL     1       0.151  -2.816   4.029  0.00  0.00    -0.173 NA
ATOM      7  C   UNL     1      -0.026  -6.441   3.784  0.00  0.00    +0.266 C 
ATOM      8  O   UNL     1      -0.112  -7.190   4.739  0.00  0.00    -0.268 OA
ATOM      9  N   UNL     1       0.017  -6.838   2.500  0.00  0.00    -0.280 N 
ATOM     10  C   UNL     1       0.120  -5.643   1.652  0.00  0.00    +0.142 C 
ENDROOT
BRANCH   1  16
ATOM     11  C   UNL     1      -1.321  -1.354  -1.695  0.00  0.00    +0.044 C 
ATOM     12  C   UNL     1      -0.424  -1.248  -0.488  0.00  0.00    -0.050 A 
ATOM     13  C   UNL     1       0.499  -0.221  -0.403  0.00  0.00    +0.007 A 
ATOM     14  C   UNL     1       1.326  -0.117   0.699  0.00  0.00    +0.046 A 
ATOM     15  C   UNL     1       1.234  -1.042   1.726  0.00  0.00    +0.126 A 
ATOM     16  C   UNL     1       0.302  -2.081   1.643  0.00  0.00    +0.044 A 
ATOM     17  C   UNL     1      -0.530  -2.174   0.530  0.00  0.00    +0.017 A 
BRANCH  15  18
ATOM     18  O   UNL     1       2.046  -0.941   2.810  0.00  0.00    -0.506 OA
ATOM     19  H   UNL     1       1.717  -0.342   3.494  0.00  0.00    +0.292 HD
ENDBRANCH  15  18
ENDBRANCH   1  16
BRANCH   9  20
ATOM     20  C   UNL     1      -0.031  -8.224   2.027  0.00  0.00    +0.100 C 
ATOM     21  C   UNL     1       1.153  -9.006   2.620  0.00  0.00    +0.047 C 
ATOM     22  C   UNL     1       0.908 -10.521   2.366  0.00  0.00    +0.168 C 
ATOM     23  S   UNL     1      -0.899 -10.633   2.712  0.00  0.00    -0.029 S 
ATOM     24  O   UNL     1      -1.515 -11.419   1.701  0.00  0.00    -0.174 OA
ATOM     25  O   UNL     1      -1.087 -10.978   4.078  0.00  0.00    -0.174 OA
ATOM     26  C   UNL     1      -1.365  -8.872   2.469  0.00  0.00    +0.188 C 
ENDBRANCH   9  20
BRANCH  10  27
ATOM     27  C   UNL     1       1.396  -5.683   0.852  0.00  0.00    -0.019 A 
ATOM     28  C   UNL     1       2.575  -6.085   1.452  0.00  0.00    +0.009 A 
ATOM     29  C   UNL     1       3.748  -6.123   0.722  0.00  0.00    +0.050 A 
ATOM     30  C   UNL     1       3.744  -5.758  -0.615  0.00  0.00    +0.162 A 
ATOM     31  C   UNL     1       2.558  -5.353  -1.219  0.00  0.00    +0.162 A 
ATOM     32  C   UNL     1       1.385  -5.322  -0.483  0.00  0.00    +0.055 A 
BRANCH  31  33
ATOM     33  O   UNL     1       2.550  -4.993  -2.530  0.00  0.00    -0.491 OA
ATOM     34  C   UNL     1       1.296  -4.588  -3.084  0.00  0.00    +0.277 C 
ENDBRANCH  31  33
BRANCH  30  35
ATOM     35  O   UNL     1       4.898  -5.794  -1.334  0.00  0.00    -0.488 OA
BRANCH  35  36
ATOM     36  C   UNL     1       6.077  -6.219  -0.648  0.00  0.00    +0.232 C 
BRANCH  36  37
ATOM     37  C   UNL     1       7.265  -6.196  -1.613  0.00  0.00    +0.020 C 
ATOM     38  C   UNL     1       8.548  -6.530  -0.850  0.00  0.00    +0.010 C 
ATOM     39  C   UNL     1       7.045  -7.230  -2.718  0.00  0.00    +0.010 C 
ENDBRANCH  36  37
ENDBRANCH  35  36
ENDBRANCH  30  35
ENDBRANCH  10  27
TORSDOF 8
