REMARK  Name = ZINC09374370
REMARK  14 active torsions:
REMARK  status: ('A' for Active; 'I' for Inactive)
REMARK    1  A    between atoms: C_1  and  C_2
REMARK    2  A    between atoms: C_2  and  N_62
REMARK    3  A    between atoms: C_3  and  C_4
REMARK    4  A    between atoms: C_3  and  N_62
REMARK    5  A    between atoms: C_5  and  C_6
REMARK    6  A    between atoms: C_5  and  N_62
REMARK    7  A    between atoms: C_6  and  N_7
REMARK    8  A    between atoms: C_8  and  C_26
REMARK    9  A    between atoms: C_11  and  C_12
REMARK   10  A    between atoms: C_11  and  O_21
REMARK   11  A    between atoms: C_15  and  O_19
REMARK   12  A    between atoms: C_16  and  C_18
REMARK   13  A    between atoms: O_19  and  C_20
REMARK   14  A    between atoms: C_29  and  O_32
REMARK                            x       y       z     vdW  Elec       q    Type
REMARK                         _______ _______ _______ _____ _____    ______ ____
ROOT
ATOM      1  N   UNL     1      -3.095   1.129   4.862  0.00  0.00    -0.285 N 
ATOM      2  C   UNL     1      -3.898   0.127   5.569  0.00  0.00    +0.144 C 
ATOM      3  C   UNL     1      -4.219   0.709   6.926  0.00  0.00    +0.071 C 
ATOM      4  C   UNL     1      -4.956   0.113   7.932  0.00  0.00    +0.133 C 
ATOM      5  C   UNL     1      -3.616   1.975   6.960  0.00  0.00    +0.249 C 
ATOM      6  O   UNL     1      -3.651   2.758   7.893  0.00  0.00    -0.282 OA
ATOM      7  C   UNL     1      -2.924   2.195   5.662  0.00  0.00    +0.288 C 
ATOM      8  O   UNL     1      -2.299   3.193   5.367  0.00  0.00    -0.266 OA
ENDROOT
BRANCH   4   9
ATOM      9  C   UNL     1      -5.080   0.771   9.242  0.00  0.00    +0.017 A 
ATOM     10  C   UNL     1      -3.939   1.249   9.899  0.00  0.00    +0.015 A 
ATOM     11  C   UNL     1      -4.061   1.868  11.121  0.00  0.00    +0.046 A 
ATOM     12  C   UNL     1      -5.313   2.010  11.710  0.00  0.00    +0.123 A 
ATOM     13  C   UNL     1      -6.448   1.533  11.064  0.00  0.00    -0.008 A 
ATOM     14  C   UNL     1      -6.338   0.917   9.838  0.00  0.00    +0.018 A 
ATOM     15  C   UNL     1      -7.802   1.691  11.707  0.00  0.00    +0.047 C 
BRANCH  12  16
ATOM     16  O   UNL     1      -5.427   2.617  12.918  0.00  0.00    -0.495 OA
ATOM     17  C   UNL     1      -4.221   3.083  13.527  0.00  0.00    +0.277 C 
ENDBRANCH  12  16
ENDBRANCH   4   9
BRANCH   2  18
ATOM     18  C   UNL     1      -5.172  -0.143   4.810  0.00  0.00    -0.022 A 
ATOM     19  C   UNL     1      -5.859   0.902   4.220  0.00  0.00    +0.009 A 
ATOM     20  C   UNL     1      -7.023   0.656   3.519  0.00  0.00    +0.046 A 
ATOM     21  C   UNL     1      -7.509  -0.639   3.416  0.00  0.00    +0.117 A 
ATOM     22  C   UNL     1      -6.822  -1.685   4.013  0.00  0.00    +0.046 A 
ATOM     23  C   UNL     1      -5.654  -1.435   4.709  0.00  0.00    +0.009 A 
BRANCH  21  24
ATOM     24  O   UNL     1      -8.658  -0.882   2.731  0.00  0.00    -0.507 OA
ATOM     25  H   UNL     1      -9.457  -0.837   3.273  0.00  0.00    +0.292 HD
ENDBRANCH  21  24
ENDBRANCH   2  18
BRANCH   4  26
ATOM     26  O   UNL     1      -5.562  -1.073   7.712  0.00  0.00    -0.506 OA
ATOM     27  H   UNL     1      -6.048  -1.357   8.539  0.00  0.00    +0.292 HD
ENDBRANCH   4  26
BRANCH   1  28
ATOM     28  C   UNL     1      -2.560   0.988   3.506  0.00  0.00    +0.090 C 
BRANCH  28  29
ATOM     29  C   UNL     1      -3.578   1.526   2.498  0.00  0.00    -0.060 C 
BRANCH  29  30
ATOM     30  N   UNL     1      -3.033   1.357   1.134  0.00  0.00    +0.380 N 
ATOM     31  H   UNL     1      -2.733   0.383   1.013  0.00  0.00    -0.082 HD
BRANCH  30  33
ATOM     32  C   UNL     1      -2.260   3.705   1.180  0.00  0.00    -0.017 C 
ATOM     33  C   UNL     1      -1.867   2.246   0.942  0.00  0.00    -0.082 C 
ENDBRANCH  30  33
BRANCH  30  34
ATOM     34  C   UNL     1      -4.074   1.667   0.132  0.00  0.00    -0.082 C 
ATOM     35  C   UNL     1      -3.664   1.052  -1.208  0.00  0.00    -0.017 C 
ENDBRANCH  30  34
ENDBRANCH  29  30
ENDBRANCH  28  29
ENDBRANCH   1  28
TORSDOF 10
