REMARK  Name = ZINC16757425
REMARK  4 active torsions:
REMARK  status: ('A' for Active; 'I' for Inactive)
REMARK    1  A    between atoms: C_1  and  S_2
REMARK    2  A    between atoms: S_2  and  C_3
REMARK    3  A    between atoms: C_6  and  C_9
REMARK    4  A    between atoms: C_21  and  C_25
REMARK                            x       y       z     vdW  Elec       q    Type
REMARK                         _______ _______ _______ _____ _____    ______ ____
ROOT
ATOM      1  C   UNL     1      -0.071   1.169   0.189  0.00  0.00    +0.131 C 
ATOM      2  C   UNL     1      -0.634   1.420  -1.190  0.00  0.00    +0.043 A 
ATOM      3  C   UNL     1      -1.904   1.851  -1.396  0.00  0.00    -0.009 A 
ATOM      4  C   UNL     1      -2.082   1.978  -2.825  0.00  0.00    +0.004 A 
ATOM      5  C   UNL     1      -3.163   2.377  -3.618  0.00  0.00    +0.010 A 
ATOM      6  C   UNL     1      -2.970   2.378  -4.977  0.00  0.00    +0.001 A 
ATOM      7  C   UNL     1      -1.766   2.005  -5.550  0.00  0.00    +0.002 A 
ATOM      8  C   UNL     1      -0.680   1.605  -4.791  0.00  0.00    +0.026 A 
ATOM      9  C   UNL     1      -0.846   1.594  -3.408  0.00  0.00    +0.047 A 
ATOM     10  N   UNL     1      -0.000   1.263  -2.388  0.00  0.00    -0.356 N 
ATOM     11  H   UNL     1       1.043   0.915  -2.417  0.00  0.00    +0.166 HD
ATOM     12  C   UNL     1      -2.884   2.123  -0.283  0.00  0.00    +0.065 C 
ATOM     13  C   UNL     1      -2.344   1.466   0.995  0.00  0.00    +0.094 C 
ATOM     14  N   UNL     1      -0.933   1.836   1.178  0.00  0.00    -0.304 NA
ATOM     15  H   UNL     1      -0.624   1.543   2.192  0.00  0.00    +0.123 HD
ENDROOT
BRANCH   1  19
ATOM     16  C   UNL     1       3.890   2.757   0.434  0.00  0.00    +0.008 A 
ATOM     17  C   UNL     1       2.793   3.582   0.657  0.00  0.00    +0.015 A 
ATOM     18  C   UNL     1       1.515   3.065   0.577  0.00  0.00    +0.006 A 
ATOM     19  C   UNL     1       1.325   1.729   0.276  0.00  0.00    -0.025 A 
ATOM     20  C   UNL     1       2.414   0.904   0.059  0.00  0.00    +0.006 A 
ATOM     21  C   UNL     1       3.695   1.415   0.132  0.00  0.00    +0.015 A 
BRANCH  16  23
ATOM     22  C   UNL     1       6.589   1.988   0.177  0.00  0.00    +0.090 C 
ATOM     23  S   UNL     1       5.522   3.411   0.536  0.00  0.00    -0.129 S 
ENDBRANCH  16  23
ENDBRANCH   1  19
BRANCH  12  24
ATOM     24  C   UNL     1      -3.019   3.609  -0.073  0.00  0.00    -0.039 A 
ATOM     25  C   UNL     1      -1.889   4.390   0.084  0.00  0.00    +0.004 A 
ATOM     26  C   UNL     1      -2.013   5.754   0.271  0.00  0.00    +0.000 A 
ATOM     27  C   UNL     1      -3.266   6.336   0.311  0.00  0.00    +0.000 A 
ATOM     28  C   UNL     1      -4.396   5.554   0.159  0.00  0.00    +0.000 A 
ATOM     29  C   UNL     1      -4.272   4.191  -0.033  0.00  0.00    +0.004 A 
ENDBRANCH  12  24
TORSDOF 3
