REMARK  Name = ZINC11604012
REMARK  11 active torsions:
REMARK  status: ('A' for Active; 'I' for Inactive)
REMARK    1  A    between atoms: C_1  and  C_2
REMARK    2  A    between atoms: C_2  and  C_3
REMARK    3  A    between atoms: C_6  and  C_9
REMARK    4  A    between atoms: C_9  and  C_11
REMARK    5  A    between atoms: C_9  and  N_64
REMARK    6  A    between atoms: C_11  and  N_12
REMARK    7  A    between atoms: C_13  and  C_15
REMARK    8  A    between atoms: C_15  and  C_16
REMARK    9  A    between atoms: C_16  and  C_17
REMARK   10  A    between atoms: C_32  and  N_64
REMARK   11  A    between atoms: C_33  and  N_64
REMARK                            x       y       z     vdW  Elec       q    Type
REMARK                         _______ _______ _______ _____ _____    ______ ____
ROOT
ATOM      1  N   UNL     1      -0.506   0.850  -2.534  0.00  0.00    -0.317 N 
ATOM      2  C   UNL     1      -0.982   1.024  -1.285  0.00  0.00    +0.213 C 
ATOM      3  O   UNL     1      -1.825   1.869  -1.070  0.00  0.00    -0.276 OA
ATOM      4  H   UNL     1       0.168   0.173  -2.707  0.00  0.00    +0.149 HD
ENDROOT
BRANCH   1   5
ATOM      5  C   UNL     1      -1.007   1.681  -3.631  0.00  0.00    +0.093 C 
BRANCH   5   6
ATOM      6  C   UNL     1      -0.201   1.392  -4.899  0.00  0.00    -0.021 C 
BRANCH   6  10
ATOM      7  C   UNL     1      -1.773   3.688  -8.140  0.00  0.00    -0.048 A 
ATOM      8  C   UNL     1      -2.037   2.333  -8.061  0.00  0.00    +0.004 A 
ATOM      9  C   UNL     1      -1.528   1.590  -7.012  0.00  0.00    +0.002 A 
ATOM     10  C   UNL     1      -0.755   2.202  -6.043  0.00  0.00    -0.059 A 
ATOM     11  C   UNL     1      -0.495   3.558  -6.119  0.00  0.00    +0.002 A 
ATOM     12  C   UNL     1      -1.000   4.300  -7.171  0.00  0.00    +0.004 A 
BRANCH   7  14
ATOM     13  C   UNL     1      -3.703   5.048  -8.898  0.00  0.00    +0.009 C 
ATOM     14  C   UNL     1      -2.328   4.498  -9.283  0.00  0.00    +0.032 C 
ENDBRANCH   7  14
ENDBRANCH   6  10
BRANCH   6  17
ATOM     15  C   UNL     1       1.322   2.837  -3.692  0.00  0.00    -0.096 C 
ATOM     16  C   UNL     1       1.994   0.584  -4.272  0.00  0.00    -0.096 C 
ATOM     17  N   UNL     1       1.216   1.764  -4.704  0.00  0.00    +0.382 N 
ATOM     18  H   UNL     1       1.597   2.107  -5.594  0.00  0.00    -0.082 HD
ENDBRANCH   6  17
ENDBRANCH   5   6
ENDBRANCH   1   5
BRANCH   2  19
ATOM     19  C   UNL     1      -0.468   0.168  -0.157  0.00  0.00    +0.103 C 
BRANCH  19  20
ATOM     20  C   UNL     1      -1.166   0.567   1.145  0.00  0.00    +0.083 C 
BRANCH  20  21
ATOM     21  C   UNL     1      -0.651  -0.289   2.274  0.00  0.00    +0.111 A 
ATOM     22  N   UNL     1      -1.139  -0.103   3.527  0.00  0.00    -0.310 N 
ATOM     23  H   UNL     1      -1.812   0.579   3.679  0.00  0.00    +0.170 HD
ATOM     24  C   UNL     1      -0.707  -0.845   4.564  0.00  0.00    +0.260 A 
ATOM     25  O   UNL     1      -1.155  -0.666   5.683  0.00  0.00    -0.267 OA
ATOM     26  C   UNL     1       0.288  -1.850   4.329  0.00  0.00    +0.075 A 
ATOM     27  C   UNL     1       0.900  -2.764   5.292  0.00  0.00    -0.023 A 
ATOM     28  C   UNL     1       1.823  -3.626   4.816  0.00  0.00    -0.004 A 
ATOM     29  S   UNL     1       1.929  -3.275   3.082  0.00  0.00    -0.073 S 
ATOM     30  C   UNL     1       0.731  -1.968   3.002  0.00  0.00    +0.116 A 
ATOM     31  N   UNL     1       0.252  -1.200   2.028  0.00  0.00    -0.227 NA
ATOM     32  C   UNL     1       2.589  -4.655   5.591  0.00  0.00    +0.043 C 
ATOM     33  C   UNL     1       2.443  -4.342   7.087  0.00  0.00    +0.005 C 
ATOM     34  C   UNL     1       0.964  -4.087   7.394  0.00  0.00    +0.005 C 
ATOM     35  C   UNL     1       0.526  -2.761   6.772  0.00  0.00    +0.037 C 
ENDBRANCH  20  21
ENDBRANCH  19  20
ENDBRANCH   2  19
TORSDOF 8
