REMARK  Name = ZINC39883808
REMARK  9 active torsions:
REMARK  status: ('A' for Active; 'I' for Inactive)
REMARK    1  A    between atoms: C_1  and  C_2
REMARK    2  A    between atoms: C_2  and  C_3
REMARK    3  A    between atoms: C_2  and  C_4
REMARK    4  A    between atoms: C_10  and  C_13
REMARK    5  A    between atoms: C_13  and  C_14
REMARK    6  A    between atoms: N_16  and  C_17
REMARK    7  A    between atoms: C_18  and  C_26
REMARK    8  A    between atoms: N_28  and  C_29
REMARK    9  A    between atoms: C_29  and  C_30
REMARK                            x       y       z     vdW  Elec       q    Type
REMARK                         _______ _______ _______ _____ _____    ______ ____
ROOT
ATOM      1  C   UNL     1      -1.656  -6.506  -3.661  0.00  0.00    +0.084 A 
ATOM      2  C   UNL     1      -1.082  -7.383  -4.568  0.00  0.00    +0.069 A 
ATOM      3  C   UNL     1      -0.469  -8.585  -4.032  0.00  0.00    -0.023 A 
ATOM      4  C   UNL     1      -0.541  -8.691  -2.687  0.00  0.00    -0.004 A 
ATOM      5  S   UNL     1      -1.392  -7.229  -2.168  0.00  0.00    -0.077 S 
ATOM      6  C   UNL     1      -0.008  -9.806  -1.842  0.00  0.00    +0.043 C 
ATOM      7  C   UNL     1       0.303 -10.998  -2.758  0.00  0.00    +0.005 C 
ATOM      8  C   UNL     1       1.105 -10.501  -3.965  0.00  0.00    +0.005 C 
ATOM      9  C   UNL     1       0.208  -9.657  -4.873  0.00  0.00    +0.037 C 
ENDROOT
BRANCH   1  12
ATOM     10  C   UNL     1      -2.795  -4.570  -2.911  0.00  0.00    +0.222 C 
ATOM     11  O   UNL     1      -2.683  -4.959  -1.768  0.00  0.00    -0.275 OA
ATOM     12  N   UNL     1      -2.296  -5.304  -3.925  0.00  0.00    -0.279 N 
ATOM     13  H   UNL     1      -2.385  -4.993  -4.839  0.00  0.00    +0.155 HD
BRANCH  10  14
ATOM     14  C   UNL     1      -3.490  -3.264  -3.197  0.00  0.00    +0.135 C 
BRANCH  14  21
ATOM     15  C   UNL     1      -1.412  -0.526   0.013  0.00  0.00    -0.044 A 
ATOM     16  C   UNL     1      -2.259  -0.200   1.062  0.00  0.00    +0.007 A 
ATOM     17  C   UNL     1      -3.555  -0.668   1.091  0.00  0.00    +0.047 A 
ATOM     18  C   UNL     1      -4.022  -1.473   0.060  0.00  0.00    +0.135 A 
ATOM     19  C   UNL     1      -3.160  -1.798  -1.001  0.00  0.00    +0.024 A 
ATOM     20  C   UNL     1      -1.854  -1.312  -1.015  0.00  0.00    +0.015 A 
ATOM     21  C   UNL     1      -3.950  -2.645  -1.903  0.00  0.00    +0.007 A 
ATOM     22  C   UNL     1      -5.163  -2.757  -1.344  0.00  0.00    +0.200 A 
ATOM     23  O   UNL     1      -5.206  -2.068  -0.190  0.00  0.00    -0.463 OA
BRANCH  15  25
ATOM     24  C   UNL     1      -0.019   1.526   0.010  0.00  0.00    +0.012 C 
ATOM     25  C   UNL     1       0.002  -0.004   0.002  0.00  0.00    +0.013 C 
ATOM     26  C   UNL     1       0.742  -0.511   1.242  0.00  0.00    +0.012 C 
ENDBRANCH  15  25
ENDBRANCH  14  21
ENDBRANCH  10  14
ENDBRANCH   1  12
BRANCH   2  27
ATOM     27  C   UNL     1      -1.095  -7.109  -6.008  0.00  0.00    +0.247 C 
ATOM     28  O   UNL     1      -0.181  -6.486  -6.517  0.00  0.00    -0.270 OA
ATOM     29  N   UNL     1      -2.118  -7.546  -6.769  0.00  0.00    -0.307 N 
ATOM     30  H   UNL     1      -2.846  -8.042  -6.363  0.00  0.00    +0.149 HD
BRANCH  29  31
ATOM     31  C   UNL     1      -2.131  -7.272  -8.208  0.00  0.00    +0.141 C 
BRANCH  31  32
ATOM     32  C   UNL     1      -3.373  -7.863  -8.821  0.00  0.00    -0.012 A 
ATOM     33  C   UNL     1      -3.369  -9.164  -9.301  0.00  0.00    +0.008 A 
ATOM     34  C   UNL     1      -4.535  -9.667  -9.857  0.00  0.00    +0.020 A 
ATOM     35  C   UNL     1      -5.656  -8.860  -9.914  0.00  0.00    +0.111 A 
ATOM     36  N   UNL     1      -5.624  -7.627  -9.447  0.00  0.00    -0.263 NA
ATOM     37  C   UNL     1      -4.534  -7.119  -8.906  0.00  0.00    +0.115 A 
ENDBRANCH  31  32
ENDBRANCH  29  31
ENDBRANCH   2  27
TORSDOF 7
