REMARK  Name = ZINC11917539
REMARK  5 active torsions:
REMARK  status: ('A' for Active; 'I' for Inactive)
REMARK    1  A    between atoms: C_1  and  C_2
REMARK    2  A    between atoms: C_5  and  C_8
REMARK    3  A    between atoms: C_8  and  N_9
REMARK    4  A    between atoms: C_11  and  C_16
REMARK    5  A    between atoms: N_18  and  C_19
REMARK                            x       y       z     vdW  Elec       q    Type
REMARK                         _______ _______ _______ _____ _____    ______ ____
ROOT
ATOM      1  C   UNL     1      -0.758   0.582   2.356  0.00  0.00    +0.222 C 
ATOM      2  O   UNL     1      -0.198  -0.481   2.192  0.00  0.00    -0.275 OA
ATOM      3  N   UNL     1      -1.370   0.848   3.527  0.00  0.00    -0.285 N 
ATOM      4  H   UNL     1      -1.759   1.723   3.683  0.00  0.00    +0.155 HD
ENDROOT
BRANCH   3   5
ATOM      5  C   UNL     1      -1.444  -0.138   4.519  0.00  0.00    +0.037 A 
ATOM      6  C   UNL     1      -0.394  -1.031   4.689  0.00  0.00    +0.027 A 
ATOM      7  C   UNL     1      -0.463  -2.005   5.668  0.00  0.00    +0.051 A 
ATOM      8  C   UNL     1      -1.580  -2.092   6.480  0.00  0.00    +0.167 A 
ATOM      9  C   UNL     1      -2.637  -1.197   6.311  0.00  0.00    +0.169 A 
ATOM     10  C   UNL     1      -2.564  -0.220   5.336  0.00  0.00    +0.072 A 
ATOM     11  O   UNL     1      -3.607  -1.499   7.231  0.00  0.00    -0.447 OA
ATOM     12  C   UNL     1      -3.329  -2.860   7.588  0.00  0.00    +0.254 C 
ATOM     13  O   UNL     1      -1.899  -2.944   7.506  0.00  0.00    -0.448 OA
ATOM     14  C   UNL     1      -3.826  -3.178   9.002  0.00  0.00    +0.093 C 
ATOM     15  C   UNL     1      -5.177  -3.904   8.769  0.00  0.00    +0.008 C 
ATOM     16  C   UNL     1      -4.901  -4.747   7.498  0.00  0.00    +0.008 C 
ATOM     17  C   UNL     1      -4.003  -3.840   6.628  0.00  0.00    +0.093 C 
ENDBRANCH   3   5
BRANCH   1  20
ATOM     18  N   UNL     1      -0.753   1.600  -1.149  0.00  0.00    -0.296 N 
ATOM     19  C   UNL     1      -0.011   1.087   0.009  0.00  0.00    +0.121 C 
ATOM     20  C   UNL     1      -0.769   1.606   1.251  0.00  0.00    +0.101 C 
ATOM     21  C   UNL     1      -2.198   1.800   0.686  0.00  0.00    +0.110 C 
ATOM     22  C   UNL     1      -1.987   2.002  -0.798  0.00  0.00    +0.217 C 
ATOM     23  O   UNL     1      -2.811   2.460  -1.561  0.00  0.00    -0.276 OA
BRANCH  18  24
ATOM     24  C   UNL     1      -0.218   1.666  -2.511  0.00  0.00    +0.142 C 
BRANCH  24  29
ATOM     25  C   UNL     1      -1.424  -3.251  -5.296  0.00  0.00    +0.044 C 
ATOM     26  C   UNL     1      -1.110  -1.969  -4.569  0.00  0.00    -0.050 A 
ATOM     27  C   UNL     1      -1.998  -0.911  -4.618  0.00  0.00    +0.003 A 
ATOM     28  C   UNL     1      -1.710   0.266  -3.952  0.00  0.00    +0.005 A 
ATOM     29  C   UNL     1      -0.533   0.384  -3.237  0.00  0.00    -0.030 A 
ATOM     30  C   UNL     1       0.358  -0.672  -3.192  0.00  0.00    +0.005 A 
ATOM     31  C   UNL     1       0.067  -1.850  -3.854  0.00  0.00    +0.003 A 
ENDBRANCH  24  29
ENDBRANCH  18  24
ENDBRANCH   1  20
TORSDOF 4
