REMARK  Name = ZINC67214317
REMARK  14 active torsions:
REMARK  status: ('A' for Active; 'I' for Inactive)
REMARK    1  A    between atoms: C_1  and  C_2
REMARK    2  A    between atoms: C_2  and  N_3
REMARK    3  A    between atoms: N_3  and  C_4
REMARK    4  A    between atoms: C_4  and  C_5
REMARK    5  A    between atoms: C_6  and  C_8
REMARK    6  A    between atoms: C_8  and  N_14
REMARK    7  A    between atoms: C_15  and  C_17
REMARK    8  A    between atoms: C_17  and  C_19
REMARK    9  A    between atoms: C_17  and  N_20
REMARK   10  A    between atoms: C_21  and  O_23
REMARK   11  A    between atoms: O_23  and  C_24
REMARK   12  A    between atoms: C_24  and  C_25
REMARK   13  A    between atoms: C_24  and  C_26
REMARK   14  A    between atoms: C_24  and  C_27
REMARK                            x       y       z     vdW  Elec       q    Type
REMARK                         _______ _______ _______ _____ _____    ______ ____
ROOT
ATOM      1  N   UNL     1      -1.786  -1.108  -0.749  0.00  0.00    -0.300 N 
ATOM      2  C   UNL     1      -1.710  -0.338   0.354  0.00  0.00    +0.234 C 
ATOM      3  O   UNL     1      -1.478   0.848   0.251  0.00  0.00    -0.274 OA
ATOM      4  H   UNL     1      -2.007  -2.049  -0.670  0.00  0.00    +0.150 HD
ENDROOT
BRANCH   1   5
ATOM      5  C   UNL     1      -1.534  -0.523  -2.069  0.00  0.00    +0.111 C 
ATOM      6  C   UNL     1      -2.442   0.692  -2.270  0.00  0.00    +0.035 C 
ATOM      7  C   UNL     1      -3.905   0.257  -2.176  0.00  0.00    +0.003 C 
ATOM      8  C   UNL     1      -4.199  -0.784  -3.259  0.00  0.00    +0.000 C 
ATOM      9  C   UNL     1      -3.291  -1.999  -3.057  0.00  0.00    +0.003 C 
ATOM     10  C   UNL     1      -1.827  -1.564  -3.152  0.00  0.00    +0.035 C 
BRANCH   5  12
ATOM     11  N   UNL     1       0.888  -0.944  -1.797  0.00  0.00    -0.300 N 
ATOM     12  C   UNL     1      -0.092  -0.095  -2.162  0.00  0.00    +0.239 C 
ATOM     13  O   UNL     1       0.186   1.015  -2.565  0.00  0.00    -0.273 OA
BRANCH  11  15
ATOM     14  C   UNL     1       0.597  -2.389   0.155  0.00  0.00    +0.024 C 
ATOM     15  C   UNL     1       0.557  -2.307  -1.373  0.00  0.00    +0.104 C 
ENDBRANCH  11  15
BRANCH  11  16
ATOM     16  C   UNL     1       2.286  -0.505  -1.825  0.00  0.00    +0.104 C 
ATOM     17  C   UNL     1       2.887  -0.806  -3.199  0.00  0.00    +0.024 C 
ENDBRANCH  11  16
ENDBRANCH   5  12
ENDBRANCH   1   5
BRANCH   2  18
ATOM     18  C   UNL     1      -1.914  -0.950   1.716  0.00  0.00    +0.159 C 
ATOM     19  C   UNL     1      -3.403  -1.223   1.934  0.00  0.00    +0.038 C 
BRANCH  18  20
ATOM     20  N   UNL     1      -1.431  -0.025   2.744  0.00  0.00    -0.270 N 
ATOM     21  C   UNL     1      -1.015  -0.500   3.935  0.00  0.00    +0.401 C 
ATOM     22  O   UNL     1      -1.040  -1.694   4.156  0.00  0.00    -0.226 OA
ATOM     23  H   UNL     1      -1.411   0.928   2.568  0.00  0.00    +0.153 HD
BRANCH  21  24
ATOM     24  O   UNL     1      -0.571   0.350   4.881  0.00  0.00    -0.445 OA
BRANCH  24  25
ATOM     25  C   UNL     1      -0.145  -0.222   6.119  0.00  0.00    +0.107 C 
ATOM     26  C   UNL     1       1.010  -1.191   5.863  0.00  0.00    +0.055 C 
ATOM     27  C   UNL     1       0.321   0.890   7.061  0.00  0.00    +0.055 C 
ATOM     28  C   UNL     1      -1.312  -0.977   6.760  0.00  0.00    +0.055 C 
ENDBRANCH  24  25
ENDBRANCH  21  24
ENDBRANCH  18  20
ENDBRANCH   2  18
TORSDOF 8
