REMARK  Name = ZINC43262821
REMARK  9 active torsions:
REMARK  status: ('A' for Active; 'I' for Inactive)
REMARK    1  A    between atoms: C_1  and  C_2
REMARK    2  A    between atoms: C_2  and  C_4
REMARK    3  A    between atoms: C_2  and  N_22
REMARK    4  A    between atoms: C_4  and  C_6
REMARK    5  A    between atoms: C_4  and  N_12
REMARK    6  A    between atoms: N_12  and  C_13
REMARK    7  A    between atoms: N_12  and  C_16
REMARK    8  A    between atoms: C_13  and  C_14
REMARK    9  A    between atoms: C_14  and  O_15
REMARK                            x       y       z     vdW  Elec       q    Type
REMARK                         _______ _______ _______ _____ _____    ______ ____
ROOT
ATOM      1  C   UNL     1       0.614  -0.381   1.268  0.00  0.00    -0.014 C 
ENDROOT
BRANCH   1   2
ATOM      2  C   UNL     1       0.602  -0.060   2.741  0.00  0.00    -0.021 A 
ATOM      3  C   UNL     1      -0.098   0.895   3.400  0.00  0.00    +0.011 A 
ATOM      4  C   UNL     1       0.049   1.009   4.770  0.00  0.00    +0.023 A 
ATOM      5  C   UNL     1       0.890   0.161   5.413  0.00  0.00    +0.055 A 
ATOM      6  S   UNL     1       1.500  -0.844   4.070  0.00  0.00    -0.088 S 
ATOM      7 BR   UNL     1       1.303   0.063   7.256  0.00  0.00    -0.043 Br
ENDBRANCH   1   2
BRANCH   1   9
ATOM      8  C   UNL     1       2.619   1.038   0.808  0.00  0.00    +0.022 C 
ATOM      9  C   UNL     1       2.056  -0.385   0.759  0.00  0.00    +0.039 C 
BRANCH   9  10
ATOM     10  N   UNL     1       2.086  -0.875  -0.625  0.00  0.00    -0.329 NA
ATOM     11  H   UNL     1       3.009  -0.783  -1.022  0.00  0.00    +0.118 HD
ATOM     12  H   UNL     1       1.763  -1.830  -0.677  0.00  0.00    +0.118 HD
ENDBRANCH   9  10
ENDBRANCH   1   9
BRANCH   1  13
ATOM     13  N   UNL     1       0.014  -1.704   1.051  0.00  0.00    +0.389 N 
ATOM     14  H   UNL     1       0.417  -2.124   0.227  0.00  0.00    -0.080 HD
BRANCH  13  15
ATOM     15  C   UNL     1       0.278  -2.559   2.216  0.00  0.00    -0.068 C 
ATOM     16  C   UNL     1       1.761  -2.933   2.248  0.00  0.00    -0.015 C 
ATOM     17  C   UNL     1       2.036  -3.824   3.461  0.00  0.00    -0.002 C 
ATOM     18  C   UNL     1       1.190  -5.095   3.363  0.00  0.00    -0.000 C 
ATOM     19  C   UNL     1      -0.293  -4.721   3.331  0.00  0.00    -0.002 C 
ATOM     20  C   UNL     1      -0.568  -3.830   2.117  0.00  0.00    -0.015 C 
ENDBRANCH  13  15
BRANCH  13  21
ATOM     21  C   UNL     1      -1.437  -1.560   0.868  0.00  0.00    -0.049 C 
BRANCH  21  22
ATOM     22  C   UNL     1      -1.713  -0.782  -0.421  0.00  0.00    +0.137 C 
BRANCH  22  23
ATOM     23  O   UNL     1      -1.226  -1.525  -1.540  0.00  0.00    -0.397 OA
ATOM     24  H   UNL     1      -1.368  -1.091  -2.392  0.00  0.00    +0.209 HD
ENDBRANCH  22  23
ENDBRANCH  21  22
ENDBRANCH  13  21
ENDBRANCH   1  13
TORSDOF 8
