REMARK  Name = ZINC12191995
REMARK  9 active torsions:
REMARK  status: ('A' for Active; 'I' for Inactive)
REMARK    1  A    between atoms: C_1  and  C_2
REMARK    2  A    between atoms: C_3  and  C_21
REMARK    3  A    between atoms: C_11  and  C_13
REMARK    4  A    between atoms: C_18  and  O_19
REMARK    5  A    between atoms: O_19  and  C_20
REMARK    6  A    between atoms: N_23  and  C_24
REMARK    7  A    between atoms: C_24  and  C_25
REMARK    8  A    between atoms: C_25  and  C_27
REMARK    9  A    between atoms: C_25  and  N_69
REMARK                            x       y       z     vdW  Elec       q    Type
REMARK                         _______ _______ _______ _____ _____    ______ ____
ROOT
ATOM      1  C   UNL     1       1.529   4.904   6.439  0.00  0.00    +0.066 C 
ATOM      2  C   UNL     1       1.938   4.499   5.046  0.00  0.00    +0.057 A 
ATOM      3  C   UNL     1       3.159   4.740   4.451  0.00  0.00    +0.077 A 
ATOM      4  C   UNL     1       3.103   4.195   3.147  0.00  0.00    +0.148 A 
ATOM      5  N   UNL     1       1.926   3.660   2.982  0.00  0.00    -0.171 NA
ATOM      6  N   UNL     1       1.181   3.833   4.154  0.00  0.00    -0.202 N 
ATOM      7  C   UNL     1      -0.128   3.395   4.361  0.00  0.00    +0.252 A 
ATOM      8  N   UNL     1      -0.710   3.632   5.526  0.00  0.00    -0.219 NA
ATOM      9  C   UNL     1      -1.950   3.234   5.762  0.00  0.00    +0.117 A 
ATOM     10  C   UNL     1      -2.646   2.565   4.770  0.00  0.00    +0.048 A 
ATOM     11  C   UNL     1      -2.003   2.325   3.553  0.00  0.00    +0.080 A 
ATOM     12  N   UNL     1      -0.754   2.756   3.388  0.00  0.00    -0.211 NA
ENDROOT
BRANCH  11  13
ATOM     13  C   UNL     1      -2.702   1.609   2.461  0.00  0.00    +0.042 A 
ATOM     14  C   UNL     1      -4.012   1.165   2.640  0.00  0.00    +0.013 A 
ATOM     15  C   UNL     1      -4.656   0.493   1.622  0.00  0.00    +0.001 A 
ATOM     16  C   UNL     1      -4.009   0.261   0.420  0.00  0.00    +0.004 A 
ATOM     17  C   UNL     1      -2.714   0.701   0.229  0.00  0.00    +0.046 A 
ATOM     18  C   UNL     1      -2.053   1.377   1.243  0.00  0.00    +0.129 A 
BRANCH  18  19
ATOM     19  O   UNL     1      -0.779   1.809   1.057  0.00  0.00    -0.494 OA
ATOM     20  C   UNL     1      -0.179   1.532  -0.210  0.00  0.00    +0.277 C 
ENDBRANCH  18  19
ENDBRANCH  11  13
BRANCH   3  21
ATOM     21  C   UNL     1       4.306   5.441   5.058  0.00  0.00    +0.247 C 
ATOM     22  O   UNL     1       4.226   5.866   6.195  0.00  0.00    -0.270 OA
ATOM     23  N   UNL     1       5.441   5.611   4.353  0.00  0.00    -0.312 N 
ATOM     24  H   UNL     1       5.505   5.273   3.446  0.00  0.00    +0.149 HD
BRANCH  23  25
ATOM     25  C   UNL     1       6.580   6.308   4.956  0.00  0.00    +0.094 C 
BRANCH  25  26
ATOM     26  C   UNL     1       7.779   6.242   4.008  0.00  0.00    -0.020 C 
BRANCH  26  32
ATOM     27  C   UNL     1       8.513   8.396   4.833  0.00  0.00    -0.078 C 
ATOM     28  C   UNL     1       9.651   9.117   5.559  0.00  0.00    -0.019 C 
ATOM     29  C   UNL     1      10.914   9.066   4.696  0.00  0.00    -0.004 C 
ATOM     30  C   UNL     1      11.267   7.605   4.407  0.00  0.00    -0.019 C 
ATOM     31  C   UNL     1      10.082   6.927   3.714  0.00  0.00    -0.078 C 
ATOM     32  N   UNL     1       8.905   6.989   4.606  0.00  0.00    +0.385 N 
ATOM     33  H   UNL     1       9.148   6.561   5.507  0.00  0.00    -0.081 HD
ENDBRANCH  26  32
BRANCH  26  34
ATOM     34  C   UNL     1       8.192   4.804   3.820  0.00  0.00    -0.059 A 
ATOM     35  C   UNL     1       8.966   4.177   4.778  0.00  0.00    +0.002 A 
ATOM     36  C   UNL     1       9.341   2.857   4.607  0.00  0.00    +0.000 A 
ATOM     37  C   UNL     1       8.950   2.168   3.474  0.00  0.00    +0.000 A 
ATOM     38  C   UNL     1       8.180   2.798   2.514  0.00  0.00    +0.000 A 
ATOM     39  C   UNL     1       7.802   4.116   2.687  0.00  0.00    +0.002 A 
ENDBRANCH  26  34
ENDBRANCH  25  26
ENDBRANCH  23  25
ENDBRANCH   3  21
TORSDOF 7
