REMARK  Name = ZINC40066486
REMARK  11 active torsions:
REMARK  status: ('A' for Active; 'I' for Inactive)
REMARK    1  A    between atoms: C_1  and  C_2
REMARK    2  A    between atoms: C_2  and  N_3
REMARK    3  A    between atoms: C_4  and  N_26
REMARK    4  A    between atoms: C_5  and  C_13
REMARK    5  A    between atoms: C_6  and  C_12
REMARK    6  A    between atoms: C_7  and  C_10
REMARK    7  A    between atoms: N_17  and  C_21
REMARK    8  A    between atoms: N_26  and  C_27
REMARK    9  A    between atoms: C_27  and  C_28
REMARK   10  A    between atoms: C_31  and  O_34
REMARK   11  A    between atoms: O_34  and  C_35
REMARK                            x       y       z     vdW  Elec       q    Type
REMARK                         _______ _______ _______ _____ _____    ______ ____
ROOT
ATOM      1  N   UNL     1       0.840  -0.732   1.048  0.00  0.00    -0.296 N 
ATOM      2  C   UNL     1       2.182  -0.888   0.914  0.00  0.00    +0.109 A 
ATOM      3  C   UNL     1       2.978  -1.200   2.028  0.00  0.00    +0.019 A 
ATOM      4  C   UNL     1       2.375  -1.352   3.288  0.00  0.00    -0.017 A 
ATOM      5  C   UNL     1       0.998  -1.188   3.399  0.00  0.00    +0.120 A 
ATOM      6  C   UNL     1       0.239  -0.867   2.244  0.00  0.00    +0.270 A 
ATOM      7  O   UNL     1      -0.967  -0.717   2.336  0.00  0.00    -0.266 OA
ATOM      8  C   UNL     1       3.206  -1.688   4.499  0.00  0.00    +0.046 C 
ENDROOT
BRANCH   3   9
ATOM      9  C   UNL     1       4.425  -1.367   1.877  0.00  0.00    +0.032 C 
ATOM     10  C   UNL     1       5.175  -0.362   1.349  0.00  0.00    +0.077 C 
ATOM     11  C   UNL     1       6.562  -0.345   1.009  0.00  0.00    +0.259 C 
ATOM     12  O   UNL     1       7.262  -1.327   1.180  0.00  0.00    -0.269 OA
ATOM     13  N   UNL     1       7.063   0.768   0.502  0.00  0.00    -0.252 N 
ATOM     14  C   UNL     1       6.286   1.857   0.312  0.00  0.00    +0.121 C 
ATOM     15  S   UNL     1       6.720   3.387  -0.323  0.00  0.00    -0.027 S 
ATOM     16  S   UNL     1       4.690   1.294   0.884  0.00  0.00    -0.061 S 
BRANCH  13  17
ATOM     17  C   UNL     1       8.482   0.822   0.141  0.00  0.00    +0.083 C 
ATOM     18  C   UNL     1       9.175   1.975   0.896  0.00  0.00    +0.023 C 
ATOM     19  C   UNL     1      10.190   2.543  -0.127  0.00  0.00    +0.002 C 
ATOM     20  C   UNL     1       9.413   2.452  -1.464  0.00  0.00    +0.002 C 
ATOM     21  C   UNL     1       8.633   1.126  -1.359  0.00  0.00    +0.023 C 
ENDBRANCH  13  17
ENDBRANCH   3   9
BRANCH   1  23
ATOM     22  C   UNL     1       0.038   1.107  -0.350  0.00  0.00    +0.027 C 
ATOM     23  C   UNL     1       0.032  -0.407  -0.130  0.00  0.00    +0.123 C 
ENDBRANCH   1  23
BRANCH   5  24
ATOM     24  C   UNL     1       0.352  -1.336   4.668  0.00  0.00    +0.105 C 
ATOM     25  N   UNL     1      -0.160  -1.454   5.676  0.00  0.00    -0.191 NA
ENDBRANCH   5  24
BRANCH   2  26
ATOM     26  N   UNL     1       2.761  -0.739  -0.312  0.00  0.00    -0.326 N 
ATOM     27  H   UNL     1       3.017   0.143  -0.624  0.00  0.00    +0.148 HD
BRANCH  26  28
ATOM     28  C   UNL     1       2.997  -1.911  -1.158  0.00  0.00    +0.138 C 
BRANCH  28  29
ATOM     29  C   UNL     1       3.741  -1.493  -2.400  0.00  0.00    -0.030 A 
ATOM     30  C   UNL     1       3.039  -1.103  -3.526  0.00  0.00    +0.009 A 
ATOM     31  C   UNL     1       3.719  -0.720  -4.666  0.00  0.00    +0.046 A 
ATOM     32  C   UNL     1       5.106  -0.726  -4.681  0.00  0.00    +0.120 A 
ATOM     33  C   UNL     1       5.807  -1.118  -3.550  0.00  0.00    +0.046 A 
ATOM     34  C   UNL     1       5.123  -1.496  -2.410  0.00  0.00    +0.009 A 
BRANCH  32  35
ATOM     35  O   UNL     1       5.777  -0.350  -5.801  0.00  0.00    -0.495 OA
ATOM     36  C   UNL     1       7.204  -0.382  -5.744  0.00  0.00    +0.277 C 
ENDBRANCH  32  35
ENDBRANCH  28  29
ENDBRANCH  26  28
ENDBRANCH   2  26
TORSDOF 8
