REMARK  Name = ZINC62873093
REMARK  9 active torsions:
REMARK  status: ('A' for Active; 'I' for Inactive)
REMARK    1  A    between atoms: C_1  and  C_2
REMARK    2  A    between atoms: C_2  and  C_3
REMARK    3  A    between atoms: C_3  and  C_4
REMARK    4  A    between atoms: C_4  and  C_19
REMARK    5  A    between atoms: N_12  and  C_13
REMARK    6  A    between atoms: C_13  and  C_15
REMARK    7  A    between atoms: C_13  and  C_16
REMARK    8  A    between atoms: C_16  and  C_17
REMARK    9  A    between atoms: C_16  and  C_18
REMARK                            x       y       z     vdW  Elec       q    Type
REMARK                         _______ _______ _______ _____ _____    ______ ____
ROOT
ATOM      1  C   UNL     1      -1.413  -2.059   0.004  0.00  0.00    +0.088 C 
ATOM      2  C   UNL     1      -2.849  -2.589   0.018  0.00  0.00    +0.021 C 
ATOM      3  C   UNL     1      -3.574  -2.069   1.262  0.00  0.00    +0.020 C 
ATOM      4  C   UNL     1      -2.857  -2.579   2.516  0.00  0.00    +0.109 C 
ATOM      5  N   UNL     1      -1.441  -2.197   2.440  0.00  0.00    -0.285 N 
ATOM      6  C   UNL     1      -0.672  -2.569   1.244  0.00  0.00    +0.127 C 
ATOM      7  C   UNL     1      -0.857  -1.519   3.448  0.00  0.00    +0.302 C 
ATOM      8  O   UNL     1       0.336  -1.289   3.415  0.00  0.00    -0.253 OA
ATOM      9  N   UNL     1      -1.597  -1.095   4.492  0.00  0.00    -0.296 N 
ATOM     10  H   UNL     1      -2.533  -1.341   4.555  0.00  0.00    +0.151 HD
ENDROOT
BRANCH   1  11
ATOM     11  C   UNL     1      -0.709  -2.545  -1.237  0.00  0.00    +0.364 C 
ATOM     12  O   UNL     1       0.452  -2.234  -1.441  0.00  0.00    -0.246 OA
ATOM     13  O   UNL     1      -1.301  -3.248  -2.038  0.00  0.00    -0.246 OA
ENDBRANCH   1  11
BRANCH   9  14
ATOM     14  C   UNL     1      -0.987  -0.263   5.532  0.00  0.00    +0.074 C 
ATOM     15  C   UNL     1      -1.024   1.204   5.098  0.00  0.00    +0.028 C 
BRANCH  14  16
ATOM     16  C   UNL     1      -1.764  -0.428   6.839  0.00  0.00    +0.003 C 
ATOM     17  C   UNL     1      -1.726  -1.895   7.272  0.00  0.00    +0.009 C 
ATOM     18  C   UNL     1      -1.127   0.441   7.925  0.00  0.00    +0.009 C 
ENDBRANCH  14  16
ENDBRANCH   9  14
BRANCH   1  19
ATOM     19  C   UNL     1      -1.433  -0.529   0.014  0.00  0.00    +0.019 C 
BRANCH  19  21
ATOM     20  C   UNL     1      -0.018   1.529   0.014  0.00  0.00    +0.004 C 
ATOM     21  C   UNL     1       0.003  -0.001   0.004  0.00  0.00    -0.002 C 
ENDBRANCH  19  21
ENDBRANCH   1  19
TORSDOF 5
