REMARK  Name = ZINC16525775
REMARK  4 active torsions:
REMARK  status: ('A' for Active; 'I' for Inactive)
REMARK    1  A    between atoms: C_14  and  C_15
REMARK    2  A    between atoms: N_16  and  C_17
REMARK    3  A    between atoms: C_18  and  C_26
REMARK    4  A    between atoms: N_28  and  C_29
REMARK                            x       y       z     vdW  Elec       q    Type
REMARK                         _______ _______ _______ _____ _____    ______ ____
ROOT
ATOM      1  C   UNL     1       6.141  -1.747   0.032  0.00  0.00    +0.114 A 
ATOM      2  C   UNL     1       7.248  -2.587   0.211  0.00  0.00    +0.073 A 
ATOM      3  C   UNL     1       7.051  -3.978   0.159  0.00  0.00    -0.023 A 
ATOM      4  C   UNL     1       5.785  -4.411  -0.064  0.00  0.00    -0.004 A 
ATOM      5  S   UNL     1       4.822  -2.928  -0.201  0.00  0.00    -0.073 S 
ATOM      6  C   UNL     1       5.312  -5.827  -0.165  0.00  0.00    +0.043 C 
ATOM      7  C   UNL     1       6.538  -6.735  -0.345  0.00  0.00    +0.005 C 
ATOM      8  C   UNL     1       7.594  -6.344   0.692  0.00  0.00    +0.005 C 
ATOM      9  C   UNL     1       8.188  -4.980   0.342  0.00  0.00    +0.037 C 
ENDROOT
BRANCH   2  10
ATOM     10  C   UNL     1       8.583  -2.028   0.446  0.00  0.00    +0.247 C 
ATOM     11  O   UNL     1       8.960  -1.809   1.583  0.00  0.00    -0.270 OA
ATOM     12  N   UNL     1       9.393  -1.756  -0.596  0.00  0.00    -0.308 N 
ATOM     13  H   UNL     1       9.093  -1.930  -1.502  0.00  0.00    +0.149 HD
BRANCH  12  14
ATOM     14  C   UNL     1      10.727  -1.197  -0.361  0.00  0.00    +0.073 C 
ATOM     15  C   UNL     1      10.627   0.324  -0.231  0.00  0.00    +0.022 C 
ATOM     16  C   UNL     1      12.020   0.908   0.015  0.00  0.00    +0.002 C 
ATOM     17  C   UNL     1      12.935   0.555  -1.159  0.00  0.00    +0.000 C 
ATOM     18  C   UNL     1      13.035  -0.966  -1.290  0.00  0.00    +0.002 C 
ATOM     19  C   UNL     1      11.642  -1.549  -1.535  0.00  0.00    +0.022 C 
ENDBRANCH  12  14
ENDBRANCH   2  10
BRANCH   1  21
ATOM     20  C   UNL     1       4.923   0.208  -0.007  0.00  0.00    +0.121 C 
ATOM     21  N   UNL     1       6.085  -0.401   0.039  0.00  0.00    -0.247 NA
BRANCH  20  35
ATOM     22  C   UNL     1       3.148  -2.691   3.759  0.00  0.00    +0.001 A 
ATOM     23  C   UNL     1       4.323  -1.973   3.550  0.00  0.00    +0.001 A 
ATOM     24  C   UNL     1       4.532  -1.264   2.407  0.00  0.00    +0.009 A 
ATOM     25  C   UNL     1       3.546  -1.250   1.408  0.00  0.00    -0.009 A 
ATOM     26  C   UNL     1       2.310  -2.004   1.625  0.00  0.00    -0.017 A 
ATOM     27  C   UNL     1       2.155  -2.719   2.832  0.00  0.00    +0.008 A 
ATOM     28  C   UNL     1       1.309  -2.011   0.651  0.00  0.00    +0.017 A 
ATOM     29  C   UNL     1       1.482  -1.297  -0.535  0.00  0.00    -0.017 A 
ATOM     30  C   UNL     1       0.483  -1.290  -1.532  0.00  0.00    +0.008 A 
ATOM     31  C   UNL     1       0.682  -0.585  -2.676  0.00  0.00    +0.001 A 
ATOM     32  C   UNL     1       1.854   0.137  -2.895  0.00  0.00    +0.001 A 
ATOM     33  C   UNL     1       2.854   0.170  -1.973  0.00  0.00    +0.009 A 
ATOM     34  C   UNL     1       2.712  -0.538  -0.768  0.00  0.00    -0.009 A 
ATOM     35  C   UNL     1       3.731  -0.524   0.210  0.00  0.00    +0.008 A 
ENDBRANCH  20  35
ENDBRANCH   1  21
TORSDOF 4
