REMARK  Name = ZINC50035688
REMARK  5 active torsions:
REMARK  status: ('A' for Active; 'I' for Inactive)
REMARK    1  A    between atoms: C_3  and  N_22
REMARK    2  A    between atoms: C_6  and  N_7
REMARK    3  A    between atoms: N_10  and  C_11
REMARK    4  A    between atoms: C_11  and  C_12
REMARK    5  A    between atoms: N_14  and  C_15
REMARK                            x       y       z     vdW  Elec       q    Type
REMARK                         _______ _______ _______ _____ _____    ______ ____
ROOT
ATOM      1  N   UNL     1      -1.168  -0.809   0.136  0.00  0.00    -0.269 N 
ATOM      2  C   UNL     1      -2.007  -0.071  -0.617  0.00  0.00    +0.304 C 
ATOM      3  O   UNL     1      -1.607   0.943  -1.157  0.00  0.00    -0.252 OA
ATOM      4  N   UNL     1      -3.289  -0.456  -0.772  0.00  0.00    -0.291 N 
ATOM      5  H   UNL     1      -1.464  -1.658   0.501  0.00  0.00    +0.156 HD
ATOM      6  H   UNL     1      -3.608  -1.264  -0.342  0.00  0.00    +0.151 HD
ENDROOT
BRANCH   1  12
ATOM      7  C   UNL     1       0.371   1.008   0.547  0.00  0.00    +0.025 A 
ATOM      8  C   UNL     1       1.651   1.459   0.799  0.00  0.00    +0.025 A 
ATOM      9  C   UNL     1       2.700   0.554   0.897  0.00  0.00    +0.030 A 
ATOM     10  C   UNL     1       2.461  -0.805   0.742  0.00  0.00    +0.025 A 
ATOM     11  C   UNL     1       1.180  -1.256   0.490  0.00  0.00    +0.025 A 
ATOM     12  C   UNL     1       0.132  -0.351   0.392  0.00  0.00    +0.035 A 
BRANCH   9  13
ATOM     13  N   UNL     1       3.998   1.011   1.153  0.00  0.00    -0.330 N 
ATOM     14  C   UNL     1       5.097   0.061   1.372  0.00  0.00    +0.105 C 
ATOM     15  C   UNL     1       6.238   0.395   0.407  0.00  0.00    +0.019 C 
ATOM     16  C   UNL     1       6.633   1.864   0.579  0.00  0.00    +0.003 C 
ATOM     17  C   UNL     1       5.438   2.758   0.242  0.00  0.00    +0.019 C 
ATOM     18  C   UNL     1       4.288   2.450   1.200  0.00  0.00    +0.105 C 
ENDBRANCH   9  13
ENDBRANCH   1  12
BRANCH   4  19
ATOM     19  C   UNL     1      -4.201   0.347  -1.590  0.00  0.00    +0.202 C 
BRANCH  19  20
ATOM     20  C   UNL     1      -5.564  -0.295  -1.601  0.00  0.00    +0.234 C 
ATOM     21  O   UNL     1      -5.755  -1.323  -0.986  0.00  0.00    -0.274 OA
ATOM     22  N   UNL     1      -6.571   0.272  -2.295  0.00  0.00    -0.284 N 
ATOM     23  H   UNL     1      -6.437   1.127  -2.733  0.00  0.00    +0.155 HD
BRANCH  22  24
ATOM     24  C   UNL     1      -7.811  -0.373  -2.384  0.00  0.00    +0.034 A 
ATOM     25  C   UNL     1      -8.559  -0.285  -3.550  0.00  0.00    +0.026 A 
ATOM     26  C   UNL     1      -9.781  -0.922  -3.635  0.00  0.00    +0.040 A 
ATOM     27  C   UNL     1     -10.261  -1.648  -2.558  0.00  0.00    +0.124 A 
ATOM     28  C   UNL     1      -9.517  -1.738  -1.394  0.00  0.00    +0.040 A 
ATOM     29  C   UNL     1      -8.291  -1.107  -1.307  0.00  0.00    +0.026 A 
ATOM     30  F   UNL     1     -11.457  -2.270  -2.644  0.00  0.00    -0.205 F 
ENDBRANCH  22  24
ENDBRANCH  19  20
ENDBRANCH   4  19
TORSDOF 5
