REMARK  Name = ZINC09347452
REMARK  14 active torsions:
REMARK  status: ('A' for Active; 'I' for Inactive)
REMARK    1  A    between atoms: C_1  and  C_2
REMARK    2  A    between atoms: C_2  and  C_3
REMARK    3  A    between atoms: C_3  and  C_4
REMARK    4  A    between atoms: C_3  and  C_6
REMARK    5  A    between atoms: C_4  and  C_5
REMARK    6  A    between atoms: C_12  and  S_14
REMARK    7  A    between atoms: S_14  and  C_15
REMARK    8  A    between atoms: C_15  and  C_17
REMARK    9  A    between atoms: C_15  and  C_18
REMARK   10  A    between atoms: N_20  and  C_21
REMARK   11  A    between atoms: C_22  and  C_30
REMARK   12  A    between atoms: C_30  and  O_32
REMARK   13  A    between atoms: O_32  and  C_33
REMARK   14  A    between atoms: C_33  and  C_34
REMARK                            x       y       z     vdW  Elec       q    Type
REMARK                         _______ _______ _______ _____ _____    ______ ____
ROOT
ATOM      1  C   UNL     1       0.678   4.888  -1.264  0.00  0.00    +0.231 C 
ATOM      2  O   UNL     1      -0.522   4.984  -1.408  0.00  0.00    -0.274 OA
ATOM      3  N   UNL     1       1.262   3.673  -1.265  0.00  0.00    -0.278 N 
ATOM      4  H   UNL     1       2.222   3.596  -1.150  0.00  0.00    +0.155 HD
ENDROOT
BRANCH   3   5
ATOM      5  C   UNL     1       0.490   2.533  -1.431  0.00  0.00    +0.086 A 
ATOM      6  C   UNL     1       0.903   1.208  -1.460  0.00  0.00    +0.091 A 
ATOM      7  C   UNL     1      -0.117   0.191  -1.649  0.00  0.00    -0.021 A 
ATOM      8  C   UNL     1      -1.378   0.658  -1.779  0.00  0.00    -0.004 A 
ATOM      9  S   UNL     1      -1.224   2.417  -1.652  0.00  0.00    -0.077 S 
ATOM     10  C   UNL     1      -2.623  -0.148  -1.984  0.00  0.00    +0.043 C 
ATOM     11  C   UNL     1      -2.216  -1.569  -2.402  0.00  0.00    +0.005 C 
ATOM     12  C   UNL     1      -1.125  -2.069  -1.452  0.00  0.00    +0.005 C 
ATOM     13  C   UNL     1       0.175  -1.304  -1.704  0.00  0.00    +0.037 C 
BRANCH   6  14
ATOM     14  C   UNL     1       2.315   0.849  -1.306  0.00  0.00    +0.342 C 
ATOM     15  O   UNL     1       3.031   0.763  -2.286  0.00  0.00    -0.245 OA
BRANCH  14  16
ATOM     16  O   UNL     1       2.821   0.612  -0.079  0.00  0.00    -0.461 OA
BRANCH  16  17
ATOM     17  C   UNL     1       4.227   0.261  -0.002  0.00  0.00    +0.229 C 
ATOM     18  C   UNL     1       4.617   0.031   1.460  0.00  0.00    +0.048 C 
ENDBRANCH  16  17
ENDBRANCH  14  16
ENDBRANCH   6  14
ENDBRANCH   3   5
BRANCH   1  19
ATOM     19  C   UNL     1       1.518   6.126  -1.084  0.00  0.00    +0.136 C 
ATOM     20  C   UNL     1       1.832   6.318   0.401  0.00  0.00    +0.029 C 
BRANCH  19  21
ATOM     21  S   UNL     1       0.606   7.569  -1.701  0.00  0.00    -0.084 S 
BRANCH  21  28
ATOM     22  C   UNL     1       5.118  12.500  -1.102  0.00  0.00    +0.222 C 
ATOM     23  O   UNL     1       5.728  11.536  -0.690  0.00  0.00    -0.275 OA
ATOM     24  N   UNL     1       3.846  12.361  -1.525  0.00  0.00    -0.263 N 
ATOM     25  C   UNL     1       3.232  11.111  -1.489  0.00  0.00    +0.189 A 
ATOM     26  N   UNL     1       3.705   9.944  -1.084  0.00  0.00    -0.125 NA
ATOM     27  N   UNL     1       3.006   8.894  -1.112  0.00  0.00    -0.133 NA
ATOM     28  C   UNL     1       1.760   8.893  -1.561  0.00  0.00    +0.161 A 
ATOM     29  S   UNL     1       1.579  10.626  -1.976  0.00  0.00    -0.024 S 
ATOM     30  H   UNL     1       3.357  13.131  -1.855  0.00  0.00    +0.157 HD
BRANCH  22  31
ATOM     31  C   UNL     1       5.782  13.852  -1.142  0.00  0.00    +0.075 C 
BRANCH  31  33
ATOM     32  C   UNL     1       4.987  14.338   1.176  0.00  0.00    +0.004 C 
ATOM     33  C   UNL     1       4.993  14.833  -0.272  0.00  0.00    +0.009 C 
ENDBRANCH  31  33
BRANCH  31  34
ATOM     34  C   UNL     1       7.211  13.734  -0.611  0.00  0.00    +0.009 C 
ATOM     35  C   UNL     1       7.928  15.076  -0.772  0.00  0.00    +0.004 C 
ENDBRANCH  31  34
ENDBRANCH  22  31
ENDBRANCH  21  28
ENDBRANCH  19  21
ENDBRANCH   1  19
TORSDOF 10
