REMARK  Name = ZINC58760386
REMARK  11 active torsions:
REMARK  status: ('A' for Active; 'I' for Inactive)
REMARK    1  A    between atoms: C_1  and  C_2
REMARK    2  A    between atoms: C_2  and  C_3
REMARK    3  A    between atoms: C_2  and  C_4
REMARK    4  A    between atoms: C_4  and  C_5
REMARK    5  A    between atoms: C_5  and  C_7
REMARK    6  A    between atoms: C_5  and  N_20
REMARK    7  A    between atoms: N_9  and  C_10
REMARK    8  A    between atoms: C_10  and  C_11
REMARK    9  A    between atoms: N_17  and  C_18
REMARK   10  A    between atoms: N_17  and  C_19
REMARK   11  A    between atoms: C_21  and  C_23
REMARK                            x       y       z     vdW  Elec       q    Type
REMARK                         _______ _______ _______ _____ _____    ______ ____
ROOT
ATOM      1  C   UNL     1       0.043  -0.060   2.362  0.00  0.00    +0.159 C 
ENDROOT
BRANCH   1   2
ATOM      2  C   UNL     1       0.874  -0.393   3.574  0.00  0.00    +0.234 C 
ATOM      3  O   UNL     1       1.374   0.496   4.230  0.00  0.00    -0.274 OA
ATOM      4  N   UNL     1       1.062  -1.680   3.929  0.00  0.00    -0.310 N 
ATOM      5  H   UNL     1       0.719  -2.393   3.367  0.00  0.00    +0.149 HD
BRANCH   4   6
ATOM      6  C   UNL     1       1.785  -2.001   5.162  0.00  0.00    +0.139 C 
BRANCH   6   7
ATOM      7  C   UNL     1       1.857  -3.498   5.326  0.00  0.00    -0.026 A 
ATOM      8  C   UNL     1       0.860  -4.186   6.005  0.00  0.00    +0.023 A 
ATOM      9  C   UNL     1       0.955  -5.557   6.138  0.00  0.00    +0.084 A 
ATOM     10  N   UNL     1       1.979  -6.217   5.629  0.00  0.00    -0.350 N 
ATOM     11  C   UNL     1       2.949  -5.596   4.976  0.00  0.00    +0.098 A 
ATOM     12  C   UNL     1       2.914  -4.217   4.800  0.00  0.00    +0.047 A 
ATOM     13  N   UNL     1       4.009  -6.331   4.457  0.00  0.00    -0.323 N 
ATOM     14  C   UNL     1       3.983  -7.795   4.512  0.00  0.00    +0.130 C 
ATOM     15  C   UNL     1       5.152  -5.641   3.853  0.00  0.00    +0.130 C 
ATOM     16  H   UNL     1       2.021  -7.180   5.737  0.00  0.00    +0.166 HD
ENDBRANCH   6   7
ENDBRANCH   4   6
ENDBRANCH   1   2
BRANCH   1  17
ATOM     17  N   UNL     1      -0.380   1.341   2.430  0.00  0.00    -0.300 N 
ATOM     18  C   UNL     1      -1.535   1.725   1.852  0.00  0.00    +0.246 C 
ATOM     19  O   UNL     1      -2.271   0.895   1.354  0.00  0.00    -0.270 OA
ATOM     20  H   UNL     1       0.172   1.992   2.891  0.00  0.00    +0.150 HD
BRANCH  18  21
ATOM     21  C   UNL     1      -1.908   3.154   1.824  0.00  0.00    +0.055 A 
ATOM     22  C   UNL     1      -1.062   4.111   2.391  0.00  0.00    +0.016 A 
ATOM     23  C   UNL     1      -1.415   5.443   2.362  0.00  0.00    +0.021 A 
ATOM     24  C   UNL     1      -2.607   5.835   1.773  0.00  0.00    +0.042 A 
ATOM     25  C   UNL     1      -3.450   4.893   1.210  0.00  0.00    +0.040 A 
ATOM     26  C   UNL     1      -3.105   3.556   1.226  0.00  0.00    +0.054 A 
ATOM     27 CL   UNL     1      -4.160   2.376   0.512  0.00  0.00    -0.083 Cl
ATOM     28 CL   UNL     1      -3.044   7.514   1.742  0.00  0.00    -0.083 Cl
ENDBRANCH  18  21
ENDBRANCH   1  17
BRANCH   1  29
ATOM     29  C   UNL     1       0.875  -0.280   1.097  0.00  0.00    +0.034 C 
BRANCH  29  31
ATOM     30  C   UNL     1      -0.074  -2.562   0.728  0.00  0.00    +0.007 C 
ATOM     31  C   UNL     1       1.212  -1.767   0.961  0.00  0.00    -0.015 C 
ATOM     32  C   UNL     1       2.158  -1.968  -0.225  0.00  0.00    +0.007 C 
ENDBRANCH  29  31
ENDBRANCH   1  29
TORSDOF 7
