REMARK  Name = ZINC21019068
REMARK  7 active torsions:
REMARK  status: ('A' for Active; 'I' for Inactive)
REMARK    1  A    between atoms: C_1  and  C_2
REMARK    2  A    between atoms: C_2  and  O_3
REMARK    3  A    between atoms: O_3  and  C_4
REMARK    4  A    between atoms: C_4  and  C_6
REMARK    5  A    between atoms: C_6  and  C_7
REMARK    6  A    between atoms: C_7  and  C_9
REMARK    7  A    between atoms: C_7  and  N_15
REMARK                            x       y       z     vdW  Elec       q    Type
REMARK                         _______ _______ _______ _____ _____    ______ ____
ROOT
ATOM      1  N   UNL     1      -0.309  -2.644   1.241  0.00  0.00    -0.292 N 
ATOM      2  C   UNL     1       0.483  -3.734   1.277  0.00  0.00    +0.303 C 
ATOM      3  O   UNL     1       0.562  -4.460   0.305  0.00  0.00    -0.253 OA
ATOM      4  N   UNL     1       1.187  -4.019   2.390  0.00  0.00    -0.285 N 
ATOM      5  C   UNL     1       2.136  -5.140   2.409  0.00  0.00    +0.115 C 
ATOM      6  C   UNL     1       1.804  -6.054   3.587  0.00  0.00    +0.088 C 
ATOM      7  C   UNL     1       1.780  -5.230   4.878  0.00  0.00    +0.181 C 
ATOM      8  C   UNL     1       0.692  -4.157   4.775  0.00  0.00    +0.088 C 
ATOM      9  C   UNL     1       1.016  -3.218   3.610  0.00  0.00    +0.115 C 
ATOM     10  N   UNL     1       3.081  -4.582   5.062  0.00  0.00    -0.274 N 
ATOM     11  C   UNL     1       3.504  -4.250   6.304  0.00  0.00    +0.250 C 
ATOM     12  O   UNL     1       4.553  -3.658   6.475  0.00  0.00    -0.270 OA
ATOM     13  C   UNL     1       2.647  -4.629   7.446  0.00  0.00    +0.078 A 
ATOM     14  C   UNL     1       2.823  -4.078   8.711  0.00  0.00    +0.017 A 
ATOM     15  C   UNL     1       1.994  -4.468   9.743  0.00  0.00    +0.001 A 
ATOM     16  C   UNL     1       0.993  -5.400   9.524  0.00  0.00    +0.004 A 
ATOM     17  C   UNL     1       0.810  -5.954   8.271  0.00  0.00    +0.046 A 
ATOM     18  C   UNL     1       1.632  -5.574   7.225  0.00  0.00    +0.135 A 
ATOM     19  O   UNL     1       1.487  -6.091   5.981  0.00  0.00    -0.468 OA
ATOM     20  H   UNL     1      -0.445  -2.033   2.145  0.00  0.00    +0.151 HD
ATOM     21  H   UNL     1       3.716  -4.365   4.191  0.00  0.00    +0.153 HD
ENDROOT
BRANCH   1  22
ATOM     22  C   UNL     1      -0.989  -2.274  -0.002  0.00  0.00    +0.115 C 
BRANCH  22  23
ATOM     23  C   UNL     1      -2.283  -3.039  -0.115  0.00  0.00    -0.027 A 
ATOM     24  C   UNL     1      -3.067  -3.240   1.006  0.00  0.00    +0.005 A 
ATOM     25  C   UNL     1      -4.255  -3.938   0.902  0.00  0.00    +0.000 A 
ATOM     26  C   UNL     1      -4.655  -4.444  -0.321  0.00  0.00    +0.000 A 
ATOM     27  C   UNL     1      -3.868  -4.248  -1.441  0.00  0.00    +0.000 A 
ATOM     28  C   UNL     1      -2.682  -3.546  -1.337  0.00  0.00    +0.005 A 
ENDBRANCH  22  23
BRANCH  22  29
ATOM     29  C   UNL     1      -1.284  -0.772   0.005  0.00  0.00    +0.147 C 
BRANCH  29  30
ATOM     30  C   UNL     1       0.013  -0.005  -0.006  0.00  0.00    +0.309 C 
ATOM     31  O   UNL     1       1.065  -0.599  -0.019  0.00  0.00    -0.251 OA
BRANCH  30  32
ATOM     32  O   UNL     1      -0.001   1.337  -0.002  0.00  0.00    -0.465 OA
BRANCH  32  34
ATOM     33  C   UNL     1       1.070   3.524  -0.006  0.00  0.00    +0.048 C 
ATOM     34  C   UNL     1       1.286   2.009  -0.013  0.00  0.00    +0.229 C 
ENDBRANCH  32  34
ENDBRANCH  30  32
ENDBRANCH  29  30
ENDBRANCH  22  29
ENDBRANCH   1  22
TORSDOF 6
