REMARK  Name = ZINC44230872
REMARK  8 active torsions:
REMARK  status: ('A' for Active; 'I' for Inactive)
REMARK    1  A    between atoms: C_1  and  C_2
REMARK    2  A    between atoms: C_2  and  C_3
REMARK    3  A    between atoms: C_3  and  C_4
REMARK    4  A    between atoms: C_4  and  C_5
REMARK    5  A    between atoms: C_5  and  C_6
REMARK    6  A    between atoms: C_9  and  C_12
REMARK    7  A    between atoms: C_12  and  C_14
REMARK    8  A    between atoms: C_18  and  C_23
REMARK                            x       y       z     vdW  Elec       q    Type
REMARK                         _______ _______ _______ _____ _____    ______ ____
ROOT
ATOM      1  C   UNL     1       2.629  -9.017   1.704  0.00  0.00    +0.176 A 
ATOM      2  C   UNL     1       2.690 -10.367   1.541  0.00  0.00    +0.061 A 
ATOM      3  C   UNL     1       3.889 -10.625   0.747  0.00  0.00    +0.021 A 
ATOM      4  C   UNL     1       4.499 -11.780   0.250  0.00  0.00    +0.020 A 
ATOM      5  C   UNL     1       5.649 -11.679  -0.479  0.00  0.00    +0.009 A 
ATOM      6  C   UNL     1       6.216 -10.436  -0.729  0.00  0.00    +0.012 A 
ATOM      7  C   UNL     1       5.631  -9.285  -0.248  0.00  0.00    +0.047 A 
ATOM      8  C   UNL     1       4.460  -9.363   0.496  0.00  0.00    +0.136 A 
ATOM      9  O   UNL     1       3.674  -8.436   1.079  0.00  0.00    -0.452 OA
ENDROOT
BRANCH   5  10
ATOM     10  C   UNL     1       6.308 -12.924  -1.016  0.00  0.00    +0.282 C 
ATOM     11  O   UNL     1       6.676 -13.784   0.076  0.00  0.00    -0.345 OA
ATOM     12  C   UNL     1       7.924 -14.391  -0.337  0.00  0.00    +0.191 C 
ATOM     13  C   UNL     1       8.602 -13.228  -1.103  0.00  0.00    +0.191 C 
ATOM     14  O   UNL     1       7.491 -12.568  -1.743  0.00  0.00    -0.345 OA
ENDBRANCH   5  10
BRANCH   1  15
ATOM     15  C   UNL     1       1.581  -8.302   2.441  0.00  0.00    +0.228 C 
ATOM     16  O   UNL     1       0.730  -8.925   3.048  0.00  0.00    -0.283 OA
BRANCH  15  20
ATOM     17  C   UNL     1       1.520  -4.054   2.459  0.00  0.00    -0.047 A 
ATOM     18  C   UNL     1       0.483  -4.761   3.043  0.00  0.00    +0.004 A 
ATOM     19  C   UNL     1       0.496  -6.140   3.041  0.00  0.00    +0.012 A 
ATOM     20  C   UNL     1       1.560  -6.824   2.447  0.00  0.00    +0.025 A 
ATOM     21  C   UNL     1       2.603  -6.105   1.861  0.00  0.00    +0.012 A 
ATOM     22  C   UNL     1       2.574  -4.726   1.865  0.00  0.00    +0.004 A 
BRANCH  17  23
ATOM     23  C   UNL     1       1.498  -2.548   2.466  0.00  0.00    +0.035 C 
BRANCH  23  24
ATOM     24  C   UNL     1       0.780  -2.042   1.213  0.00  0.00    +0.005 C 
BRANCH  24  25
ATOM     25  C   UNL     1       0.758  -0.513   1.220  0.00  0.00    +0.000 C 
BRANCH  25  27
ATOM     26  C   UNL     1       0.018   1.522  -0.026  0.00  0.00    +0.004 C 
ATOM     27  C   UNL     1       0.040  -0.007  -0.033  0.00  0.00    -0.003 C 
ENDBRANCH  25  27
ENDBRANCH  24  25
ENDBRANCH  23  24
ENDBRANCH  17  23
ENDBRANCH  15  20
ENDBRANCH   1  15
TORSDOF 7
