REMARK  Name = ZINC09339448
REMARK  9 active torsions:
REMARK  status: ('A' for Active; 'I' for Inactive)
REMARK    1  A    between atoms: C_1  and  C_2
REMARK    2  A    between atoms: C_2  and  O_3
REMARK    3  A    between atoms: O_3  and  C_4
REMARK    4  A    between atoms: C_4  and  C_6
REMARK    5  A    between atoms: C_7  and  C_33
REMARK    6  A    between atoms: C_12  and  C_28
REMARK    7  A    between atoms: C_14  and  C_19
REMARK    8  A    between atoms: C_19  and  C_21
REMARK    9  A    between atoms: C_24  and  C_27
REMARK                            x       y       z     vdW  Elec       q    Type
REMARK                         _______ _______ _______ _____ _____    ______ ____
ROOT
ATOM      1  C   UNL     1      -2.840  -2.277  -0.173  0.00  0.00    +0.120 A 
ATOM      2  C   UNL     1      -3.205  -3.617  -0.133  0.00  0.00    +0.062 A 
ATOM      3  N   UNL     1      -4.480  -3.899  -0.080  0.00  0.00    -0.229 NA
ATOM      4  C   UNL     1      -5.401  -2.947  -0.062  0.00  0.00    +0.169 A 
ATOM      5  S   UNL     1      -4.447  -1.497  -0.119  0.00  0.00    -0.045 S 
ATOM      6  N   UNL     1      -6.776  -3.076  -0.007  0.00  0.00    -0.231 N 
ATOM      7  C   UNL     1      -7.746  -1.975   0.015  0.00  0.00    +0.158 C 
ATOM      8  C   UNL     1      -9.112  -2.618   0.074  0.00  0.00    +0.077 C 
ATOM      9  C   UNL     1      -8.912  -3.957   0.093  0.00  0.00    +0.250 C 
ATOM     10  C   UNL     1      -7.462  -4.232   0.042  0.00  0.00    +0.293 C 
ATOM     11  O   UNL     1      -6.962  -5.340   0.045  0.00  0.00    -0.266 OA
ATOM     12  O   UNL     1      -9.886  -4.895   0.149  0.00  0.00    -0.282 OA
ATOM     13  C   UNL     1      -2.166  -4.708  -0.152  0.00  0.00    +0.067 C 
ENDROOT
BRANCH   7  14
ATOM     14  C   UNL     1      -7.620  -1.148  -1.238  0.00  0.00    +0.015 A 
ATOM     15  C   UNL     1      -7.625   0.201  -1.375  0.00  0.00    +0.013 A 
ATOM     16  C   UNL     1      -7.489   0.747  -2.638  0.00  0.00    +0.008 A 
ATOM     17  C   UNL     1      -7.367  -0.083  -3.703  0.00  0.00    +0.045 A 
ATOM     18  S   UNL     1      -7.433  -1.690  -2.929  0.00  0.00    -0.099 S 
ENDBRANCH   7  14
BRANCH   1  19
ATOM     19  C   UNL     1      -1.511  -1.673  -0.234  0.00  0.00    +0.348 C 
ATOM     20  O   UNL     1      -0.521  -2.381  -0.258  0.00  0.00    -0.244 OA
BRANCH  19  21
ATOM     21  O   UNL     1      -1.381  -0.331  -0.265  0.00  0.00    -0.461 OA
BRANCH  21  23
ATOM     22  C   UNL     1      -0.104   1.720  -0.352  0.00  0.00    +0.048 C 
ATOM     23  C   UNL     1      -0.051   0.191  -0.325  0.00  0.00    +0.229 C 
ENDBRANCH  21  23
ENDBRANCH  19  21
ENDBRANCH   1  19
BRANCH   8  24
ATOM     24  C   UNL     1     -10.403  -1.926   0.111  0.00  0.00    +0.195 C 
ATOM     25  O   UNL     1     -11.174  -2.025  -0.826  0.00  0.00    -0.287 OA
BRANCH  24  26
ATOM     26  C   UNL     1     -10.771  -1.108   1.286  0.00  0.00    +0.022 A 
ATOM     27  C   UNL     1      -9.858  -0.928   2.328  0.00  0.00    +0.012 A 
ATOM     28  C   UNL     1     -10.205  -0.159   3.419  0.00  0.00    +0.004 A 
ATOM     29  C   UNL     1     -11.458   0.425   3.488  0.00  0.00    -0.050 A 
ATOM     30  C   UNL     1     -12.369   0.246   2.461  0.00  0.00    +0.004 A 
ATOM     31  C   UNL     1     -12.033  -0.516   1.362  0.00  0.00    +0.012 A 
ATOM     32  C   UNL     1     -11.832   1.259   4.686  0.00  0.00    +0.044 C 
ENDBRANCH  24  26
ENDBRANCH   8  24
TORSDOF 6
