REMARK  Name = ZINC11909053
REMARK  13 active torsions:
REMARK  status: ('A' for Active; 'I' for Inactive)
REMARK    1  A    between atoms: C_1  and  N_69
REMARK    2  A    between atoms: C_2  and  N_69
REMARK    3  A    between atoms: C_3  and  C_4
REMARK    4  A    between atoms: C_3  and  N_69
REMARK    5  A    between atoms: C_4  and  C_5
REMARK    6  A    between atoms: C_5  and  N_6
REMARK    7  A    between atoms: C_9  and  C_13
REMARK    8  A    between atoms: C_9  and  C_21
REMARK    9  A    between atoms: C_13  and  C_14
REMARK   10  A    between atoms: C_26  and  C_27
REMARK   11  A    between atoms: C_26  and  N_71
REMARK   12  A    between atoms: C_30  and  C_32
REMARK   13  A    between atoms: C_32  and  O_33
REMARK                            x       y       z     vdW  Elec       q    Type
REMARK                         _______ _______ _______ _____ _____    ______ ____
ROOT
ATOM      1  N   UNL     1      -2.256   1.993   3.223  0.00  0.00    -0.224 N 
ATOM      2  C   UNL     1      -3.145   2.013   2.211  0.00  0.00    +0.247 C 
ATOM      3  O   UNL     1      -3.940   2.891   1.952  0.00  0.00    -0.273 OA
ATOM      4  C   UNL     1      -2.944   0.710   1.463  0.00  0.00    +0.119 C 
ATOM      5  N   UNL     1      -1.864   0.044   2.211  0.00  0.00    -0.284 N 
ATOM      6  C   UNL     1      -1.529   0.870   3.219  0.00  0.00    +0.309 C 
ATOM      7  O   UNL     1      -0.662   0.623   4.035  0.00  0.00    -0.252 OA
ATOM      8  H   UNL     1      -1.470  -0.820   2.015  0.00  0.00    +0.151 HD
ENDROOT
BRANCH   4   9
ATOM      9  C   UNL     1      -4.220  -0.135   1.494  0.00  0.00    +0.018 C 
ATOM     10  C   UNL     1      -5.310   0.554   0.668  0.00  0.00    -0.013 C 
ATOM     11  C   UNL     1      -6.601  -0.263   0.754  0.00  0.00    -0.078 C 
ATOM     12  C   UNL     1      -6.009  -1.076   2.959  0.00  0.00    -0.078 C 
ATOM     13  C   UNL     1      -4.701  -0.282   2.940  0.00  0.00    -0.013 C 
ATOM     14  N   UNL     1      -7.024  -0.347   2.168  0.00  0.00    +0.384 N 
ATOM     15  H   UNL     1      -7.120   0.603   2.544  0.00  0.00    -0.081 HD
BRANCH  14  16
ATOM     16  C   UNL     1      -8.328  -1.035   2.264  0.00  0.00    -0.003 C 
BRANCH  16  17
ATOM     17  C   UNL     1      -9.273  -0.446   1.249  0.00  0.00    +0.089 A 
ATOM     18  C   UNL     1      -9.449  -0.886  -0.010  0.00  0.00    +0.043 A 
ATOM     19  C   UNL     1     -10.421  -0.048  -0.604  0.00  0.00    +0.047 A 
ATOM     20  C   UNL     1     -10.781   0.853   0.327  0.00  0.00    +0.130 A 
ATOM     21  O   UNL     1     -10.086   0.604   1.450  0.00  0.00    -0.464 OA
BRANCH  20  22
ATOM     22  C   UNL     1     -11.796   1.952   0.145  0.00  0.00    +0.230 C 
BRANCH  22  23
ATOM     23  O   UNL     1     -13.090   1.470   0.513  0.00  0.00    -0.387 OA
ATOM     24  H   UNL     1     -13.795   2.126   0.421  0.00  0.00    +0.210 HD
ENDBRANCH  22  23
ENDBRANCH  20  22
ENDBRANCH  16  17
ENDBRANCH  14  16
ENDBRANCH   4   9
BRANCH   1  25
ATOM     25  C   UNL     1      -2.105   3.067   4.207  0.00  0.00    +0.116 C 
BRANCH  25  26
ATOM     26  C   UNL     1      -1.074   4.079   3.704  0.00  0.00    +0.001 C 
BRANCH  26  27
ATOM     27  C   UNL     1      -0.916   5.202   4.731  0.00  0.00    -0.078 C 
BRANCH  27  30
ATOM     28  C   UNL     1       0.081   7.379   5.086  0.00  0.00    -0.097 C 
ATOM     29  C   UNL     1       1.412   5.571   4.180  0.00  0.00    -0.097 C 
ATOM     30  N   UNL     1       0.066   6.181   4.221  0.00  0.00    +0.376 N 
ATOM     31  H   UNL     1      -0.203   6.459   3.270  0.00  0.00    -0.083 HD
ENDBRANCH  27  30
ENDBRANCH  26  27
ENDBRANCH  25  26
ENDBRANCH   1  25
BRANCH   4  32
ATOM     32  C   UNL     1      -2.513   0.978   0.020  0.00  0.00    +0.070 C 
BRANCH  32  33
ATOM     33  C   UNL     1      -1.219   1.750   0.017  0.00  0.00    -0.045 A 
ATOM     34  C   UNL     1      -0.013   1.076   0.008  0.00  0.00    +0.006 A 
ATOM     35  C   UNL     1       1.175   1.783   0.000  0.00  0.00    +0.038 A 
ATOM     36  C   UNL     1       1.156   3.167   0.008  0.00  0.00    +0.123 A 
ATOM     37  C   UNL     1      -0.053   3.842   0.022  0.00  0.00    +0.038 A 
ATOM     38  C   UNL     1      -1.240   3.133   0.030  0.00  0.00    +0.006 A 
ATOM     39  F   UNL     1       2.316   3.859  -0.000  0.00  0.00    -0.205 F 
ENDBRANCH  32  33
ENDBRANCH   4  32
TORSDOF 11
