REMARK  Name = ZINC64242815
REMARK  7 active torsions:
REMARK  status: ('A' for Active; 'I' for Inactive)
REMARK    1  A    between atoms: C_5  and  C_7
REMARK    2  A    between atoms: C_7  and  C_8
REMARK    3  A    between atoms: C_8  and  N_9
REMARK    4  A    between atoms: N_12  and  N_13
REMARK    5  A    between atoms: N_13  and  C_14
REMARK    6  A    between atoms: C_14  and  N_16
REMARK    7  A    between atoms: N_16  and  C_17
REMARK                            x       y       z     vdW  Elec       q    Type
REMARK                         _______ _______ _______ _____ _____    ______ ____
ROOT
ATOM      1  N   UNL     1       1.395  -4.167   1.402  0.00  0.00    -0.298 N 
ATOM      2  C   UNL     1       1.517  -4.846   2.560  0.00  0.00    +0.316 C 
ATOM      3  O   UNL     1       1.611  -4.243   3.611  0.00  0.00    -0.251 OA
ATOM      4  N   UNL     1       1.535  -6.194   2.552  0.00  0.00    -0.219 N 
ATOM      5  H   UNL     1       1.320  -4.648   0.563  0.00  0.00    +0.150 HD
ATOM      6  H   UNL     1       1.623  -6.683   3.385  0.00  0.00    +0.174 HD
ENDROOT
BRANCH   4   7
ATOM      7  N   UNL     1       1.427  -6.889   1.340  0.00  0.00    -0.245 N 
ATOM      8  H   UNL     1       1.339  -6.400   0.507  0.00  0.00    +0.172 HD
BRANCH   7   9
ATOM      9  C   UNL     1       1.445  -8.236   1.333  0.00  0.00    +0.147 C 
ATOM     10  S   UNL     1       1.313  -9.086  -0.148  0.00  0.00    -0.017 S 
BRANCH   9  11
ATOM     11  N   UNL     1       1.567  -8.916   2.490  0.00  0.00    -0.323 N 
ATOM     12  H   UNL     1       1.642  -8.434   3.329  0.00  0.00    +0.148 HD
BRANCH  11  13
ATOM     13  C   UNL     1       1.587 -10.380   2.482  0.00  0.00    +0.072 C 
ATOM     14  C   UNL     1       3.030 -10.888   2.284  0.00  0.00    +0.022 C 
ATOM     15  C   UNL     1       3.538 -11.159   3.722  0.00  0.00    +0.002 C 
ATOM     16  C   UNL     1       2.285 -11.740   4.423  0.00  0.00    +0.002 C 
ATOM     17  C   UNL     1       1.113 -10.922   3.842  0.00  0.00    +0.022 C 
ENDBRANCH  11  13
ENDBRANCH   9  11
ENDBRANCH   7   9
ENDBRANCH   4   7
BRANCH   1  18
ATOM     18  C   UNL     1       1.375  -2.702   1.411  0.00  0.00    +0.110 C 
BRANCH  18  19
ATOM     19  C   UNL     1       1.229  -2.186  -0.022  0.00  0.00    +0.055 C 
BRANCH  19  24
ATOM     20  C   UNL     1      -0.017   1.378   0.010  0.00  0.00    +0.000 A 
ATOM     21  C   UNL     1       1.171   2.086   0.002  0.00  0.00    +0.001 A 
ATOM     22  C   UNL     1       2.377   1.412  -0.013  0.00  0.00    +0.015 A 
ATOM     23  C   UNL     1       2.397   0.029  -0.021  0.00  0.00    +0.021 A 
ATOM     24  C   UNL     1       1.208  -0.679  -0.013  0.00  0.00    -0.032 A 
ATOM     25  C   UNL     1       0.002  -0.004   0.002  0.00  0.00    +0.005 A 
ATOM     26 BR   UNL     1       4.047  -0.894  -0.042  0.00  0.00    -0.050 Br
ENDBRANCH  19  24
ENDBRANCH  18  19
ENDBRANCH   1  18
TORSDOF 7
