REMARK  Name = ZINC11068527
REMARK  7 active torsions:
REMARK  status: ('A' for Active; 'I' for Inactive)
REMARK    1  A    between atoms: C_1  and  C_2
REMARK    2  A    between atoms: C_15  and  C_17
REMARK    3  A    between atoms: C_17  and  N_52
REMARK    4  A    between atoms: C_18  and  N_52
REMARK    5  A    between atoms: C_19  and  C_20
REMARK    6  A    between atoms: C_19  and  N_52
REMARK    7  A    between atoms: N_22  and  C_23
REMARK                            x       y       z     vdW  Elec       q    Type
REMARK                         _______ _______ _______ _____ _____    ______ ____
ROOT
ATOM      1  C   UNL     1      -7.304   1.427   0.229  0.00  0.00    +0.019 C 
ENDROOT
BRANCH   1  15
ATOM      2  C   UNL     1     -11.513   3.099   1.189  0.00  0.00    +0.029 C 
ATOM      3  C   UNL     1     -10.786   2.982  -0.152  0.00  0.00    +0.087 C 
ATOM      4  C   UNL     1     -11.769   2.513  -1.231  0.00  0.00    +0.118 C 
ATOM      5  C   UNL     1     -11.020   2.010  -2.436  0.00  0.00    +0.219 C 
ATOM      6  O   UNL     1     -10.959   2.693  -3.436  0.00  0.00    -0.275 OA
ATOM      7  N   UNL     1     -10.416   0.802  -2.410  0.00  0.00    -0.284 N 
ATOM      8  C   UNL     1     -10.396   0.043  -1.235  0.00  0.00    +0.055 A 
ATOM      9  C   UNL     1     -10.732  -1.301  -1.251  0.00  0.00    +0.025 A 
ATOM     10  C   UNL     1     -10.651  -2.044  -0.087  0.00  0.00    +0.002 A 
ATOM     11  C   UNL     1     -10.237  -1.450   1.091  0.00  0.00    +0.002 A 
ATOM     12  C   UNL     1      -9.911  -0.107   1.118  0.00  0.00    +0.025 A 
ATOM     13  C   UNL     1      -9.997   0.647  -0.042  0.00  0.00    +0.058 A 
ATOM     14  N   UNL     1      -9.693   2.015  -0.029  0.00  0.00    -0.268 N 
ATOM     15  C   UNL     1      -8.418   2.433   0.098  0.00  0.00    +0.204 C 
ATOM     16  O   UNL     1      -8.167   3.620   0.107  0.00  0.00    -0.277 OA
ATOM     17  H   UNL     1      -9.993   0.458  -3.213  0.00  0.00    +0.155 HD
ENDBRANCH   1  15
BRANCH   1  19
ATOM     18  C   UNL     1      -5.955   2.889   1.610  0.00  0.00    -0.095 C 
ATOM     19  N   UNL     1      -6.019   2.148   0.332  0.00  0.00    +0.389 N 
ATOM     20  H   UNL     1      -5.948   2.817  -0.444  0.00  0.00    -0.081 HD
BRANCH  19  21
ATOM     21  C   UNL     1      -4.894   1.193   0.246  0.00  0.00    +0.019 C 
BRANCH  21  22
ATOM     22  C   UNL     1      -3.606   1.967   0.131  0.00  0.00    +0.201 C 
ATOM     23  O   UNL     1      -3.625   3.179   0.138  0.00  0.00    -0.278 OA
ATOM     24  N   UNL     1      -2.434   1.311   0.020  0.00  0.00    -0.285 N 
ATOM     25  H   UNL     1      -2.424   0.344  -0.051  0.00  0.00    +0.155 HD
BRANCH  24  26
ATOM     26  C   UNL     1      -1.229   2.027   0.007  0.00  0.00    +0.072 A 
ATOM     27  C   UNL     1      -1.171   3.279  -0.591  0.00  0.00    +0.029 A 
ATOM     28  C   UNL     1       0.019   3.981  -0.609  0.00  0.00    +0.043 A 
ATOM     29  C   UNL     1       1.153   3.442  -0.025  0.00  0.00    +0.161 A 
ATOM     30  C   UNL     1       1.097   2.195   0.579  0.00  0.00    +0.195 A 
ATOM     31  C   UNL     1      -0.093   1.488   0.598  0.00  0.00    +0.182 A 
ATOM     32  F   UNL     1      -0.148   0.273   1.187  0.00  0.00    -0.200 F 
ATOM     33  F   UNL     1       2.205   1.671   1.147  0.00  0.00    -0.199 F 
ATOM     34  F   UNL     1       2.314   4.132  -0.045  0.00  0.00    -0.202 F 
ENDBRANCH  24  26
ENDBRANCH  21  22
ENDBRANCH  19  21
ENDBRANCH   1  19
TORSDOF 5
