REMARK  Name = ZINC43221900
REMARK  9 active torsions:
REMARK  status: ('A' for Active; 'I' for Inactive)
REMARK    1  A    between atoms: C_1  and  C_2
REMARK    2  A    between atoms: C_7  and  C_8
REMARK    3  A    between atoms: N_16  and  C_19
REMARK    4  A    between atoms: C_24  and  C_25
REMARK    5  A    between atoms: C_26  and  C_28
REMARK    6  A    between atoms: C_26  and  C_35
REMARK    7  A    between atoms: C_28  and  C_29
REMARK    8  A    between atoms: C_29  and  C_30
REMARK    9  A    between atoms: C_30  and  N_31
REMARK                            x       y       z     vdW  Elec       q    Type
REMARK                         _______ _______ _______ _____ _____    ______ ____
ROOT
ATOM      1  C   UNL     1       0.242   0.057   2.487  0.00  0.00    -0.026 C 
ATOM      2  C   UNL     1       1.640   0.634   2.638  0.00  0.00    +0.077 C 
ATOM      3  C   UNL     1       2.344  -0.624   3.278  0.00  0.00    +0.086 C 
ATOM      4  C   UNL     1       3.737  -0.305   3.094  0.00  0.00    +0.229 C 
ATOM      5  O   UNL     1       4.661  -0.584   3.828  0.00  0.00    -0.275 OA
ATOM      6  N   UNL     1       3.793   0.382   1.907  0.00  0.00    -0.210 N 
ATOM      7  C   UNL     1       2.554   0.787   1.462  0.00  0.00    +0.229 C 
ATOM      8  O   UNL     1       2.258   1.180   0.354  0.00  0.00    -0.275 OA
ATOM      9  C   UNL     1       1.400  -0.990   4.348  0.00  0.00    +0.048 C 
ATOM     10  N   UNL     1       0.065  -0.875   3.642  0.00  0.00    +0.395 N 
ATOM     11  H   UNL     1      -0.624  -0.503   4.279  0.00  0.00    -0.083 HD
ATOM     12  H   UNL     1      -0.232  -1.780   3.308  0.00  0.00    -0.083 HD
ENDROOT
BRANCH   1  19
ATOM     13  C   UNL     1      -0.694   1.411   0.113  0.00  0.00    +0.044 C 
ATOM     14  C   UNL     1      -0.321  -0.048   0.051  0.00  0.00    -0.049 A 
ATOM     15  C   UNL     1      -0.422  -0.737  -1.143  0.00  0.00    +0.003 A 
ATOM     16  C   UNL     1      -0.080  -2.075  -1.200  0.00  0.00    +0.000 A 
ATOM     17  C   UNL     1       0.363  -2.724  -0.062  0.00  0.00    +0.000 A 
ATOM     18  C   UNL     1       0.465  -2.035   1.131  0.00  0.00    +0.002 A 
ATOM     19  C   UNL     1       0.127  -0.696   1.187  0.00  0.00    -0.058 A 
ENDBRANCH   1  19
BRANCH   6  20
ATOM     20  C   UNL     1       4.985   0.654   1.222  0.00  0.00    +0.047 A 
ATOM     21  C   UNL     1       5.463  -0.241   0.274  0.00  0.00    +0.024 A 
ATOM     22  C   UNL     1       6.638   0.030  -0.399  0.00  0.00    +0.002 A 
ATOM     23  C   UNL     1       7.338   1.192  -0.131  0.00  0.00    +0.000 A 
ATOM     24  C   UNL     1       6.865   2.085   0.812  0.00  0.00    +0.005 A 
ATOM     25  C   UNL     1       5.687   1.822   1.485  0.00  0.00    -0.029 A 
ATOM     26  C   UNL     1       5.168   2.800   2.508  0.00  0.00    +0.045 C 
ENDBRANCH   6  20
BRANCH   9  27
ATOM     27  C   UNL     1       1.500  -0.026   5.503  0.00  0.00    +0.346 C 
ATOM     28  O   UNL     1       0.524   0.622   5.841  0.00  0.00    -0.248 OA
ATOM     29  O   UNL     1       2.556   0.106   6.098  0.00  0.00    -0.248 OA
ENDBRANCH   9  27
BRANCH   9  30
ATOM     30  C   UNL     1       1.638  -2.427   4.816  0.00  0.00    +0.001 C 
BRANCH  30  31
ATOM     31  C   UNL     1       0.566  -2.816   5.835  0.00  0.00    +0.018 C 
BRANCH  31  32
ATOM     32  C   UNL     1       0.804  -4.253   6.303  0.00  0.00    +0.105 C 
BRANCH  32  33
ATOM     33  N   UNL     1      -0.223  -4.625   7.279  0.00  0.00    -0.300 N 
ATOM     34  C   UNL     1      -0.213  -5.855   7.832  0.00  0.00    +0.297 C 
ATOM     35  O   UNL     1       0.647  -6.655   7.519  0.00  0.00    -0.253 OA
ATOM     36  N   UNL     1      -1.158  -6.197   8.730  0.00  0.00    -0.313 N 
ATOM     37  H   UNL     1      -0.909  -3.987   7.529  0.00  0.00    +0.150 HD
ATOM     38  H   UNL     1      -1.844  -5.559   8.979  0.00  0.00    +0.146 HD
ATOM     39  H   UNL     1      -1.151  -7.082   9.128  0.00  0.00    +0.146 HD
ENDBRANCH  32  33
ENDBRANCH  31  32
ENDBRANCH  30  31
ENDBRANCH   9  30
TORSDOF 7
