REMARK  Name = ZINC10694025
REMARK  9 active torsions:
REMARK  status: ('A' for Active; 'I' for Inactive)
REMARK    1  A    between atoms: C_1  and  C_2
REMARK    2  A    between atoms: N_11  and  C_15
REMARK    3  A    between atoms: C_15  and  C_16
REMARK    4  A    between atoms: C_16  and  O_18
REMARK    5  A    between atoms: O_18  and  C_19
REMARK    6  A    between atoms: C_19  and  C_20
REMARK    7  A    between atoms: N_22  and  C_23
REMARK    8  A    between atoms: C_28  and  C_29
REMARK    9  A    between atoms: C_29  and  C_31
REMARK                            x       y       z     vdW  Elec       q    Type
REMARK                         _______ _______ _______ _____ _____    ______ ____
ROOT
ATOM      1  C   UNL     1      -3.836   2.363   1.444  0.00  0.00    +0.328 C 
ENDROOT
BRANCH   1   2
ATOM      2  C   UNL     1      -2.627   1.564   1.032  0.00  0.00    +0.255 C 
ATOM      3  O   UNL     1      -2.709   0.361   0.906  0.00  0.00    -0.272 OA
ATOM      4  N   UNL     1      -1.454   2.187   0.804  0.00  0.00    -0.282 N 
ATOM      5  H   UNL     1      -1.406   3.155   0.827  0.00  0.00    +0.155 HD
BRANCH   4   6
ATOM      6  C   UNL     1      -0.310   1.440   0.535  0.00  0.00    +0.044 A 
ATOM      7  C   UNL     1      -0.251   0.100   0.895  0.00  0.00    +0.024 A 
ATOM      8  C   UNL     1       0.882  -0.640   0.622  0.00  0.00    +0.002 A 
ATOM      9  C   UNL     1       1.967  -0.055  -0.012  0.00  0.00    +0.001 A 
ATOM     10  C   UNL     1       1.927   1.272  -0.377  0.00  0.00    +0.013 A 
ATOM     11  C   UNL     1       0.787   2.035  -0.107  0.00  0.00    +0.043 A 
BRANCH  11  12
ATOM     12  C   UNL     1       0.738   3.457  -0.495  0.00  0.00    +0.195 C 
ATOM     13  O   UNL     1       1.343   4.286   0.157  0.00  0.00    -0.287 OA
BRANCH  12  14
ATOM     14  C   UNL     1      -0.048   3.873  -1.676  0.00  0.00    +0.022 A 
ATOM     15  C   UNL     1      -0.645   2.913  -2.495  0.00  0.00    +0.012 A 
ATOM     16  C   UNL     1      -1.381   3.309  -3.592  0.00  0.00    +0.001 A 
ATOM     17  C   UNL     1      -1.519   4.654  -3.888  0.00  0.00    +0.000 A 
ATOM     18  C   UNL     1      -0.925   5.611  -3.083  0.00  0.00    +0.001 A 
ATOM     19  C   UNL     1      -0.191   5.229  -1.980  0.00  0.00    +0.012 A 
ENDBRANCH  12  14
ENDBRANCH  11  12
ENDBRANCH   4   6
ENDBRANCH   1   2
BRANCH   1  20
ATOM     20  O   UNL     1      -4.967   1.470   1.628  0.00  0.00    -0.454 OA
BRANCH  20  21
ATOM     21  C   UNL     1      -6.130   2.028   1.998  0.00  0.00    +0.326 C 
ATOM     22  O   UNL     1      -6.201   3.223   2.164  0.00  0.00    -0.249 OA
BRANCH  21  23
ATOM     23  C   UNL     1      -7.347   1.164   2.208  0.00  0.00    +0.238 C 
BRANCH  23  33
ATOM     24  C   UNL     1     -11.431   1.135   3.934  0.00  0.00    +0.010 C 
ATOM     25  C   UNL     1     -11.187   2.526   4.525  0.00  0.00    +0.018 C 
ATOM     26  C   UNL     1     -10.867   2.397   6.016  0.00  0.00    +0.006 C 
ATOM     27  C   UNL     1     -10.604   3.786   6.602  0.00  0.00    +0.000 C 
ATOM     28  C   UNL     1      -9.411   4.424   5.887  0.00  0.00    +0.003 C 
ATOM     29  C   UNL     1      -9.725   4.561   4.395  0.00  0.00    +0.035 C 
ATOM     30  C   UNL     1     -10.015   3.185   3.806  0.00  0.00    +0.115 C 
ATOM     31  C   UNL     1      -8.790   2.303   3.884  0.00  0.00    +0.247 C 
ATOM     32  O   UNL     1      -8.208   1.942   4.884  0.00  0.00    -0.273 OA
ATOM     33  N   UNL     1      -8.479   2.005   2.605  0.00  0.00    -0.213 N 
ATOM     34  C   UNL     1      -9.338   2.566   1.745  0.00  0.00    +0.310 C 
ATOM     35  O   UNL     1      -9.266   2.438   0.539  0.00  0.00    -0.252 OA
ATOM     36  N   UNL     1     -10.289   3.289   2.367  0.00  0.00    -0.285 N 
ATOM     37  H   UNL     1     -11.011   3.782   1.947  0.00  0.00    +0.151 HD
ENDBRANCH  23  33
ENDBRANCH  21  23
ENDBRANCH  20  21
ENDBRANCH   1  20
TORSDOF 8
