REMARK  Name = ZINC22774405
REMARK  8 active torsions:
REMARK  status: ('A' for Active; 'I' for Inactive)
REMARK    1  A    between atoms: C_1  and  C_2
REMARK    2  A    between atoms: C_2  and  C_28
REMARK    3  A    between atoms: C_4  and  N_9
REMARK    4  A    between atoms: N_9  and  C_10
REMARK    5  A    between atoms: C_16  and  N_18
REMARK    6  A    between atoms: N_18  and  C_19
REMARK    7  A    between atoms: C_24  and  C_26
REMARK    8  A    between atoms: C_24  and  C_27
REMARK                            x       y       z     vdW  Elec       q    Type
REMARK                         _______ _______ _______ _____ _____    ______ ____
ROOT
ATOM      1  C   UNL     1       4.211   0.656  -2.367  0.00  0.00    +0.090 C 
ATOM      2  C   UNL     1       4.246   2.178  -2.219  0.00  0.00    +0.024 C 
ATOM      3  C   UNL     1       3.513   2.823  -3.397  0.00  0.00    +0.002 C 
ATOM      4  C   UNL     1       4.199   2.422  -4.705  0.00  0.00    +0.002 C 
ATOM      5  C   UNL     1       4.164   0.900  -4.854  0.00  0.00    +0.024 C 
ATOM      6  C   UNL     1       4.897   0.256  -3.675  0.00  0.00    +0.090 C 
ENDROOT
BRANCH   1   7
ATOM      7  N   UNL     1       2.819   0.199  -2.386  0.00  0.00    -0.342 N 
ATOM      8  H   UNL     1       2.366   0.060  -3.232  0.00  0.00    +0.146 HD
BRANCH   7  12
ATOM      9  C   UNL     1      -0.019   1.526   0.010  0.00  0.00    +0.011 C 
ATOM     10  C   UNL     1       0.002  -0.004   0.002  0.00  0.00    -0.023 C 
ATOM     11  C   UNL     1       0.732  -0.500  -1.249  0.00  0.00    +0.057 C 
ATOM     12  C   UNL     1       2.162  -0.031  -1.215  0.00  0.00    +0.008 C 
ATOM     13  C   UNL     1       2.805   0.166  -0.044  0.00  0.00    +0.064 C 
ATOM     14  C   UNL     1       2.175  -0.051   1.186  0.00  0.00    +0.158 C 
ATOM     15  O   UNL     1       2.789   0.136   2.218  0.00  0.00    -0.293 OA
ATOM     16  C   UNL     1       0.743  -0.514   1.242  0.00  0.00    +0.085 C 
ATOM     17  C   UNL     1      -1.432  -0.536   0.006  0.00  0.00    +0.011 C 
ENDBRANCH   7  12
ENDBRANCH   1   7
BRANCH   6  18
ATOM     18  N   UNL     1       4.863  -1.202  -3.817  0.00  0.00    -0.342 N 
ATOM     19  H   UNL     1       4.174  -1.717  -3.371  0.00  0.00    +0.146 HD
BRANCH  18  20
ATOM     20  C   UNL     1       5.801  -1.834  -4.577  0.00  0.00    +0.008 C 
ATOM     21  C   UNL     1       6.760  -1.106  -5.190  0.00  0.00    +0.064 C 
ATOM     22  C   UNL     1       7.749  -1.706  -5.976  0.00  0.00    +0.158 C 
ATOM     23  O   UNL     1       8.594  -1.015  -6.511  0.00  0.00    -0.293 OA
ATOM     24  C   UNL     1       7.777  -3.200  -6.164  0.00  0.00    +0.085 C 
ATOM     25  C   UNL     1       7.168  -3.873  -4.929  0.00  0.00    -0.023 C 
ATOM     26  C   UNL     1       5.754  -3.333  -4.715  0.00  0.00    +0.057 C 
ATOM     27  C   UNL     1       7.113  -5.386  -5.145  0.00  0.00    +0.011 C 
ATOM     28  C   UNL     1       8.024  -3.558  -3.701  0.00  0.00    +0.011 C 
ENDBRANCH  18  20
ENDBRANCH   6  18
TORSDOF 4
