REMARK  Name = ZINC15954470
REMARK  8 active torsions:
REMARK  status: ('A' for Active; 'I' for Inactive)
REMARK    1  A    between atoms: C_1  and  C_2
REMARK    2  A    between atoms: C_2  and  C_4
REMARK    3  A    between atoms: C_2  and  N_12
REMARK    4  A    between atoms: C_4  and  C_5
REMARK    5  A    between atoms: C_5  and  C_6
REMARK    6  A    between atoms: C_13  and  C_15
REMARK    7  A    between atoms: C_20  and  N_21
REMARK    8  A    between atoms: C_24  and  C_40
REMARK                            x       y       z     vdW  Elec       q    Type
REMARK                         _______ _______ _______ _____ _____    ______ ____
ROOT
ATOM      1  C   UNL     1       6.498   2.487   4.112  0.00  0.00    +0.059 A 
ATOM      2  C   UNL     1       7.319   2.151   5.191  0.00  0.00    +0.015 A 
ATOM      3  C   UNL     1       8.615   1.738   4.966  0.00  0.00    +0.001 A 
ATOM      4  C   UNL     1       9.106   1.650   3.674  0.00  0.00    +0.002 A 
ATOM      5  C   UNL     1       8.304   1.974   2.598  0.00  0.00    +0.025 A 
ATOM      6  C   UNL     1       6.997   2.391   2.805  0.00  0.00    +0.058 A 
ENDROOT
BRANCH   6   7
ATOM      7  N   UNL     1       6.184   2.720   1.718  0.00  0.00    -0.191 N 
ATOM      8  C   UNL     1       5.394   1.839   1.067  0.00  0.00    +0.257 C 
ATOM      9  O   UNL     1       5.217   0.671   1.339  0.00  0.00    -0.272 OA
ATOM     10  C   UNL     1       4.778   2.616  -0.072  0.00  0.00    +0.153 C 
ATOM     11  C   UNL     1       3.269   2.573  -0.022  0.00  0.00    +0.053 A 
ATOM     12  C   UNL     1       2.503   3.687   0.003  0.00  0.00    -0.015 A 
ATOM     13  C   UNL     1       1.122   3.238   0.010  0.00  0.00    +0.003 A 
ATOM     14  C   UNL     1      -0.094   3.929   0.024  0.00  0.00    +0.010 A 
ATOM     15  C   UNL     1      -1.238   3.169   0.030  0.00  0.00    +0.001 A 
ATOM     16  C   UNL     1      -1.202   1.784   0.017  0.00  0.00    +0.002 A 
ATOM     17  C   UNL     1      -0.013   1.076   0.008  0.00  0.00    +0.026 A 
ATOM     18  C   UNL     1       1.165   1.821   0.001  0.00  0.00    +0.047 A 
ATOM     19  N   UNL     1       2.480   1.456  -0.015  0.00  0.00    -0.356 N 
ATOM     20  H   UNL     1       2.805   0.542  -0.020  0.00  0.00    +0.166 HD
ATOM     21  C   UNL     1       2.996   5.111   0.024  0.00  0.00    +0.056 C 
ATOM     22  C   UNL     1       4.482   5.166  -0.361  0.00  0.00    +0.115 C 
ATOM     23  N   UNL     1       5.145   4.016   0.253  0.00  0.00    -0.265 N 
ATOM     24  C   UNL     1       6.092   3.951   1.189  0.00  0.00    +0.317 C 
ATOM     25  O   UNL     1       6.786   4.891   1.523  0.00  0.00    -0.252 OA
ATOM     26  C   UNL     1       5.316   2.179  -1.437  0.00  0.00    +0.048 C 
ENDBRANCH   6   7
BRANCH   1  28
ATOM     27  N   UNL     1       4.636   3.027   5.604  0.00  0.00    -0.309 N 
ATOM     28  C   UNL     1       5.112   2.936   4.346  0.00  0.00    +0.246 C 
ATOM     29  O   UNL     1       4.399   3.224   3.404  0.00  0.00    -0.270 OA
ATOM     30  H   UNL     1       5.205   2.797   6.355  0.00  0.00    +0.149 HD
BRANCH  27  32
ATOM     31  C   UNL     1       3.217   5.002   5.866  0.00  0.00    +0.028 C 
ATOM     32  C   UNL     1       3.260   3.473   5.836  0.00  0.00    +0.070 C 
BRANCH  32  33
ATOM     33  C   UNL     1       2.765   2.922   7.175  0.00  0.00    +0.026 C 
BRANCH  33  34
ATOM     34  C   UNL     1       2.690   1.396   7.103  0.00  0.00    +0.037 C 
BRANCH  34  35
ATOM     35  C   UNL     1       2.202   0.854   8.422  0.00  0.00    -0.047 A 
ATOM     36  C   UNL     1       3.109   0.526   9.412  0.00  0.00    +0.003 A 
ATOM     37  C   UNL     1       2.662   0.034  10.623  0.00  0.00    +0.000 A 
ATOM     38  C   UNL     1       1.308  -0.141  10.841  0.00  0.00    +0.000 A 
ATOM     39  C   UNL     1       0.401   0.182   9.849  0.00  0.00    +0.000 A 
ATOM     40  C   UNL     1       0.848   0.679   8.639  0.00  0.00    +0.003 A 
ENDBRANCH  34  35
ENDBRANCH  33  34
ENDBRANCH  32  33
ENDBRANCH  27  32
ENDBRANCH   1  28
TORSDOF 6
