REMARK  Name = ZINC09828557
REMARK  6 active torsions:
REMARK  status: ('A' for Active; 'I' for Inactive)
REMARK    1  A    between atoms: C_1  and  C_2
REMARK    2  A    between atoms: C_5  and  S_8
REMARK    3  A    between atoms: S_8  and  N_11
REMARK    4  A    between atoms: C_14  and  C_17
REMARK    5  A    between atoms: C_17  and  C_18
REMARK    6  A    between atoms: N_23  and  C_26
REMARK                            x       y       z     vdW  Elec       q    Type
REMARK                         _______ _______ _______ _____ _____    ______ ____
ROOT
ATOM      1  N   UNL     1      -6.837   9.383   0.699  0.00  0.00    -0.194 N 
ATOM      2  C   UNL     1      -5.770   8.970  -0.085  0.00  0.00    +0.178 A 
ATOM      3  N   UNL     1      -5.334   7.746  -0.312  0.00  0.00    -0.228 NA
ATOM      4  C   UNL     1      -4.290   7.527  -1.090  0.00  0.00    +0.059 A 
ATOM      5  C   UNL     1      -3.677   8.590  -1.663  0.00  0.00    +0.072 A 
ATOM      6  S   UNL     1      -4.671   9.931  -1.024  0.00  0.00    -0.059 S 
ATOM      7  H   UNL     1      -7.372   8.727   1.174  0.00  0.00    +0.176 HD
ENDROOT
BRANCH   1   8
ATOM      8  S   UNL     1      -7.198  10.994   0.823  0.00  0.00    +0.074 S 
ATOM      9  O   UNL     1      -8.341  11.090   1.661  0.00  0.00    -0.150 OA
ATOM     10  O   UNL     1      -5.979  11.662   1.118  0.00  0.00    -0.150 OA
BRANCH   8  15
ATOM     11  C   UNL     1      -8.911  12.867  -4.651  0.00  0.00    +0.044 C 
ATOM     12  C   UNL     1      -8.483  12.400  -3.283  0.00  0.00    -0.050 A 
ATOM     13  C   UNL     1      -9.423  11.909  -2.395  0.00  0.00    +0.005 A 
ATOM     14  C   UNL     1      -9.030  11.480  -1.141  0.00  0.00    +0.029 A 
ATOM     15  C   UNL     1      -7.698  11.541  -0.775  0.00  0.00    +0.109 A 
ATOM     16  C   UNL     1      -6.760  12.035  -1.662  0.00  0.00    +0.029 A 
ATOM     17  C   UNL     1      -7.152  12.460  -2.917  0.00  0.00    +0.005 A 
ENDBRANCH   8  15
ENDBRANCH   1   8
BRANCH   4  18
ATOM     18  C   UNL     1      -3.794   6.125  -1.338  0.00  0.00    +0.152 C 
BRANCH  18  19
ATOM     19  C   UNL     1      -3.509   5.452  -0.021  0.00  0.00    +0.221 C 
ATOM     20  O   UNL     1      -3.690   6.051   1.018  0.00  0.00    -0.275 OA
ATOM     21  N   UNL     1      -3.052   4.184   0.003  0.00  0.00    -0.298 N 
ATOM     22  C   UNL     1      -2.767   3.509   1.278  0.00  0.00    +0.126 C 
ATOM     23  C   UNL     1      -1.354   2.920   1.212  0.00  0.00    +0.124 C 
ATOM     24  N   UNL     1      -1.236   2.071   0.019  0.00  0.00    -0.325 N 
ATOM     25  C   UNL     1      -1.410   2.854  -1.212  0.00  0.00    +0.124 C 
ATOM     26  C   UNL     1      -2.826   3.440  -1.245  0.00  0.00    +0.126 C 
BRANCH  24  27
ATOM     27  C   UNL     1      -0.017   1.387   0.010  0.00  0.00    +0.065 A 
ATOM     28  C   UNL     1       1.178   2.094   0.002  0.00  0.00    +0.026 A 
ATOM     29  C   UNL     1       2.381   1.415  -0.013  0.00  0.00    +0.002 A 
ATOM     30  C   UNL     1       2.397   0.032  -0.021  0.00  0.00    +0.003 A 
ATOM     31  C   UNL     1       1.210  -0.677  -0.013  0.00  0.00    +0.040 A 
ATOM     32  C   UNL     1       0.002  -0.004   0.002  0.00  0.00    +0.144 A 
ATOM     33  F   UNL     1      -1.158  -0.697   0.009  0.00  0.00    -0.204 F 
ENDBRANCH  24  27
ENDBRANCH  18  19
ENDBRANCH   4  18
TORSDOF 5
