REMARK  Name = ZINC33270844
REMARK  10 active torsions:
REMARK  status: ('A' for Active; 'I' for Inactive)
REMARK    1  A    between atoms: C_1  and  C_2
REMARK    2  A    between atoms: C_4  and  C_33
REMARK    3  A    between atoms: C_6  and  N_8
REMARK    4  A    between atoms: C_9  and  C_11
REMARK    5  A    between atoms: C_11  and  C_12
REMARK    6  A    between atoms: C_12  and  C_13
REMARK    7  A    between atoms: C_15  and  C_18
REMARK    8  A    between atoms: C_18  and  S_19
REMARK    9  A    between atoms: S_19  and  C_20
REMARK   10  A    between atoms: C_23  and  C_26
REMARK                            x       y       z     vdW  Elec       q    Type
REMARK                         _______ _______ _______ _____ _____    ______ ____
ROOT
ATOM      1  C   UNL     1      -0.242   0.270   0.026  0.00  0.00    +0.228 A 
ATOM      2  N   UNL     1      -0.249   1.574  -0.112  0.00  0.00    -0.195 NA
ATOM      3  C   UNL     1       1.040   1.952  -0.038  0.00  0.00    +0.182 A 
ATOM      4  N   UNL     1       1.751   0.878   0.138  0.00  0.00    -0.060 NA
ATOM      5  O   UNL     1       1.033  -0.099   0.177  0.00  0.00    -0.338 OA
ENDROOT
BRANCH   1   6
ATOM      6  C   UNL     1      -1.444  -0.640   0.014  0.00  0.00    +0.108 C 
BRANCH   6   7
ATOM      7  C   UNL     1      -1.723  -1.098  -1.419  0.00  0.00    +0.105 C 
BRANCH   7   9
ATOM      8  N   UNL     1      -3.359  -2.536  -2.591  0.00  0.00    -0.285 N 
ATOM      9  C   UNL     1      -2.925  -2.007  -1.430  0.00  0.00    +0.218 C 
ATOM     10  O   UNL     1      -3.501  -2.264  -0.394  0.00  0.00    -0.275 OA
ATOM     11  H   UNL     1      -2.892  -2.236  -3.541  0.00  0.00    +0.155 HD
BRANCH   8  17
ATOM     12  C   UNL     1      -7.306  -4.471  -4.793  0.00  0.00    +0.044 C 
ATOM     13  C   UNL     1      -6.332  -4.426  -3.644  0.00  0.00    -0.048 A 
ATOM     14  C   UNL     1      -6.472  -5.304  -2.585  0.00  0.00    +0.006 A 
ATOM     15  C   UNL     1      -5.581  -5.266  -1.529  0.00  0.00    -0.048 A 
ATOM     16  C   UNL     1      -4.547  -4.350  -1.528  0.00  0.00    +0.026 A 
ATOM     17  C   UNL     1      -4.405  -3.466  -2.589  0.00  0.00    +0.034 A 
ATOM     18  C   UNL     1      -5.305  -3.503  -3.646  0.00  0.00    +0.026 A 
ATOM     19  C   UNL     1      -5.736  -6.226  -0.377  0.00  0.00    +0.044 C 
ENDBRANCH   8  17
ENDBRANCH   7   9
ENDBRANCH   6   7
ENDBRANCH   1   6
BRANCH   3  20
ATOM     20  C   UNL     1       1.563   3.361  -0.140  0.00  0.00    +0.157 C 
BRANCH  20  21
ATOM     21  S   UNL     1       1.623   4.103   1.510  0.00  0.00    -0.079 S 
BRANCH  21  22
ATOM     22  C   UNL     1       2.252   5.699   1.105  0.00  0.00    +0.185 A 
ATOM     23  N   UNL     1       2.503   6.716   1.981  0.00  0.00    -0.201 NA
ATOM     24  H   UNL     1       2.506   5.620  -1.067  0.00  0.00    +0.191 HD
ATOM     25  C   UNL     1       2.982   7.755   1.215  0.00  0.00    +0.182 A 
ATOM     26  N   UNL     1       2.999   7.340  -0.030  0.00  0.00    -0.152 NA
ATOM     27  N   UNL     1       2.566   6.131  -0.095  0.00  0.00    -0.253 N 
BRANCH  25  28
ATOM     28  C   UNL     1       3.398   9.087   1.703  0.00  0.00    +0.021 A 
ATOM     29  C   UNL     1       3.329   9.388   3.064  0.00  0.00    +0.013 A 
ATOM     30  C   UNL     1       3.722  10.631   3.514  0.00  0.00    +0.021 A 
ATOM     31  C   UNL     1       4.176  11.583   2.617  0.00  0.00    +0.041 A 
ATOM     32  C   UNL     1       4.243  11.292   1.264  0.00  0.00    +0.021 A 
ATOM     33  C   UNL     1       3.856  10.051   0.803  0.00  0.00    +0.013 A 
ATOM     34 CL   UNL     1       4.663  13.148   3.189  0.00  0.00    -0.084 Cl
ENDBRANCH  25  28
ENDBRANCH  21  22
ENDBRANCH  20  21
ENDBRANCH   3  20
TORSDOF 8
