REMARK  Name = ZINC40986742
REMARK  14 active torsions:
REMARK  status: ('A' for Active; 'I' for Inactive)
REMARK    1  A    between atoms: C_1  and  C_2
REMARK    2  A    between atoms: C_2  and  C_3
REMARK    3  A    between atoms: C_3  and  C_4
REMARK    4  A    between atoms: C_4  and  S_5
REMARK    5  A    between atoms: S_5  and  C_6
REMARK    6  A    between atoms: C_11  and  C_20
REMARK    7  A    between atoms: C_13  and  C_17
REMARK    8  A    between atoms: C_14  and  C_16
REMARK    9  A    between atoms: C_22  and  O_30
REMARK   10  A    between atoms: C_23  and  O_27
REMARK   11  A    between atoms: O_27  and  C_28
REMARK   12  A    between atoms: C_28  and  C_29
REMARK   13  A    between atoms: O_30  and  C_31
REMARK   14  A    between atoms: C_31  and  C_32
REMARK                            x       y       z     vdW  Elec       q    Type
REMARK                         _______ _______ _______ _____ _____    ______ ____
ROOT
ATOM      1  C   UNL     1       1.059  -4.384  -2.661  0.00  0.00    +0.210 A 
ATOM      2  N   UNL     1       0.577  -5.134  -1.660  0.00  0.00    -0.187 NA
ATOM      3  C   UNL     1       0.907  -6.383  -1.853  0.00  0.00    +0.219 A 
ATOM      4  N   UNL     1       1.616  -6.457  -3.006  0.00  0.00    -0.220 N 
ATOM      5  N   UNL     1       1.699  -5.160  -3.509  0.00  0.00    -0.141 NA
ATOM      6  C   UNL     1       2.145  -7.705  -3.550  0.00  0.00    +0.177 C 
ATOM      7  C   UNL     1       2.044  -8.788  -2.509  0.00  0.00    +0.060 C 
ATOM      8  C   UNL     1       1.329  -8.656  -1.382  0.00  0.00    +0.018 C 
ATOM      9  N   UNL     1       0.638  -7.507  -1.085  0.00  0.00    -0.287 N 
ATOM     10  C   UNL     1       1.282  -9.806  -0.410  0.00  0.00    +0.061 C 
ATOM     11  H   UNL     1      -0.013  -7.482  -0.366  0.00  0.00    +0.155 HD
ENDROOT
BRANCH   6  12
ATOM     12  C   UNL     1       1.349  -8.101  -4.766  0.00  0.00    -0.014 A 
ATOM     13  C   UNL     1       1.980  -8.237  -5.989  0.00  0.00    +0.055 A 
ATOM     14  C   UNL     1       1.250  -8.601  -7.109  0.00  0.00    +0.163 A 
ATOM     15  C   UNL     1      -0.118  -8.830  -7.000  0.00  0.00    +0.176 A 
ATOM     16  C   UNL     1      -0.745  -8.693  -5.771  0.00  0.00    +0.063 A 
ATOM     17  C   UNL     1      -0.009  -8.334  -4.656  0.00  0.00    +0.025 A 
ATOM     18 BR   UNL     1      -2.604  -9.003  -5.618  0.00  0.00    -0.046 Br
BRANCH  15  19
ATOM     19  O   UNL     1      -0.839  -9.187  -8.097  0.00  0.00    -0.487 OA
BRANCH  19  20
ATOM     20  C   UNL     1      -0.957 -10.585  -8.368  0.00  0.00    +0.226 C 
ATOM     21  C   UNL     1      -1.796 -10.790  -9.631  0.00  0.00    +0.048 C 
ENDBRANCH  19  20
ENDBRANCH  15  19
BRANCH  14  22
ATOM     22  O   UNL     1       1.870  -8.734  -8.313  0.00  0.00    -0.489 OA
BRANCH  22  23
ATOM     23  C   UNL     1       3.276  -8.483  -8.350  0.00  0.00    +0.226 C 
ATOM     24  C   UNL     1       3.792  -8.680  -9.777  0.00  0.00    +0.048 C 
ENDBRANCH  22  23
ENDBRANCH  14  22
ENDBRANCH   6  12
BRANCH   7  25
ATOM     25  C   UNL     1       2.735 -10.003  -2.730  0.00  0.00    +0.241 C 
ATOM     26  O   UNL     1       3.925 -10.081  -2.485  0.00  0.00    -0.271 OA
ATOM     27  N   UNL     1       2.075 -11.075  -3.213  0.00  0.00    -0.325 N 
ATOM     28  H   UNL     1       1.127 -11.014  -3.409  0.00  0.00    +0.145 HD
ATOM     29  H   UNL     1       2.549 -11.908  -3.365  0.00  0.00    +0.145 HD
ENDBRANCH   7  25
BRANCH   1  30
ATOM     30  S   UNL     1       0.860  -2.640  -2.820  0.00  0.00    -0.084 S 
BRANCH  30  31
ATOM     31  C   UNL     1      -0.100  -2.173  -1.353  0.00  0.00    +0.077 C 
BRANCH  31  32
ATOM     32  C   UNL     1      -0.347  -0.663  -1.366  0.00  0.00    +0.011 C 
BRANCH  32  34
ATOM     33  C   UNL     1      -1.403   1.242  -0.141  0.00  0.00    +0.004 C 
ATOM     34  C   UNL     1      -1.156  -0.268  -0.129  0.00  0.00    -0.003 C 
ENDBRANCH  32  34
ENDBRANCH  31  32
ENDBRANCH  30  31
ENDBRANCH   1  30
TORSDOF 10
