REMARK  Name = ZINC21784005
REMARK  5 active torsions:
REMARK  status: ('A' for Active; 'I' for Inactive)
REMARK    1  A    between atoms: C_1  and  S_2
REMARK    2  A    between atoms: S_2  and  C_3
REMARK    3  A    between atoms: C_14  and  C_16
REMARK    4  A    between atoms: C_19  and  O_23
REMARK    5  A    between atoms: C_20  and  O_22
REMARK                            x       y       z     vdW  Elec       q    Type
REMARK                         _______ _______ _______ _____ _____    ______ ____
ROOT
ATOM      1  C   UNL     1       7.783   0.821  -2.100  0.00  0.00    +0.193 A 
ATOM      2  N   UNL     1       7.691   0.705  -0.746  0.00  0.00    -0.183 NA
ATOM      3  C   UNL     1       6.841   1.494  -0.055  0.00  0.00    +0.280 A 
ATOM      4  O   UNL     1       6.749   1.399   1.159  0.00  0.00    -0.265 OA
ATOM      5  C   UNL     1       6.068   2.422  -0.758  0.00  0.00    +0.067 A 
ATOM      6  C   UNL     1       6.198   2.503  -2.134  0.00  0.00    +0.137 A 
ATOM      7  N   UNL     1       7.056   1.696  -2.766  0.00  0.00    -0.206 NA
ATOM      8  N   UNL     1       5.439   3.415  -2.848  0.00  0.00    -0.270 N 
ATOM      9  C   UNL     1       4.859   4.459  -2.228  0.00  0.00    +0.219 C 
ATOM     10  O   UNL     1       4.184   5.236  -2.870  0.00  0.00    -0.275 OA
ATOM     11  C   UNL     1       5.037   4.675  -0.749  0.00  0.00    +0.109 C 
ATOM     12  C   UNL     1       5.106   3.324  -0.034  0.00  0.00    +0.067 C 
ATOM     13  H   UNL     1       5.312   3.280  -3.933  0.00  0.00    +0.156 HD
ENDROOT
BRANCH  12  14
ATOM     14  C   UNL     1       3.738   2.693  -0.020  0.00  0.00    -0.036 A 
ATOM     15  C   UNL     1       3.098   2.408  -1.212  0.00  0.00    +0.008 A 
ATOM     16  C   UNL     1       1.843   1.829  -1.205  0.00  0.00    +0.049 A 
ATOM     17  C   UNL     1       1.224   1.531  -0.002  0.00  0.00    +0.158 A 
ATOM     18  C   UNL     1       1.866   1.822   1.198  0.00  0.00    +0.158 A 
ATOM     19  C   UNL     1       3.126   2.398   1.184  0.00  0.00    +0.053 A 
BRANCH  18  20
ATOM     20  O   UNL     1       1.260   1.537   2.382  0.00  0.00    -0.503 OA
ATOM     21  H   UNL     1       1.769   1.768   3.330  0.00  0.00    +0.292 HD
ENDBRANCH  18  20
BRANCH  17  22
ATOM     22  O   UNL     1      -0.010   0.961   0.007  0.00  0.00    -0.503 OA
ATOM     23  H   UNL     1      -0.501   0.725   0.963  0.00  0.00    +0.292 HD
ENDBRANCH  17  22
ENDBRANCH  12  14
BRANCH   1  25
ATOM     24  C   UNL     1       8.603   0.360  -4.669  0.00  0.00    +0.093 C 
ATOM     25  S   UNL     1       8.899  -0.220  -2.981  0.00  0.00    -0.089 S 
ENDBRANCH   1  25
TORSDOF 4
