REMARK  Name = ZINC13023102
REMARK  10 active torsions:
REMARK  status: ('A' for Active; 'I' for Inactive)
REMARK    1  A    between atoms: C_1  and  C_2
REMARK    2  A    between atoms: C_6  and  C_15
REMARK    3  A    between atoms: C_13  and  C_14
REMARK    4  A    between atoms: C_15  and  C_17
REMARK    5  A    between atoms: C_15  and  N_70
REMARK    6  A    between atoms: N_21  and  C_22
REMARK    7  A    between atoms: C_22  and  C_23
REMARK    8  A    between atoms: N_30  and  C_33
REMARK    9  A    between atoms: C_37  and  O_39
REMARK   10  A    between atoms: O_39  and  C_40
REMARK                            x       y       z     vdW  Elec       q    Type
REMARK                         _______ _______ _______ _____ _____    ______ ____
ROOT
ATOM      1  C   UNL     1      -5.612  -1.523   1.078  0.00  0.00    +0.039 C 
ENDROOT
BRANCH   1   7
ATOM      2  C   UNL     1     -11.870   0.516   4.586  0.00  0.00    +0.044 C 
ATOM      3  C   UNL     1     -10.417   0.117   4.616  0.00  0.00    -0.047 A 
ATOM      4  C   UNL     1      -9.768  -0.165   3.447  0.00  0.00    +0.013 A 
ATOM      5  C   UNL     1      -8.420  -0.536   3.474  0.00  0.00    -0.001 A 
ATOM      6  C   UNL     1      -7.693  -0.840   2.240  0.00  0.00    +0.017 A 
ATOM      7  C   UNL     1      -6.388  -1.199   2.329  0.00  0.00    +0.011 A 
ATOM      8  C   UNL     1      -5.753  -1.264   3.587  0.00  0.00    +0.251 A 
ATOM      9  O   UNL     1      -4.578  -1.585   3.644  0.00  0.00    -0.268 OA
ATOM     10  N   UNL     1      -6.411  -0.982   4.725  0.00  0.00    -0.322 N 
ATOM     11  H   UNL     1      -5.944  -1.037   5.574  0.00  0.00    +0.169 HD
ATOM     12  C   UNL     1      -7.740  -0.616   4.704  0.00  0.00    +0.049 A 
ATOM     13  C   UNL     1      -8.421  -0.325   5.881  0.00  0.00    +0.030 A 
ATOM     14  C   UNL     1      -9.750   0.038   5.830  0.00  0.00    -0.046 A 
ATOM     15  C   UNL     1     -10.486   0.354   7.107  0.00  0.00    +0.044 C 
ENDBRANCH   1   7
BRANCH   1  21
ATOM     16  C   UNL     1      -3.744  -0.831  -0.299  0.00  0.00    -0.058 C 
ATOM     17  C   UNL     1      -2.521   0.087  -0.349  0.00  0.00    +0.086 C 
ATOM     18  N   UNL     1      -2.956   1.486  -0.239  0.00  0.00    -0.333 N 
ATOM     19  C   UNL     1      -3.683   1.711   1.018  0.00  0.00    +0.086 C 
ATOM     20  C   UNL     1      -4.907   0.793   1.068  0.00  0.00    -0.058 C 
ATOM     21  N   UNL     1      -4.454  -0.611   0.979  0.00  0.00    +0.391 N 
ATOM     22  H   UNL     1      -3.810  -0.803   1.756  0.00  0.00    -0.080 HD
BRANCH  18  23
ATOM     23  C   UNL     1      -1.871   2.358  -0.353  0.00  0.00    +0.033 A 
ATOM     24  C   UNL     1      -0.590   1.854  -0.544  0.00  0.00    +0.023 A 
ATOM     25  C   UNL     1       0.481   2.717  -0.663  0.00  0.00    +0.005 A 
ATOM     26  C   UNL     1       0.284   4.083  -0.587  0.00  0.00    +0.046 A 
ATOM     27  C   UNL     1      -0.992   4.592  -0.391  0.00  0.00    +0.122 A 
ATOM     28  C   UNL     1      -2.071   3.729  -0.271  0.00  0.00    +0.068 A 
BRANCH  27  29
ATOM     29  O   UNL     1      -1.185   5.935  -0.317  0.00  0.00    -0.495 OA
ATOM     30  C   UNL     1      -0.029   6.764  -0.450  0.00  0.00    +0.277 C 
ENDBRANCH  27  29
ENDBRANCH  18  23
ENDBRANCH   1  21
BRANCH   1  31
ATOM     31  C   UNL     1      -6.509  -1.370  -0.123  0.00  0.00    +0.143 A 
ATOM     32  N   UNL     1      -6.909  -0.244  -0.662  0.00  0.00    -0.115 NA
ATOM     33  N   UNL     1      -7.659  -0.530  -1.670  0.00  0.00    -0.023 NA
ATOM     34  N   UNL     1      -7.754  -1.809  -1.783  0.00  0.00    -0.044 NA
ATOM     35  N   UNL     1      -7.059  -2.362  -0.848  0.00  0.00    -0.223 N 
BRANCH  35  36
ATOM     36  C   UNL     1      -6.898  -3.800  -0.618  0.00  0.00    +0.221 C 
BRANCH  36  37
ATOM     37  C   UNL     1      -7.980  -4.284   0.313  0.00  0.00    +0.126 A 
ATOM     38  C   UNL     1      -9.190  -4.741  -0.058  0.00  0.00    +0.046 A 
ATOM     39  C   UNL     1      -9.878  -5.087   1.128  0.00  0.00    +0.041 A 
ATOM     40  C   UNL     1      -9.051  -4.813   2.152  0.00  0.00    +0.195 A 
ATOM     41  O   UNL     1      -7.903  -4.327   1.653  0.00  0.00    -0.466 OA
ENDBRANCH  36  37
ENDBRANCH  35  36
ENDBRANCH   1  31
TORSDOF 7
