REMARK  Name = ZINC36648972
REMARK  11 active torsions:
REMARK  status: ('A' for Active; 'I' for Inactive)
REMARK    1  A    between atoms: C_1  and  C_2
REMARK    2  A    between atoms: C_2  and  N_3
REMARK    3  A    between atoms: N_3  and  C_4
REMARK    4  A    between atoms: N_3  and  C_6
REMARK    5  A    between atoms: C_4  and  C_5
REMARK    6  A    between atoms: C_6  and  C_7
REMARK    7  A    between atoms: C_7  and  N_8
REMARK    8  A    between atoms: N_17  and  C_18
REMARK    9  A    between atoms: C_18  and  C_20
REMARK   10  A    between atoms: C_20  and  N_21
REMARK   11  A    between atoms: C_27  and  C_30
REMARK                            x       y       z     vdW  Elec       q    Type
REMARK                         _______ _______ _______ _____ _____    ______ ____
ROOT
ATOM      1  N   UNL     1      -2.325  -4.005   0.563  0.00  0.00    -0.314 N 
ATOM      2  C   UNL     1      -2.201  -4.931  -0.469  0.00  0.00    +0.068 A 
ATOM      3  C   UNL     1      -2.234  -4.817  -1.852  0.00  0.00    +0.028 A 
ATOM      4  C   UNL     1      -2.079  -5.942  -2.637  0.00  0.00    +0.002 A 
ATOM      5  C   UNL     1      -1.893  -7.183  -2.052  0.00  0.00    +0.002 A 
ATOM      6  C   UNL     1      -1.859  -7.306  -0.677  0.00  0.00    +0.028 A 
ATOM      7  C   UNL     1      -2.013  -6.182   0.122  0.00  0.00    +0.066 A 
ATOM      8  N   UNL     1      -2.025  -5.991   1.500  0.00  0.00    -0.326 N 
ATOM      9  C   UNL     1      -2.209  -4.667   1.744  0.00  0.00    +0.201 A 
ATOM     10  N   UNL     1      -2.270  -4.107   2.950  0.00  0.00    -0.145 NA
ATOM     11  H   UNL     1      -1.917  -6.683   2.170  0.00  0.00    +0.169 HD
ENDROOT
BRANCH  10  12
ATOM     12  C   UNL     1      -2.022  -4.835   4.034  0.00  0.00    +0.257 C 
ATOM     13  O   UNL     1      -1.650  -5.988   3.921  0.00  0.00    -0.272 OA
BRANCH  12  14
ATOM     14  C   UNL     1      -2.200  -4.233   5.404  0.00  0.00    +0.215 C 
BRANCH  14  15
ATOM     15  N   UNL     1      -1.865  -5.230   6.423  0.00  0.00    -0.215 N 
ATOM     16  C   UNL     1      -2.753  -6.093   6.960  0.00  0.00    +0.247 C 
ATOM     17  O   UNL     1      -3.933  -6.187   6.701  0.00  0.00    -0.273 OA
ATOM     18  C   UNL     1      -1.965  -6.917   7.952  0.00  0.00    +0.113 C 
ATOM     19  C   UNL     1      -1.990  -8.390   7.558  0.00  0.00    +0.035 C 
ATOM     20  C   UNL     1      -1.162  -9.202   8.558  0.00  0.00    +0.006 C 
ATOM     21  C   UNL     1      -1.741  -9.022   9.963  0.00  0.00    -0.014 C 
ATOM     22  C   UNL     1      -1.688  -7.544  10.353  0.00  0.00    +0.006 C 
ATOM     23  C   UNL     1      -2.518  -6.725   9.360  0.00  0.00    +0.035 C 
ATOM     24  C   UNL     1      -0.921  -9.842  10.961  0.00  0.00    +0.007 C 
ATOM     25  N   UNL     1      -0.601  -6.381   7.858  0.00  0.00    -0.285 N 
ATOM     26  C   UNL     1      -0.640  -5.402   6.934  0.00  0.00    +0.310 C 
ATOM     27  O   UNL     1       0.328  -4.745   6.604  0.00  0.00    -0.252 OA
ATOM     28  H   UNL     1       0.175  -6.677   8.358  0.00  0.00    +0.151 HD
ENDBRANCH  14  15
ENDBRANCH  12  14
ENDBRANCH  10  12
BRANCH   1  29
ATOM     29  C   UNL     1      -2.536  -2.565   0.403  0.00  0.00    +0.106 C 
BRANCH  29  30
ATOM     30  C   UNL     1      -1.182  -1.856   0.324  0.00  0.00    -0.057 C 
BRANCH  30  31
ATOM     31  N   UNL     1      -1.392  -0.430   0.039  0.00  0.00    +0.380 N 
ATOM     32  H   UNL     1      -1.933  -0.332  -0.807  0.00  0.00    -0.082 HD
BRANCH  31  34
ATOM     33  C   UNL     1      -2.441   1.645   0.807  0.00  0.00    -0.017 C 
ATOM     34  C   UNL     1      -2.113   0.192   1.157  0.00  0.00    -0.082 C 
ENDBRANCH  31  34
BRANCH  31  35
ATOM     35  C   UNL     1      -0.091   0.231  -0.133  0.00  0.00    -0.082 C 
ATOM     36  C   UNL     1       0.609  -0.336  -1.370  0.00  0.00    -0.017 C 
ENDBRANCH  31  35
ENDBRANCH  30  31
ENDBRANCH  29  30
ENDBRANCH   1  29
TORSDOF 8
