REMARK  Name = ZINC25049033
REMARK  8 active torsions:
REMARK  status: ('A' for Active; 'I' for Inactive)
REMARK    1  A    between atoms: C_1  and  C_2
REMARK    2  A    between atoms: C_5  and  C_8
REMARK    3  A    between atoms: C_8  and  C_10
REMARK    4  A    between atoms: C_8  and  N_15
REMARK    5  A    between atoms: N_15  and  C_16
REMARK    6  A    between atoms: C_16  and  C_18
REMARK    7  A    between atoms: C_16  and  C_19
REMARK    8  A    between atoms: N_21  and  C_22
REMARK                            x       y       z     vdW  Elec       q    Type
REMARK                         _______ _______ _______ _____ _____    ______ ____
ROOT
ATOM      1  C   UNL     1      -1.306  -6.132   0.727  0.00  0.00    +0.138 C 
ATOM      2  C   UNL     1      -2.554  -6.034  -0.154  0.00  0.00    +0.034 C 
ENDROOT
BRANCH   1   3
ATOM      3  C   UNL     1      -1.649  -6.853   2.005  0.00  0.00    +0.234 C 
ATOM      4  O   UNL     1      -1.503  -6.296   3.073  0.00  0.00    -0.274 OA
ATOM      5  N   UNL     1      -2.117  -8.116   1.961  0.00  0.00    -0.284 N 
ATOM      6  H   UNL     1      -2.297  -8.537   1.106  0.00  0.00    +0.155 HD
BRANCH   5   7
ATOM      7  C   UNL     1      -2.344  -8.820   3.151  0.00  0.00    +0.036 A 
ATOM      8  C   UNL     1      -2.104 -10.189   3.204  0.00  0.00    +0.025 A 
ATOM      9  C   UNL     1      -2.326 -10.888   4.372  0.00  0.00    +0.029 A 
ATOM     10  C   UNL     1      -2.789 -10.225   5.499  0.00  0.00    +0.067 A 
ATOM     11  C   UNL     1      -3.031  -8.850   5.449  0.00  0.00    +0.069 A 
ATOM     12  C   UNL     1      -2.802  -8.150   4.275  0.00  0.00    +0.051 A 
ATOM     13  N   UNL     1      -3.481  -8.474   6.713  0.00  0.00    -0.306 N 
ATOM     14  H   UNL     1      -3.730  -7.577   6.982  0.00  0.00    +0.170 HD
ATOM     15  C   UNL     1      -3.513  -9.569   7.495  0.00  0.00    +0.325 A 
ATOM     16  O   UNL     1      -3.860  -9.587   8.662  0.00  0.00    -0.247 OA
ATOM     17  N   UNL     1      -3.101 -10.641   6.793  0.00  0.00    -0.306 N 
ATOM     18  H   UNL     1      -3.034 -11.549   7.129  0.00  0.00    +0.170 HD
ENDBRANCH   5   7
ENDBRANCH   1   3
BRANCH   1  19
ATOM     19  N   UNL     1      -0.821  -4.781   1.041  0.00  0.00    -0.295 NA
ATOM     20  H   UNL     1      -0.347  -4.766   1.932  0.00  0.00    +0.124 HD
BRANCH  19  21
ATOM     21  C   UNL     1       0.050  -4.273  -0.027  0.00  0.00    +0.122 C 
BRANCH  21  26
ATOM     22  C   UNL     1      -0.020   1.505   0.021  0.00  0.00    +0.044 C 
ATOM     23  C   UNL     1      -0.002  -0.002   0.008  0.00  0.00    -0.050 A 
ATOM     24  C   UNL     1      -0.008  -0.683  -1.194  0.00  0.00    +0.004 A 
ATOM     25  C   UNL     1       0.009  -2.065  -1.206  0.00  0.00    +0.006 A 
ATOM     26  C   UNL     1       0.033  -2.766  -0.015  0.00  0.00    -0.026 A 
ATOM     27  C   UNL     1       0.040  -2.085   1.188  0.00  0.00    +0.006 A 
ATOM     28  C   UNL     1       0.027  -0.702   1.199  0.00  0.00    +0.004 A 
ENDBRANCH  21  26
BRANCH  21  29
ATOM     29  C   UNL     1       1.458  -4.761   0.197  0.00  0.00    +0.011 A 
ATOM     30  C   UNL     1       2.366  -5.195  -0.711  0.00  0.00    +0.013 A 
ATOM     31  C   UNL     1       3.613  -5.599  -0.272  0.00  0.00    +0.008 A 
ATOM     32  C   UNL     1       3.890  -5.549   1.054  0.00  0.00    +0.045 A 
ATOM     33  S   UNL     1       2.365  -4.910   1.727  0.00  0.00    -0.100 S 
ENDBRANCH  21  29
ENDBRANCH  19  21
ENDBRANCH   1  19
TORSDOF 6
