REMARK  Name = ZINC18193878
REMARK  6 active torsions:
REMARK  status: ('A' for Active; 'I' for Inactive)
REMARK    1  A    between atoms: C_4  and  C_7
REMARK    2  A    between atoms: C_7  and  C_8
REMARK    3  A    between atoms: C_8  and  C_9
REMARK    4  A    between atoms: C_12  and  N_17
REMARK    5  A    between atoms: C_13  and  N_15
REMARK    6  A    between atoms: N_15  and  O_16
REMARK                            x       y       z     vdW  Elec       q    Type
REMARK                         _______ _______ _______ _____ _____    ______ ____
ROOT
ATOM      1  C   UNL     1       5.145  -2.665  -0.064  0.00  0.00    +0.117 A 
ATOM      2  C   UNL     1       5.796  -2.874  -1.292  0.00  0.00    +0.294 A 
ATOM      3  N   UNL     1       7.043  -3.292  -1.321  0.00  0.00    -0.182 NA
ATOM      4  C   UNL     1       7.698  -3.520  -0.171  0.00  0.00    +0.244 A 
ATOM      5  C   UNL     1       7.037  -3.306   1.065  0.00  0.00    +0.199 A 
ATOM      6  N   UNL     1       5.777  -2.878   1.072  0.00  0.00    -0.224 NA
ATOM      7  O   UNL     1       5.134  -2.645  -2.453  0.00  0.00    -0.264 OA
ENDROOT
BRANCH   5   8
ATOM      8  N   UNL     1       7.695  -3.535   2.249  0.00  0.00    -0.248 N 
ATOM      9  H   UNL     1       8.614  -3.843   2.241  0.00  0.00    +0.196 HD
BRANCH   8  10
ATOM     10  O   UNL     1       7.030  -3.320   3.481  0.00  0.00    -0.288 OA
ATOM     11  H   UNL     1       7.574  -3.508   4.258  0.00  0.00    +0.244 HD
ENDBRANCH   8  10
ENDBRANCH   5   8
BRANCH   4  12
ATOM     12  N   UNL     1       8.961  -3.944  -0.192  0.00  0.00    -0.007 NA
ATOM     13  O   UNL     1       9.525  -4.126  -1.256  0.00  0.00    -0.142 OA
ENDBRANCH   4  12
BRANCH   1  14
ATOM     14  C   UNL     1       3.716  -2.186  -0.046  0.00  0.00    +0.140 C 
BRANCH  14  15
ATOM     15  C   UNL     1       3.691  -0.679  -0.038  0.00  0.00    +0.169 C 
ATOM     16  O   UNL     1       4.731  -0.056  -0.045  0.00  0.00    -0.292 OA
BRANCH  15  20
ATOM     17  C   UNL     1      -0.017   1.380   0.010  0.00  0.00    +0.000 A 
ATOM     18  C   UNL     1       1.168   2.095   0.002  0.00  0.00    +0.001 A 
ATOM     19  C   UNL     1       2.377   1.433  -0.013  0.00  0.00    +0.011 A 
ATOM     20  C   UNL     1       2.405   0.035  -0.021  0.00  0.00    +0.018 A 
ATOM     21  C   UNL     1       1.203  -0.681  -0.013  0.00  0.00    +0.011 A 
ATOM     22  C   UNL     1       0.002  -0.004   0.002  0.00  0.00    +0.001 A 
ENDBRANCH  15  20
ENDBRANCH  14  15
ENDBRANCH   1  14
TORSDOF 6
