REMARK  Name = ZINC63624927
REMARK  5 active torsions:
REMARK  status: ('A' for Active; 'I' for Inactive)
REMARK    1  A    between atoms: C_7  and  C_10
REMARK    2  A    between atoms: C_10  and  C_11
REMARK    3  A    between atoms: C_11  and  N_12
REMARK    4  A    between atoms: C_13  and  C_15
REMARK    5  A    between atoms: N_18  and  C_21
REMARK                            x       y       z     vdW  Elec       q    Type
REMARK                         _______ _______ _______ _____ _____    ______ ____
ROOT
ATOM      1  C   UNL     1      -1.766  -6.546  -2.595  0.00  0.00    +0.077 C 
ATOM      2  C   UNL     1      -3.115  -6.116  -2.012  0.00  0.00    +0.028 C 
ATOM      3  C   UNL     1      -4.088  -7.296  -2.065  0.00  0.00    +0.087 C 
ATOM      4  N   UNL     1      -4.253  -7.734  -3.457  0.00  0.00    -0.283 NA
ATOM      5  C   UNL     1      -2.979  -8.196  -4.023  0.00  0.00    +0.087 C 
ATOM      6  C   UNL     1      -1.974  -7.043  -4.029  0.00  0.00    +0.028 C 
ENDROOT
BRANCH   4   7
ATOM      7  C   UNL     1      -5.284  -8.775  -3.562  0.00  0.00    +0.167 C 
ATOM      8  C   UNL     1      -5.639  -9.004  -5.036  0.00  0.00    +0.132 C 
ATOM      9  C   UNL     1      -5.948  -7.718  -5.745  0.00  0.00    -0.004 C 
ATOM     10  C   UNL     1      -5.174  -7.586  -6.791  0.00  0.00    -0.010 C 
ATOM     11  C   UNL     1      -4.233  -8.763  -6.891  0.00  0.00    +0.133 C 
ATOM     12  N   UNL     1      -4.431  -9.569  -5.676  0.00  0.00    -0.314 N 
ATOM     13  C   UNL     1      -3.683 -10.589  -5.096  0.00  0.00    +0.069 A 
ATOM     14  C   UNL     1      -2.796 -11.368  -5.811  0.00  0.00    +0.028 A 
ATOM     15  C   UNL     1      -2.092 -12.355  -5.129  0.00  0.00    +0.019 A 
ATOM     16  C   UNL     1      -2.304 -12.519  -3.776  0.00  0.00    +0.084 A 
ATOM     17  N   UNL     1      -3.162 -11.761  -3.117  0.00  0.00    -0.348 N 
ATOM     18  C   UNL     1      -3.857 -10.812  -3.721  0.00  0.00    +0.119 A 
ATOM     19  N   UNL     1      -4.773 -10.038  -3.008  0.00  0.00    -0.312 N 
ATOM     20  H   UNL     1      -5.076 -10.336  -2.136  0.00  0.00    +0.149 HD
ATOM     21  H   UNL     1      -3.286 -11.904  -2.166  0.00  0.00    +0.167 HD
ENDBRANCH   4   7
BRANCH   1  23
ATOM     22  N   UNL     1      -0.492  -4.766  -1.443  0.00  0.00    -0.315 N 
ATOM     23  C   UNL     1      -0.823  -5.370  -2.601  0.00  0.00    +0.216 C 
ATOM     24  O   UNL     1      -0.361  -4.969  -3.648  0.00  0.00    -0.276 OA
ATOM     25  H   UNL     1      -0.862  -5.087  -0.606  0.00  0.00    +0.149 HD
BRANCH  22  26
ATOM     26  C   UNL     1       0.425  -3.623  -1.449  0.00  0.00    +0.108 C 
BRANCH  26  27
ATOM     27  C   UNL     1       0.631  -3.128  -0.016  0.00  0.00    +0.052 C 
BRANCH  27  34
ATOM     28  C   UNL     1      -0.066   1.407  -0.086  0.00  0.00    +0.001 A 
ATOM     29  C   UNL     1       1.118   2.158  -0.085  0.00  0.00    +0.002 A 
ATOM     30  C   UNL     1       2.342   1.589  -0.064  0.00  0.00    +0.026 A 
ATOM     31  C   UNL     1       2.477   0.174  -0.043  0.00  0.00    +0.043 A 
ATOM     32  N   UNL     1       3.533  -0.603  -0.022  0.00  0.00    -0.380 N 
ATOM     33  C   UNL     1       3.086  -2.000  -0.007  0.00  0.00    +0.144 C 
ATOM     34  C   UNL     1       1.575  -1.953  -0.022  0.00  0.00    -0.040 C 
ATOM     35  C   UNL     1       1.241  -0.642  -0.044  0.00  0.00    -0.001 A 
ATOM     36  C   UNL     1      -0.050   0.055  -0.067  0.00  0.00    +0.010 A 
ATOM     37  H   UNL     1       4.455  -0.303  -0.017  0.00  0.00    +0.160 HD
ENDBRANCH  27  34
ENDBRANCH  26  27
ENDBRANCH  22  26
ENDBRANCH   1  23
TORSDOF 5
