REMARK  Name = ZINC08425609
REMARK  15 active torsions:
REMARK  status: ('A' for Active; 'I' for Inactive)
REMARK    1  A    between atoms: C_1  and  C_2
REMARK    2  A    between atoms: C_2  and  O_3
REMARK    3  A    between atoms: O_3  and  C_4
REMARK    4  A    between atoms: C_6  and  C_11
REMARK    5  A    between atoms: C_9  and  O_10
REMARK    6  A    between atoms: C_16  and  C_21
REMARK    7  A    between atoms: C_24  and  O_27
REMARK    8  A    between atoms: O_27  and  C_28
REMARK    9  A    between atoms: C_30  and  C_39
REMARK   10  A    between atoms: C_31  and  C_32
REMARK   11  A    between atoms: C_32  and  O_34
REMARK   12  A    between atoms: O_34  and  C_35
REMARK   13  A    between atoms: C_35  and  C_36
REMARK   14  A    between atoms: C_36  and  O_37
REMARK   15  A    between atoms: O_37  and  C_38
REMARK                            x       y       z     vdW  Elec       q    Type
REMARK                         _______ _______ _______ _____ _____    ______ ____
ROOT
ATOM      1  C   UNL     1       2.751   0.977   0.055  0.00  0.00    +0.092 C 
ATOM      2  C   UNL     1       2.589   0.105   1.274  0.00  0.00    +0.024 C 
ATOM      3  C   UNL     1       2.134  -1.161   1.161  0.00  0.00    +0.016 C 
ATOM      4  C   UNL     1       1.952  -2.032   2.379  0.00  0.00    +0.059 C 
ATOM      5  C   UNL     1       2.982  -1.651   3.443  0.00  0.00    +0.032 C 
ATOM      6  C   UNL     1       2.802  -0.169   3.787  0.00  0.00    +0.088 C 
ATOM      7  C   UNL     1       2.928   0.645   2.527  0.00  0.00    +0.162 C 
ATOM      8  O   UNL     1       3.330   1.790   2.595  0.00  0.00    -0.292 OA
ATOM      9  N   UNL     1       1.822  -1.681  -0.066  0.00  0.00    -0.321 N 
ATOM     10  C   UNL     1       2.312  -1.112  -1.208  0.00  0.00    +0.016 C 
ATOM     11  C   UNL     1       2.770   0.152  -1.199  0.00  0.00    +0.065 C 
ATOM     12  C   UNL     1       2.341  -1.908  -2.488  0.00  0.00    +0.061 C 
ATOM     13  H   UNL     1       1.171  -2.564  -0.140  0.00  0.00    +0.152 HD
ENDROOT
BRANCH   1  16
ATOM     14  C   UNL     1       0.795   4.208  -0.015  0.00  0.00    +0.162 A 
ATOM     15  C   UNL     1       1.849   3.311   0.046  0.00  0.00    +0.054 A 
ATOM     16  C   UNL     1       1.603   1.952  -0.012  0.00  0.00    -0.032 A 
ATOM     17  C   UNL     1       0.308   1.484  -0.130  0.00  0.00    +0.008 A 
ATOM     18  C   UNL     1      -0.748   2.375  -0.197  0.00  0.00    +0.049 A 
ATOM     19  C   UNL     1      -0.509   3.738  -0.135  0.00  0.00    +0.158 A 
BRANCH  19  20
ATOM     20  O   UNL     1      -1.547   4.615  -0.195  0.00  0.00    -0.503 OA
ATOM     21  H   UNL     1      -2.577   4.242  -0.289  0.00  0.00    +0.292 HD
ENDBRANCH  19  20
BRANCH  14  22
ATOM     22  O   UNL     1       1.035   5.546   0.041  0.00  0.00    -0.489 OA
BRANCH  22  24
ATOM     23  C   UNL     1       2.469   7.483   0.212  0.00  0.00    +0.048 C 
ATOM     24  C   UNL     1       2.398   5.956   0.164  0.00  0.00    +0.226 C 
ENDBRANCH  22  24
ENDBRANCH  14  22
ENDBRANCH   1  16
BRANCH   5  25
ATOM     25  C   UNL     1       2.768  -2.486   4.679  0.00  0.00    -0.043 A 
ATOM     26  C   UNL     1       1.555  -2.439   5.342  0.00  0.00    +0.007 A 
ATOM     27  C   UNL     1       1.354  -3.209   6.472  0.00  0.00    +0.046 A 
ATOM     28  C   UNL     1       2.374  -4.020   6.947  0.00  0.00    +0.120 A 
ATOM     29  C   UNL     1       3.591  -4.062   6.283  0.00  0.00    +0.046 A 
ATOM     30  C   UNL     1       3.785  -3.295   5.151  0.00  0.00    +0.007 A 
BRANCH  28  31
ATOM     31  O   UNL     1       2.180  -4.774   8.061  0.00  0.00    -0.495 OA
ATOM     32  C   UNL     1       0.902  -4.682   8.693  0.00  0.00    +0.277 C 
ENDBRANCH  28  31
ENDBRANCH   5  25
BRANCH  11  33
ATOM     33  C   UNL     1       3.279   0.715  -2.392  0.00  0.00    +0.338 C 
ATOM     34  O   UNL     1       3.414   0.021  -3.383  0.00  0.00    -0.245 OA
BRANCH  33  35
ATOM     35  O   UNL     1       3.615   2.021  -2.432  0.00  0.00    -0.459 OA
BRANCH  35  36
ATOM     36  C   UNL     1       4.123   2.522  -3.670  0.00  0.00    +0.260 C 
BRANCH  36  37
ATOM     37  C   UNL     1       4.446   4.011  -3.523  0.00  0.00    +0.200 C 
BRANCH  37  38
ATOM     38  O   UNL     1       5.510   4.176  -2.584  0.00  0.00    -0.380 OA
ATOM     39  C   UNL     1       5.892   5.537  -2.372  0.00  0.00    +0.194 C 
ENDBRANCH  37  38
ENDBRANCH  36  37
ENDBRANCH  35  36
ENDBRANCH  33  35
ENDBRANCH  11  33
TORSDOF 11
