REMARK  Name = ZINC22078650
REMARK  5 active torsions:
REMARK  status: ('A' for Active; 'I' for Inactive)
REMARK    1  A    between atoms: C_1  and  N_2
REMARK    2  A    between atoms: C_13  and  C_16
REMARK    3  A    between atoms: C_19  and  C_21
REMARK    4  A    between atoms: C_24  and  O_28
REMARK    5  A    between atoms: O_28  and  C_29
REMARK                            x       y       z     vdW  Elec       q    Type
REMARK                         _______ _______ _______ _____ _____    ______ ____
ROOT
ATOM      1  C   UNL     1      -0.243   0.811   2.403  0.00  0.00    -0.096 C 
ATOM      2  N   UNL     1      -0.696   1.557   1.221  0.00  0.00    +0.381 N 
ATOM      3  C   UNL     1      -0.013   1.086   0.008  0.00  0.00    -0.074 C 
ATOM      4  C   UNL     1      -0.748   1.590  -1.237  0.00  0.00    +0.018 C 
ATOM      5  C   UNL     1      -0.934   3.098  -1.102  0.00  0.00    -0.027 A 
ATOM      6  C   UNL     1      -0.806   3.689   0.109  0.00  0.00    -0.021 A 
ATOM      7  S   UNL     1      -1.093   5.412  -0.191  0.00  0.00    -0.080 S 
ATOM      8  C   UNL     1      -1.375   5.346  -1.879  0.00  0.00    +0.080 A 
ATOM      9  C   UNL     1      -1.250   3.986  -2.206  0.00  0.00    +0.068 A 
ATOM     10  C   UNL     1      -1.457   3.604  -3.622  0.00  0.00    +0.248 C 
ATOM     11  O   UNL     1      -1.538   2.437  -3.959  0.00  0.00    -0.270 OA
ATOM     12  N   UNL     1      -1.551   4.604  -4.524  0.00  0.00    -0.287 N 
ATOM     13  C   UNL     1      -1.302   6.006  -4.207  0.00  0.00    +0.227 C 
ATOM     14  N   UNL     1      -1.660   6.311  -2.809  0.00  0.00    -0.314 N 
ATOM     15  C   UNL     1      -0.491   3.007   1.403  0.00  0.00    -0.036 C 
ATOM     16  H   UNL     1      -1.834   4.313  -5.547  0.00  0.00    +0.151 HD
ATOM     17  H   UNL     1      -2.130   7.274  -2.560  0.00  0.00    +0.149 HD
ATOM     18  H   UNL     1      -1.773   1.370   1.099  0.00  0.00    -0.082 HD
ENDROOT
BRANCH  13  19
ATOM     19  C   UNL     1       0.160   6.307  -4.419  0.00  0.00    +0.144 A 
ATOM     20  C   UNL     1       0.964   5.702  -5.314  0.00  0.00    +0.049 A 
ATOM     21  C   UNL     1       2.242   6.282  -5.180  0.00  0.00    +0.050 A 
ATOM     22  C   UNL     1       2.145   7.220  -4.200  0.00  0.00    +0.135 A 
ATOM     23  O   UNL     1       0.875   7.227  -3.752  0.00  0.00    -0.456 OA
BRANCH  22  24
ATOM     24  C   UNL     1       3.241   8.084  -3.715  0.00  0.00    +0.019 A 
ATOM     25  C   UNL     1       3.004   9.010  -2.697  0.00  0.00    +0.015 A 
ATOM     26  C   UNL     1       4.029   9.814  -2.246  0.00  0.00    +0.048 A 
ATOM     27  C   UNL     1       5.296   9.705  -2.804  0.00  0.00    +0.138 A 
ATOM     28  C   UNL     1       5.537   8.785  -3.816  0.00  0.00    +0.083 A 
ATOM     29  C   UNL     1       4.517   7.973  -4.269  0.00  0.00    +0.035 A 
ATOM     30 CL   UNL     1       7.123   8.652  -4.508  0.00  0.00    -0.080 Cl
BRANCH  27  31
ATOM     31  O   UNL     1       6.304  10.500  -2.357  0.00  0.00    -0.494 OA
ATOM     32  C   UNL     1       5.987  11.423  -1.313  0.00  0.00    +0.277 C 
ENDBRANCH  27  31
ENDBRANCH  22  24
ENDBRANCH  13  19
TORSDOF 3
