REMARK  Name = ZINC43942447
REMARK  7 active torsions:
REMARK  status: ('A' for Active; 'I' for Inactive)
REMARK    1  A    between atoms: C_1  and  C_2
REMARK    2  A    between atoms: C_2  and  C_3
REMARK    3  A    between atoms: C_8  and  N_9
REMARK    4  A    between atoms: C_10  and  C_12
REMARK    5  A    between atoms: N_14  and  C_15
REMARK    6  A    between atoms: C_15  and  C_16
REMARK    7  A    between atoms: C_22  and  C_24
REMARK                            x       y       z     vdW  Elec       q    Type
REMARK                         _______ _______ _______ _____ _____    ______ ____
ROOT
ATOM      1  C   UNL     1      -1.355   0.781  -7.224  0.00  0.00    +0.108 C 
ENDROOT
BRANCH   1   2
ATOM      2  C   UNL     1      -2.179   0.149  -8.348  0.00  0.00    +0.009 C 
ATOM      3  C   UNL     1      -3.559   0.808  -8.400  0.00  0.00    +0.024 C 
ATOM      4  C   UNL     1      -4.394   0.150  -9.504  0.00  0.00    +0.108 C 
ATOM      5  N   UNL     1      -3.645   0.215 -10.766  0.00  0.00    -0.295 N 
ATOM      6  C   UNL     1      -2.273  -0.309 -10.801  0.00  0.00    +0.108 C 
ATOM      7  C   UNL     1      -1.462   0.355  -9.684  0.00  0.00    +0.024 C 
ATOM      8  C   UNL     1      -4.206   0.746 -11.871  0.00  0.00    +0.282 C 
ATOM      9  O   UNL     1      -5.286   1.300 -11.798  0.00  0.00    -0.267 OA
BRANCH   8  10
ATOM     10  C   UNL     1      -3.512   0.655 -13.163  0.00  0.00    +0.191 A 
ATOM     11  C   UNL     1      -3.906   1.273 -14.307  0.00  0.00    +0.063 A 
ATOM     12  C   UNL     1      -2.926   0.901 -15.326  0.00  0.00    +0.021 A 
ATOM     13  C   UNL     1      -2.769   1.201 -16.682  0.00  0.00    +0.011 A 
ATOM     14  C   UNL     1      -1.713   0.678 -17.373  0.00  0.00    +0.001 A 
ATOM     15  C   UNL     1      -0.797  -0.149 -16.738  0.00  0.00    +0.004 A 
ATOM     16  C   UNL     1      -0.934  -0.458 -15.402  0.00  0.00    +0.047 A 
ATOM     17  C   UNL     1      -1.999   0.064 -14.678  0.00  0.00    +0.136 A 
ATOM     18  O   UNL     1      -2.384  -0.050 -13.392  0.00  0.00    -0.450 OA
ENDBRANCH   8  10
ENDBRANCH   1   2
BRANCH   1  21
ATOM     19  C   UNL     1      -1.424   0.939  -4.793  0.00  0.00    +0.299 C 
ATOM     20  O   UNL     1      -0.407   1.599  -4.837  0.00  0.00    -0.265 OA
ATOM     21  N   UNL     1      -1.980   0.481  -5.933  0.00  0.00    -0.307 N 
ATOM     22  H   UNL     1      -2.793  -0.047  -5.898  0.00  0.00    +0.149 HD
BRANCH  19  24
ATOM     23  N   UNL     1      -1.505   1.092  -2.338  0.00  0.00    -0.278 N 
ATOM     24  C   UNL     1      -2.060   0.634  -3.477  0.00  0.00    +0.303 C 
ATOM     25  O   UNL     1      -3.078  -0.027  -3.434  0.00  0.00    -0.265 OA
ATOM     26  H   UNL     1      -0.711   1.647  -2.374  0.00  0.00    +0.155 HD
BRANCH  23  32
ATOM     27  C   UNL     1      -1.266   0.620   0.018  0.00  0.00    -0.026 A 
ATOM     28  C   UNL     1      -1.832   0.304   1.237  0.00  0.00    +0.005 A 
ATOM     29  C   UNL     1      -3.199   0.127   1.342  0.00  0.00    +0.000 A 
ATOM     30  C   UNL     1      -4.005   0.265   0.226  0.00  0.00    +0.002 A 
ATOM     31  C   UNL     1      -3.446   0.581  -0.996  0.00  0.00    +0.023 A 
ATOM     32  C   UNL     1      -2.073   0.766  -1.103  0.00  0.00    +0.037 A 
BRANCH  27  34
ATOM     33  C   UNL     1       0.558   2.300   0.039  0.00  0.00    +0.009 C 
ATOM     34  C   UNL     1       0.224   0.813  -0.095  0.00  0.00    +0.033 C 
ENDBRANCH  27  34
ENDBRANCH  23  32
ENDBRANCH  19  24
ENDBRANCH   1  21
TORSDOF 6
