REMARK  Name = ZINC09343395
REMARK  9 active torsions:
REMARK  status: ('A' for Active; 'I' for Inactive)
REMARK    1  A    between atoms: C_4  and  C_7
REMARK    2  A    between atoms: C_7  and  C_9
REMARK    3  A    between atoms: C_14  and  N_15
REMARK    4  A    between atoms: C_16  and  C_18
REMARK    5  A    between atoms: C_18  and  C_19
REMARK    6  A    between atoms: C_19  and  N_20
REMARK    7  A    between atoms: N_20  and  S_21
REMARK    8  A    between atoms: S_21  and  C_24
REMARK    9  A    between atoms: C_27  and  N_30
REMARK                            x       y       z     vdW  Elec       q    Type
REMARK                         _______ _______ _______ _____ _____    ______ ____
ROOT
ATOM      1  N   UNL     1       3.564  -3.759  -5.845  0.00  0.00    -0.285 N 
ATOM      2  C   UNL     1       3.397  -3.115  -4.673  0.00  0.00    +0.218 C 
ATOM      3  O   UNL     1       4.210  -2.288  -4.315  0.00  0.00    -0.275 OA
ATOM      4  H   UNL     1       2.963  -4.479  -6.093  0.00  0.00    +0.155 HD
ENDROOT
BRANCH   1  10
ATOM      5  C   UNL     1       5.112  -4.316  -7.625  0.00  0.00    +0.045 A 
ATOM      6  C   UNL     1       6.152  -3.934  -8.479  0.00  0.00    +0.033 A 
ATOM      7  C   UNL     1       6.666  -2.658  -8.407  0.00  0.00    +0.042 A 
ATOM      8  C   UNL     1       6.157  -1.748  -7.492  0.00  0.00    +0.022 A 
ATOM      9  C   UNL     1       5.127  -2.109  -6.647  0.00  0.00    +0.025 A 
ATOM     10  C   UNL     1       4.600  -3.392  -6.701  0.00  0.00    +0.044 A 
ATOM     11 CL   UNL     1       7.957  -2.186  -9.467  0.00  0.00    -0.084 Cl
BRANCH   5  12
ATOM     12  C   UNL     1       4.557  -5.680  -7.696  0.00  0.00    +0.195 C 
ATOM     13  O   UNL     1       3.882  -6.013  -8.651  0.00  0.00    -0.287 OA
BRANCH  12  17
ATOM     14  C   UNL     1       5.317  -8.446  -4.563  0.00  0.00    +0.000 A 
ATOM     15  C   UNL     1       4.463  -8.792  -5.596  0.00  0.00    +0.001 A 
ATOM     16  C   UNL     1       4.212  -7.898  -6.616  0.00  0.00    +0.012 A 
ATOM     17  C   UNL     1       4.822  -6.642  -6.606  0.00  0.00    +0.022 A 
ATOM     18  C   UNL     1       5.687  -6.302  -5.564  0.00  0.00    +0.012 A 
ATOM     19  C   UNL     1       5.925  -7.203  -4.547  0.00  0.00    +0.001 A 
ENDBRANCH  12  17
ENDBRANCH   5  12
ENDBRANCH   1  10
BRANCH   2  20
ATOM     20  C   UNL     1       2.201  -3.420  -3.809  0.00  0.00    +0.113 C 
BRANCH  20  21
ATOM     21  C   UNL     1       2.251  -2.558  -2.546  0.00  0.00    +0.115 C 
BRANCH  21  22
ATOM     22  N   UNL     1       1.088  -2.854  -1.706  0.00  0.00    -0.189 NA
ATOM     23  H   UNL     1       0.335  -3.341  -2.075  0.00  0.00    +0.148 HD
BRANCH  22  24
ATOM     24  S   UNL     1       1.061  -2.360  -0.126  0.00  0.00    +0.058 S 
ATOM     25  O   UNL     1       2.298  -2.760   0.447  0.00  0.00    -0.153 OA
ATOM     26  O   UNL     1      -0.192  -2.769   0.406  0.00  0.00    -0.153 OA
BRANCH  24  27
ATOM     27  C   UNL     1       1.055  -0.598  -0.131  0.00  0.00    +0.105 A 
ATOM     28  C   UNL     1      -0.144   0.089  -0.153  0.00  0.00    +0.031 A 
ATOM     29  C   UNL     1      -0.149   1.471  -0.156  0.00  0.00    +0.034 A 
ATOM     30  C   UNL     1       1.046   2.167  -0.138  0.00  0.00    +0.126 A 
ATOM     31  C   UNL     1       2.245   1.479  -0.117  0.00  0.00    +0.034 A 
ATOM     32  C   UNL     1       2.250   0.097  -0.113  0.00  0.00    +0.031 A 
BRANCH  30  33
ATOM     33  N   UNL     1       1.041   3.647  -0.142  0.00  0.00    +0.056 N 
ATOM     34  O   UNL     1      -0.015   4.252  -0.161  0.00  0.00    -0.126 OA
ATOM     35  O   UNL     1       2.094   4.259  -0.125  0.00  0.00    -0.126 OA
ENDBRANCH  30  33
ENDBRANCH  24  27
ENDBRANCH  22  24
ENDBRANCH  21  22
ENDBRANCH  20  21
ENDBRANCH   2  20
TORSDOF 9
