REMARK  Name = ZINC09647799
REMARK  5 active torsions:
REMARK  status: ('A' for Active; 'I' for Inactive)
REMARK    1  A    between atoms: N_13  and  C_17
REMARK    2  A    between atoms: C_17  and  C_18
REMARK    3  A    between atoms: N_20  and  C_21
REMARK    4  A    between atoms: C_21  and  C_23
REMARK    5  A    between atoms: C_21  and  C_30
REMARK                            x       y       z     vdW  Elec       q    Type
REMARK                         _______ _______ _______ _____ _____    ______ ____
ROOT
ATOM      1  C   UNL     1       3.498   5.469   2.241  0.00  0.00    +0.213 C 
ENDROOT
BRANCH   1  14
ATOM      2  C   UNL     1       2.394   0.022  -0.027  0.00  0.00    +0.001 A 
ATOM      3  C   UNL     1       1.204  -0.682  -0.016  0.00  0.00    +0.004 A 
ATOM      4  C   UNL     1       0.002  -0.004   0.002  0.00  0.00    +0.046 A 
ATOM      5  C   UNL     1      -0.017   1.387   0.010  0.00  0.00    +0.126 A 
ATOM      6  C   UNL     1       1.177   2.090   0.002  0.00  0.00    +0.027 A 
ATOM      7  C   UNL     1       2.379   1.403  -0.018  0.00  0.00    +0.010 A 
ATOM      8  C   UNL     1       1.193   3.593   0.022  0.00  0.00    +0.144 C 
ATOM      9  C   UNL     1      -0.172   4.154  -0.361  0.00  0.00    +0.081 C 
ATOM     10  C   UNL     1      -1.248   3.391   0.424  0.00  0.00    +0.232 C 
ATOM     11  O   UNL     1      -1.217   2.022   0.019  0.00  0.00    -0.492 OA
ATOM     12  C   UNL     1       1.607   4.098   1.385  0.00  0.00    +0.252 C 
ATOM     13  O   UNL     1       1.038   3.914   2.440  0.00  0.00    -0.272 OA
ATOM     14  N   UNL     1       2.743   4.797   1.181  0.00  0.00    -0.215 N 
ATOM     15  C   UNL     1       3.094   4.801  -0.111  0.00  0.00    +0.310 C 
ATOM     16  O   UNL     1       4.080   5.366  -0.542  0.00  0.00    -0.252 OA
ATOM     17  N   UNL     1       2.232   4.107  -0.879  0.00  0.00    -0.281 N 
ATOM     18  H   UNL     1       2.287   3.974  -1.838  0.00  0.00    +0.152 HD
ENDBRANCH   1  14
BRANCH   1  19
ATOM     19  C   UNL     1       4.520   4.518   2.809  0.00  0.00    +0.232 C 
ATOM     20  O   UNL     1       4.609   3.391   2.371  0.00  0.00    -0.274 OA
ATOM     21  N   UNL     1       5.336   4.921   3.804  0.00  0.00    -0.303 N 
ATOM     22  H   UNL     1       5.264   5.823   4.154  0.00  0.00    +0.150 HD
BRANCH  21  23
ATOM     23  C   UNL     1       6.330   3.997   4.356  0.00  0.00    +0.140 C 
BRANCH  23  24
ATOM     24  C   UNL     1       7.466   4.782   4.957  0.00  0.00    -0.022 A 
ATOM     25  C   UNL     1       7.207   5.939   5.668  0.00  0.00    +0.008 A 
ATOM     26  C   UNL     1       8.248   6.658   6.224  0.00  0.00    +0.038 A 
ATOM     27  C   UNL     1       9.553   6.224   6.060  0.00  0.00    +0.123 A 
ATOM     28  C   UNL     1       9.812   5.068   5.343  0.00  0.00    +0.038 A 
ATOM     29  C   UNL     1       8.769   4.348   4.793  0.00  0.00    +0.008 A 
ATOM     30  F   UNL     1      10.572   6.928   6.599  0.00  0.00    -0.205 F 
ENDBRANCH  23  24
BRANCH  23  31
ATOM     31  C   UNL     1       5.688   3.146   5.421  0.00  0.00    +0.014 A 
ATOM     32  C   UNL     1       5.854   1.825   5.674  0.00  0.00    +0.013 A 
ATOM     33  C   UNL     1       5.156   1.250   6.719  0.00  0.00    +0.008 A 
ATOM     34  C   UNL     1       4.317   2.021   7.454  0.00  0.00    +0.045 A 
ATOM     35  S   UNL     1       4.504   3.616   6.673  0.00  0.00    -0.099 S 
ENDBRANCH  23  31
ENDBRANCH  21  23
ENDBRANCH   1  19
TORSDOF 5
