REMARK  Name = ZINC45604965
REMARK  8 active torsions:
REMARK  status: ('A' for Active; 'I' for Inactive)
REMARK    1  A    between atoms: C_4  and  O_27
REMARK    2  A    between atoms: C_5  and  C_7
REMARK    3  A    between atoms: C_7  and  O_9
REMARK    4  A    between atoms: O_9  and  C_10
REMARK    5  A    between atoms: C_10  and  C_11
REMARK    6  A    between atoms: N_16  and  C_17
REMARK    7  A    between atoms: O_27  and  C_28
REMARK    8  A    between atoms: C_28  and  C_29
REMARK                            x       y       z     vdW  Elec       q    Type
REMARK                         _______ _______ _______ _____ _____    ______ ____
ROOT
ATOM      1  C   UNL     1      -1.184  -4.881  -0.013  0.00  0.00    +0.258 C 
ATOM      2  O   UNL     1      -2.159  -4.161   0.001  0.00  0.00    -0.272 OA
ATOM      3  N   UNL     1      -1.335  -6.220  -0.019  0.00  0.00    -0.237 N 
ATOM      4  C   UNL     1      -2.571  -6.758  -0.009  0.00  0.00    +0.306 C 
ATOM      5  O   UNL     1      -3.548  -6.036   0.005  0.00  0.00    -0.252 OA
ATOM      6  N   UNL     1      -2.722  -8.098  -0.015  0.00  0.00    -0.294 N 
ATOM      7  H   UNL     1      -0.555  -6.796  -0.030  0.00  0.00    +0.159 HD
ATOM      8  H   UNL     1      -1.942  -8.674  -0.026  0.00  0.00    +0.151 HD
ENDROOT
BRANCH   6   9
ATOM      9  C   UNL     1      -4.065  -8.683  -0.005  0.00  0.00    +0.037 C 
ATOM     10  C   UNL     1      -4.808  -8.233   1.254  0.00  0.00    +0.029 C 
ATOM     11  C   UNL     1      -6.211  -8.844   1.265  0.00  0.00    -0.008 C 
ATOM     12  C   UNL     1      -6.102 -10.370   1.255  0.00  0.00    +0.007 C 
ATOM     13  C   UNL     1      -5.359 -10.820  -0.004  0.00  0.00    -0.008 C 
ATOM     14  C   UNL     1      -3.957 -10.209  -0.015  0.00  0.00    +0.029 C 
ATOM     15  C   UNL     1      -6.127 -10.356  -1.243  0.00  0.00    +0.007 C 
ATOM     16  C   UNL     1      -6.236  -8.830  -1.233  0.00  0.00    -0.008 C 
ATOM     17  C   UNL     1      -6.979  -8.379   0.026  0.00  0.00    +0.007 C 
ATOM     18  C   UNL     1      -4.833  -8.219  -1.244  0.00  0.00    +0.029 C 
ENDBRANCH   6   9
BRANCH   1  19
ATOM     19  C   UNL     1       0.198  -4.279  -0.023  0.00  0.00    +0.328 C 
BRANCH  19  20
ATOM     20  O   UNL     1       0.097  -2.853  -0.014  0.00  0.00    -0.452 OA
BRANCH  20  21
ATOM     21  C   UNL     1       1.251  -2.158  -0.022  0.00  0.00    +0.343 C 
ATOM     22  O   UNL     1       2.314  -2.746  -0.036  0.00  0.00    -0.245 OA
BRANCH  21  27
ATOM     23  C   UNL     1      -0.017   1.373   0.010  0.00  0.00    +0.001 A 
ATOM     24  C   UNL     1       1.170   2.089   0.002  0.00  0.00    +0.004 A 
ATOM     25  C   UNL     1       2.383   1.430  -0.013  0.00  0.00    +0.046 A 
ATOM     26  C   UNL     1       2.421   0.043  -0.021  0.00  0.00    +0.135 A 
ATOM     27  C   UNL     1       1.223  -0.684  -0.013  0.00  0.00    +0.101 A 
ATOM     28  C   UNL     1       0.002  -0.004   0.002  0.00  0.00    +0.018 A 
BRANCH  26  29
ATOM     29  O   UNL     1       3.612  -0.605  -0.037  0.00  0.00    -0.489 OA
BRANCH  29  30
ATOM     30  C   UNL     1       4.791   0.203  -0.045  0.00  0.00    +0.260 C 
BRANCH  30  31
ATOM     31  C   UNL     1       6.027  -0.699  -0.062  0.00  0.00    +0.156 C 
ATOM     32  C   UNL     1       7.304   0.161   0.051  0.00  0.00    +0.037 C 
ATOM     33  C   UNL     1       8.274  -0.559  -0.925  0.00  0.00    +0.031 C 
ATOM     34  C   UNL     1       7.287  -1.046  -2.015  0.00  0.00    +0.160 C 
ATOM     35  O   UNL     1       6.091  -1.411  -1.303  0.00  0.00    -0.373 OA
ENDBRANCH  30  31
ENDBRANCH  29  30
ENDBRANCH  26  29
ENDBRANCH  21  27
ENDBRANCH  20  21
ENDBRANCH  19  20
ENDBRANCH   1  19
TORSDOF 8
