REMARK  Name = ZINC56984453
REMARK  7 active torsions:
REMARK  status: ('A' for Active; 'I' for Inactive)
REMARK    1  A    between atoms: C_1  and  C_2
REMARK    2  A    between atoms: C_5  and  C_26
REMARK    3  A    between atoms: C_8  and  C_25
REMARK    4  A    between atoms: C_9  and  C_11
REMARK    5  A    between atoms: N_13  and  C_14
REMARK    6  A    between atoms: C_14  and  C_16
REMARK    7  A    between atoms: C_14  and  C_17
REMARK                            x       y       z     vdW  Elec       q    Type
REMARK                         _______ _______ _______ _____ _____    ______ ____
ROOT
ATOM      1  C   UNL     1       0.289  -1.822   4.663  0.00  0.00    +0.280 C 
ATOM      2  O   UNL     1       0.201  -0.740   5.213  0.00  0.00    -0.267 OA
ATOM      3  N   UNL     1       0.252  -2.954   5.394  0.00  0.00    -0.298 N 
ATOM      4  H   UNL     1       0.322  -3.816   4.956  0.00  0.00    +0.150 HD
ENDROOT
BRANCH   1  13
ATOM      5  C   UNL     1       0.713   0.694  -0.420  0.00  0.00    +0.044 C 
ATOM      6  C   UNL     1       0.744  -0.803  -0.253  0.00  0.00    -0.039 A 
ATOM      7  C   UNL     1       0.882  -1.613  -1.345  0.00  0.00    +0.004 A 
ATOM      8  C   UNL     1       0.911  -2.993  -1.198  0.00  0.00    +0.007 A 
ATOM      9  C   UNL     1       0.801  -3.571   0.048  0.00  0.00    -0.008 A 
ATOM     10  C   UNL     1       0.659  -2.768   1.173  0.00  0.00    +0.139 A 
ATOM     11  C   UNL     1       0.636  -1.369   1.019  0.00  0.00    +0.027 A 
ATOM     12  C   UNL     1       0.484  -0.824   2.368  0.00  0.00    +0.008 A 
ATOM     13  C   UNL     1       0.435  -1.895   3.203  0.00  0.00    +0.193 A 
ATOM     14  O   UNL     1       0.532  -3.035   2.488  0.00  0.00    -0.450 OA
ATOM     15  C   UNL     1       0.400   0.630   2.753  0.00  0.00    +0.048 C 
ATOM     16  C   UNL     1       0.834  -5.071   0.190  0.00  0.00    +0.047 C 
ENDBRANCH   1  13
BRANCH   3  17
ATOM     17  C   UNL     1       0.106  -2.881   6.850  0.00  0.00    +0.156 C 
ATOM     18  C   UNL     1       1.482  -2.686   7.491  0.00  0.00    +0.038 C 
BRANCH  17  19
ATOM     19  C   UNL     1      -0.508  -4.160   7.358  0.00  0.00    +0.236 C 
ATOM     20  O   UNL     1      -0.496  -5.155   6.664  0.00  0.00    -0.274 OA
ATOM     21  N   UNL     1      -1.069  -4.199   8.582  0.00  0.00    -0.300 N 
ATOM     22  C   UNL     1      -1.195  -2.976   9.387  0.00  0.00    +0.108 C 
ATOM     23  C   UNL     1      -2.658  -2.814   9.812  0.00  0.00    +0.019 C 
ATOM     24  C   UNL     1      -3.121  -4.086  10.526  0.00  0.00    +0.003 C 
ATOM     25  C   UNL     1      -3.026  -5.274   9.566  0.00  0.00    +0.019 C 
ATOM     26  C   UNL     1      -1.573  -5.463   9.136  0.00  0.00    +0.108 C 
ENDBRANCH  17  19
ENDBRANCH   3  17
TORSDOF 3
