REMARK  Name = ZINC60203986
REMARK  10 active torsions:
REMARK  status: ('A' for Active; 'I' for Inactive)
REMARK    1  A    between atoms: C_1  and  C_2
REMARK    2  A    between atoms: C_5  and  N_9
REMARK    3  A    between atoms: C_10  and  C_12
REMARK    4  A    between atoms: C_12  and  N_13
REMARK    5  A    between atoms: C_14  and  C_16
REMARK    6  A    between atoms: C_16  and  C_18
REMARK    7  A    between atoms: C_16  and  N_21
REMARK    8  A    between atoms: C_18  and  C_19
REMARK    9  A    between atoms: C_18  and  C_20
REMARK   10  A    between atoms: C_22  and  C_24
REMARK                            x       y       z     vdW  Elec       q    Type
REMARK                         _______ _______ _______ _____ _____    ______ ____
ROOT
ATOM      1  N   UNL     1      -0.579  -7.179  -2.351  0.00  0.00    -0.305 N 
ATOM      2  C   UNL     1      -0.258  -8.425  -2.751  0.00  0.00    +0.234 C 
ATOM      3  O   UNL     1       0.064  -9.261  -1.934  0.00  0.00    -0.274 OA
ATOM      4  H   UNL     1      -0.899  -6.529  -2.996  0.00  0.00    +0.149 HD
ENDROOT
BRANCH   1   5
ATOM      5  C   UNL     1      -0.444  -6.805  -0.941  0.00  0.00    +0.200 C 
BRANCH   5   7
ATOM      6  N   UNL     1      -0.823  -4.805   0.464  0.00  0.00    -0.283 N 
ATOM      7  C   UNL     1      -0.864  -5.370  -0.759  0.00  0.00    +0.234 C 
ATOM      8  O   UNL     1      -1.239  -4.722  -1.713  0.00  0.00    -0.274 OA
ATOM      9  H   UNL     1      -0.459  -5.300   1.215  0.00  0.00    +0.155 HD
BRANCH   6  14
ATOM     10  C   UNL     1      -2.780   0.467   1.223  0.00  0.00    +0.044 C 
ATOM     11  C   UNL     1      -2.260  -0.933   1.022  0.00  0.00    -0.049 A 
ATOM     12  C   UNL     1      -2.701  -1.686  -0.051  0.00  0.00    +0.005 A 
ATOM     13  C   UNL     1      -2.226  -2.969  -0.239  0.00  0.00    +0.025 A 
ATOM     14  C   UNL     1      -1.305  -3.504   0.651  0.00  0.00    +0.052 A 
ATOM     15  C   UNL     1      -0.863  -2.746   1.729  0.00  0.00    +0.062 A 
ATOM     16  C   UNL     1      -1.338  -1.460   1.907  0.00  0.00    +0.025 A 
ATOM     17 CL   UNL     1       0.289  -3.410   2.845  0.00  0.00    -0.082 Cl
ENDBRANCH   6  14
ENDBRANCH   5   7
ENDBRANCH   1   5
BRANCH   2  18
ATOM     18  C   UNL     1      -0.299  -8.780  -4.215  0.00  0.00    +0.162 C 
BRANCH  18  19
ATOM     19  N   UNL     1      -0.377 -10.235  -4.363  0.00  0.00    -0.300 N 
ATOM     20  C   UNL     1      -0.915 -10.772  -5.476  0.00  0.00    +0.250 C 
ATOM     21  O   UNL     1      -1.337 -10.047  -6.357  0.00  0.00    -0.270 OA
ATOM     22  H   UNL     1      -0.040 -10.813  -3.660  0.00  0.00    +0.150 HD
BRANCH  20  23
ATOM     23  C   UNL     1      -0.994 -12.237  -5.625  0.00  0.00    +0.107 A 
ATOM     24  C   UNL     1      -2.123 -12.931  -5.176  0.00  0.00    +0.138 A 
ATOM     25  C   UNL     1      -2.189 -14.304  -5.320  0.00  0.00    +0.039 A 
ATOM     26  C   UNL     1      -1.142 -14.992  -5.905  0.00  0.00    +0.006 A 
ATOM     27  C   UNL     1      -0.021 -14.315  -6.351  0.00  0.00    +0.039 A 
ATOM     28  C   UNL     1       0.058 -12.941  -6.221  0.00  0.00    +0.138 A 
ATOM     29  F   UNL     1       1.151 -12.281  -6.663  0.00  0.00    -0.205 F 
ATOM     30  F   UNL     1      -3.147 -12.260  -4.603  0.00  0.00    -0.205 F 
ENDBRANCH  20  23
ENDBRANCH  18  19
BRANCH  18  31
ATOM     31  C   UNL     1       0.969  -8.265  -4.901  0.00  0.00    +0.012 C 
ATOM     32  C   UNL     1       1.025  -6.740  -4.788  0.00  0.00    +0.009 C 
ATOM     33  C   UNL     1       2.198  -8.872  -4.222  0.00  0.00    +0.009 C 
ENDBRANCH  18  31
ENDBRANCH   2  18
TORSDOF 7
