REMARK  Name = ZINC40849394
REMARK  9 active torsions:
REMARK  status: ('A' for Active; 'I' for Inactive)
REMARK    1  A    between atoms: C_1  and  C_2
REMARK    2  A    between atoms: C_5  and  C_8
REMARK    3  A    between atoms: N_21  and  C_22
REMARK    4  A    between atoms: C_22  and  C_23
REMARK    5  A    between atoms: N_25  and  C_26
REMARK    6  A    between atoms: C_26  and  C_28
REMARK    7  A    between atoms: C_26  and  C_29
REMARK    8  A    between atoms: C_29  and  C_30
REMARK    9  A    between atoms: C_30  and  C_31
REMARK                            x       y       z     vdW  Elec       q    Type
REMARK                         _______ _______ _______ _____ _____    ______ ____
ROOT
ATOM      1  C   UNL     1       0.059  -4.251  -0.021  0.00  0.00    +0.169 A 
ATOM      2  N   UNL     1      -0.293  -5.034  -1.024  0.00  0.00    -0.128 NA
ATOM      3  N   UNL     1      -0.152  -6.269  -0.690  0.00  0.00    -0.125 NA
ATOM      4  C   UNL     1       0.298  -6.347   0.545  0.00  0.00    +0.202 A 
ATOM      5  N   UNL     1       0.449  -5.059   1.001  0.00  0.00    -0.271 N 
ATOM      6  C   UNL     1       0.920  -4.846   2.285  0.00  0.00    +0.075 A 
ATOM      7  C   UNL     1       1.079  -3.555   2.774  0.00  0.00    +0.028 A 
ATOM      8  C   UNL     1       1.548  -3.354   4.054  0.00  0.00    +0.002 A 
ATOM      9  C   UNL     1       1.864  -4.435   4.865  0.00  0.00    +0.002 A 
ATOM     10  C   UNL     1       1.713  -5.721   4.400  0.00  0.00    +0.030 A 
ATOM     11  C   UNL     1       1.238  -5.945   3.102  0.00  0.00    +0.090 A 
ATOM     12  N   UNL     1       1.089  -7.215   2.645  0.00  0.00    -0.227 NA
ATOM     13  C   UNL     1       0.639  -7.459   1.435  0.00  0.00    +0.165 A 
ATOM     14  N   UNL     1       0.500  -8.763   0.998  0.00  0.00    -0.318 N 
ATOM     15  H   UNL     1       0.177  -8.942   0.101  0.00  0.00    +0.148 HD
ENDROOT
BRANCH   1  20
ATOM     16  C   UNL     1      -0.017   1.503   0.009  0.00  0.00    +0.044 C 
ATOM     17  C   UNL     1       0.003  -0.004   0.001  0.00  0.00    -0.050 A 
ATOM     18  C   UNL     1       1.179  -0.679   0.279  0.00  0.00    +0.004 A 
ATOM     19  C   UNL     1       1.204  -2.058   0.273  0.00  0.00    +0.012 A 
ATOM     20  C   UNL     1       0.040  -2.773  -0.013  0.00  0.00    +0.020 A 
ATOM     21  C   UNL     1      -1.143  -2.086  -0.292  0.00  0.00    +0.012 A 
ATOM     22  C   UNL     1      -1.156  -0.707  -0.278  0.00  0.00    +0.004 A 
ENDBRANCH   1  20
BRANCH  14  23
ATOM     23  C   UNL     1       0.842  -9.874   1.889  0.00  0.00    +0.199 C 
BRANCH  23  24
ATOM     24  C   UNL     1       0.603 -11.181   1.177  0.00  0.00    +0.230 C 
ATOM     25  O   UNL     1       0.188 -11.183   0.037  0.00  0.00    -0.274 OA
ATOM     26  N   UNL     1       0.850 -12.346   1.806  0.00  0.00    -0.311 N 
ATOM     27  H   UNL     1       1.182 -12.345   2.718  0.00  0.00    +0.149 HD
BRANCH  26  28
ATOM     28  C   UNL     1       0.618 -13.616   1.114  0.00  0.00    +0.070 C 
ATOM     29  C   UNL     1       1.849 -13.975   0.279  0.00  0.00    +0.028 C 
BRANCH  28  30
ATOM     30  C   UNL     1       0.360 -14.719   2.143  0.00  0.00    +0.026 C 
BRANCH  30  31
ATOM     31  C   UNL     1      -0.940 -14.423   2.893  0.00  0.00    +0.037 C 
BRANCH  31  32
ATOM     32  C   UNL     1      -1.193 -15.509   3.907  0.00  0.00    -0.047 A 
ATOM     33  C   UNL     1      -1.918 -16.631   3.551  0.00  0.00    +0.003 A 
ATOM     34  C   UNL     1      -2.151 -17.627   4.481  0.00  0.00    +0.000 A 
ATOM     35  C   UNL     1      -1.658 -17.501   5.766  0.00  0.00    +0.000 A 
ATOM     36  C   UNL     1      -0.932 -16.380   6.122  0.00  0.00    +0.000 A 
ATOM     37  C   UNL     1      -0.696 -15.386   5.191  0.00  0.00    +0.003 A 
ENDBRANCH  31  32
ENDBRANCH  30  31
ENDBRANCH  28  30
ENDBRANCH  26  28
ENDBRANCH  23  24
ENDBRANCH  14  23
TORSDOF 7
