REMARK  Name = ZINC14206535
REMARK  5 active torsions:
REMARK  status: ('A' for Active; 'I' for Inactive)
REMARK    1  A    between atoms: C_1  and  C_2
REMARK    2  A    between atoms: C_5  and  N_9
REMARK    3  A    between atoms: C_6  and  C_8
REMARK    4  A    between atoms: C_10  and  C_12
REMARK    5  A    between atoms: N_15  and  C_17
REMARK                            x       y       z     vdW  Elec       q    Type
REMARK                         _______ _______ _______ _____ _____    ______ ____
ROOT
ATOM      1  C   UNL     1       3.716  -0.946   0.215  0.00  0.00    +0.151 A 
ATOM      2  C   UNL     1       3.904  -2.338   0.251  0.00  0.00    +0.006 A 
ATOM      3  C   UNL     1       5.245  -2.532   0.287  0.00  0.00    +0.049 A 
ATOM      4  N   UNL     1       5.825  -1.312   0.279  0.00  0.00    -0.236 N 
ATOM      5  N   UNL     1       4.919  -0.397   0.238  0.00  0.00    -0.161 NA
ATOM      6  C   UNL     1       5.897  -3.890   0.334  0.00  0.00    +0.056 C 
ATOM      7  C   UNL     1       4.837  -4.918   0.758  0.00  0.00    +0.006 C 
ATOM      8  C   UNL     1       3.590  -4.753  -0.115  0.00  0.00    +0.005 C 
ATOM      9  C   UNL     1       2.881  -3.441   0.247  0.00  0.00    +0.039 C 
ENDROOT
BRANCH   4  10
ATOM     10  C   UNL     1       7.206  -1.076   0.311  0.00  0.00    +0.066 A 
ATOM     11  C   UNL     1       7.720  -0.060   1.106  0.00  0.00    +0.030 A 
ATOM     12  C   UNL     1       9.082   0.167   1.140  0.00  0.00    +0.040 A 
ATOM     13  C   UNL     1       9.934  -0.611   0.374  0.00  0.00    +0.124 A 
ATOM     14  C   UNL     1       9.422  -1.622  -0.424  0.00  0.00    +0.040 A 
ATOM     15  C   UNL     1       8.062  -1.855  -0.457  0.00  0.00    +0.030 A 
ATOM     16  F   UNL     1      11.265  -0.384   0.404  0.00  0.00    -0.205 F 
ENDBRANCH   4  10
BRANCH   1  18
ATOM     17  N   UNL     1       2.397   1.114   0.141  0.00  0.00    -0.280 N 
ATOM     18  C   UNL     1       2.423  -0.233   0.167  0.00  0.00    +0.269 C 
ATOM     19  O   UNL     1       1.383  -0.862   0.150  0.00  0.00    -0.268 OA
ATOM     20  H   UNL     1       3.227   1.614   0.085  0.00  0.00    +0.155 HD
BRANCH  17  25
ATOM     21  C   UNL     1      -2.562   3.859   0.365  0.00  0.00    +0.044 C 
ATOM     22  C   UNL     1      -1.244   3.130   0.306  0.00  0.00    -0.050 A 
ATOM     23  C   UNL     1      -1.156   1.916  -0.352  0.00  0.00    +0.005 A 
ATOM     24  C   UNL     1       0.048   1.243  -0.404  0.00  0.00    +0.024 A 
ATOM     25  C   UNL     1       1.175   1.791   0.196  0.00  0.00    +0.037 A 
ATOM     26  C   UNL     1       1.084   3.012   0.852  0.00  0.00    -0.029 A 
ATOM     27  C   UNL     1      -0.125   3.678   0.904  0.00  0.00    +0.008 A 
ATOM     28  C   UNL     1       2.304   3.610   1.505  0.00  0.00    +0.045 C 
ENDBRANCH  17  25
ENDBRANCH   1  18
TORSDOF 3
