REMARK  Name = ZINC57099763
REMARK  11 active torsions:
REMARK  status: ('A' for Active; 'I' for Inactive)
REMARK    1  A    between atoms: C_1  and  C_2
REMARK    2  A    between atoms: C_12  and  C_22
REMARK    3  A    between atoms: C_15  and  C_18
REMARK    4  A    between atoms: C_18  and  C_19
REMARK    5  A    between atoms: C_19  and  C_20
REMARK    6  A    between atoms: C_19  and  C_21
REMARK    7  A    between atoms: N_24  and  C_25
REMARK    8  A    between atoms: C_27  and  O_33
REMARK    9  A    between atoms: C_30  and  O_31
REMARK   10  A    between atoms: O_31  and  C_32
REMARK   11  A    between atoms: O_33  and  C_34
REMARK                            x       y       z     vdW  Elec       q    Type
REMARK                         _______ _______ _______ _____ _____    ______ ____
ROOT
ATOM      1  C   UNL     1       0.021   1.206   0.046  0.00  0.00    +0.046 C 
ATOM      2  C   UNL     1      -0.017  -0.299   0.100  0.00  0.00    -0.028 A 
ATOM      3  C   UNL     1      -0.008  -1.030  -1.071  0.00  0.00    +0.025 A 
ATOM      4  C   UNL     1      -0.042  -2.413  -1.032  0.00  0.00    +0.042 A 
ATOM      5  C   UNL     1      -0.084  -3.066   0.189  0.00  0.00    +0.027 A 
ATOM      6  C   UNL     1      -0.092  -2.340   1.358  0.00  0.00    +0.005 A 
ATOM      7  C   UNL     1      -0.054  -0.950   1.331  0.00  0.00    +0.042 A 
ATOM      8  N   UNL     1      -0.065  -0.441   2.631  0.00  0.00    -0.283 N 
ATOM      9  C   UNL     1      -0.104  -1.416   3.558  0.00  0.00    +0.243 C 
ATOM     10  O   UNL     1      -0.122  -1.270   4.762  0.00  0.00    -0.273 OA
ATOM     11  C   UNL     1      -0.132  -2.725   2.812  0.00  0.00    +0.135 C 
ATOM     12  C   UNL     1      -1.398  -3.527   3.135  0.00  0.00    +0.110 C 
ATOM     13  C   UNL     1      -0.882  -4.879   3.686  0.00  0.00    +0.034 C 
ATOM     14  C   UNL     1       0.556  -4.960   3.112  0.00  0.00    +0.056 C 
ATOM     15  N   UNL     1       1.030  -3.552   3.175  0.00  0.00    -0.296 NA
ATOM     16 CL   UNL     1      -0.033  -3.325  -2.508  0.00  0.00    -0.084 Cl
ATOM     17  H   UNL     1      -0.047   0.506   2.843  0.00  0.00    +0.155 HD
ATOM     18  H   UNL     1       1.796  -3.400   2.535  0.00  0.00    +0.123 HD
ENDROOT
BRANCH  12  19
ATOM     19  C   UNL     1      -2.215  -3.744   1.888  0.00  0.00    +0.223 C 
ATOM     20  O   UNL     1      -2.108  -4.779   1.265  0.00  0.00    -0.275 OA
ATOM     21  N   UNL     1      -3.063  -2.787   1.463  0.00  0.00    -0.282 N 
ATOM     22  H   UNL     1      -3.089  -1.927   1.912  0.00  0.00    +0.155 HD
BRANCH  21  23
ATOM     23  C   UNL     1      -3.908  -3.033   0.373  0.00  0.00    +0.079 A 
ATOM     24  C   UNL     1      -4.185  -4.337  -0.011  0.00  0.00    +0.072 A 
ATOM     25  C   UNL     1      -5.022  -4.578  -1.089  0.00  0.00    +0.122 A 
ATOM     26  C   UNL     1      -5.582  -3.516  -1.785  0.00  0.00    +0.049 A 
ATOM     27  C   UNL     1      -5.307  -2.216  -1.405  0.00  0.00    +0.051 A 
ATOM     28  C   UNL     1      -4.476  -1.970  -0.324  0.00  0.00    +0.141 A 
BRANCH  28  29
ATOM     29  O   UNL     1      -4.211  -0.690   0.053  0.00  0.00    -0.493 OA
ATOM     30  C   UNL     1      -4.828   0.352  -0.706  0.00  0.00    +0.277 C 
ENDBRANCH  28  29
BRANCH  25  31
ATOM     31  O   UNL     1      -5.293  -5.856  -1.467  0.00  0.00    -0.495 OA
ATOM     32  C   UNL     1      -6.163  -6.030  -2.587  0.00  0.00    +0.277 C 
ENDBRANCH  25  31
ENDBRANCH  21  23
ENDBRANCH  12  19
BRANCH  14  33
ATOM     33  C   UNL     1       1.432  -5.867   3.979  0.00  0.00    +0.021 C 
BRANCH  33  34
ATOM     34  C   UNL     1       2.805  -6.028   3.324  0.00  0.00    -0.016 C 
ATOM     35  C   UNL     1       3.721  -6.831   4.250  0.00  0.00    +0.007 C 
ATOM     36  C   UNL     1       2.651  -6.766   1.993  0.00  0.00    +0.007 C 
ENDBRANCH  33  34
ENDBRANCH  14  33
TORSDOF 6
