REMARK  Name = ZINC62438252
REMARK  9 active torsions:
REMARK  status: ('A' for Active; 'I' for Inactive)
REMARK    1  A    between atoms: C_1  and  C_2
REMARK    2  A    between atoms: C_2  and  C_3
REMARK    3  A    between atoms: C_2  and  C_4
REMARK    4  A    between atoms: C_4  and  N_5
REMARK    5  A    between atoms: N_8  and  C_9
REMARK    6  A    between atoms: C_9  and  C_11
REMARK    7  A    between atoms: C_9  and  C_22
REMARK    8  A    between atoms: C_11  and  C_12
REMARK    9  A    between atoms: N_24  and  C_25
REMARK                            x       y       z     vdW  Elec       q    Type
REMARK                         _______ _______ _______ _____ _____    ______ ____
ROOT
ATOM      1  C   UNL     1       5.157  -0.396  -3.271  0.00  0.00    +0.165 C 
ENDROOT
BRANCH   1   5
ATOM      2  N   UNL     1       2.127  -0.101  -1.208  0.00  0.00    -0.299 N 
ATOM      3  C   UNL     1       2.960  -0.425  -2.217  0.00  0.00    +0.300 C 
ATOM      4  O   UNL     1       2.546  -1.064  -3.166  0.00  0.00    -0.253 OA
ATOM      5  N   UNL     1       4.252  -0.043  -2.174  0.00  0.00    -0.288 N 
ATOM      6  H   UNL     1       2.458   0.409  -0.452  0.00  0.00    +0.150 HD
ATOM      7  H   UNL     1       4.582   0.467  -1.418  0.00  0.00    +0.151 HD
BRANCH   2   8
ATOM      8  C   UNL     1       0.724  -0.517  -1.255  0.00  0.00    +0.108 C 
BRANCH   8  10
ATOM      9  C   UNL     1      -0.027   1.506   0.005  0.00  0.00    +0.009 C 
ATOM     10  C   UNL     1       0.004  -0.024   0.002  0.00  0.00    -0.000 C 
ATOM     11  C   UNL     1      -1.428  -0.563   0.014  0.00  0.00    +0.009 C 
ENDBRANCH   8  10
ENDBRANCH   2   8
ENDBRANCH   1   5
BRANCH   1  12
ATOM     12  C   UNL     1       5.040   0.630  -4.369  0.00  0.00    +0.238 C 
ATOM     13  O   UNL     1       4.275   1.563  -4.248  0.00  0.00    -0.273 OA
ATOM     14  N   UNL     1       5.785   0.509  -5.486  0.00  0.00    -0.284 N 
ATOM     15  H   UNL     1       6.444  -0.199  -5.555  0.00  0.00    +0.155 HD
BRANCH  14  16
ATOM     16  C   UNL     1       5.606   1.405  -6.546  0.00  0.00    +0.033 A 
ATOM     17  C   UNL     1       5.734   0.967  -7.857  0.00  0.00    +0.023 A 
ATOM     18  C   UNL     1       5.558   1.853  -8.901  0.00  0.00    +0.002 A 
ATOM     19  C   UNL     1       5.254   3.177  -8.641  0.00  0.00    +0.000 A 
ATOM     20  C   UNL     1       5.127   3.618  -7.337  0.00  0.00    +0.002 A 
ATOM     21  C   UNL     1       5.295   2.734  -6.288  0.00  0.00    +0.023 A 
ENDBRANCH  14  16
ENDBRANCH   1  12
BRANCH   1  22
ATOM     22  C   UNL     1       6.597  -0.426  -2.754  0.00  0.00    +0.069 C 
BRANCH  22  23
ATOM     23  C   UNL     1       6.744  -1.534  -1.743  0.00  0.00    -0.020 A 
ATOM     24  C   UNL     1       6.638  -1.418  -0.410  0.00  0.00    +0.087 A 
ATOM     25  N   UNL     1       6.833  -2.637   0.182  0.00  0.00    -0.360 N 
ATOM     26  H   UNL     1       6.805  -2.804   1.137  0.00  0.00    +0.165 HD
ATOM     27  C   UNL     1       7.074  -3.591  -0.781  0.00  0.00    +0.047 A 
ATOM     28  C   UNL     1       7.022  -2.944  -2.029  0.00  0.00    +0.003 A 
ATOM     29  C   UNL     1       7.226  -3.674  -3.201  0.00  0.00    +0.010 A 
ATOM     30  C   UNL     1       7.472  -5.016  -3.130  0.00  0.00    +0.001 A 
ATOM     31  C   UNL     1       7.520  -5.660  -1.902  0.00  0.00    +0.002 A 
ATOM     32  C   UNL     1       7.330  -4.957  -0.732  0.00  0.00    +0.026 A 
ENDBRANCH  22  23
ENDBRANCH   1  22
TORSDOF 7
