REMARK  Name = ZINC61564062
REMARK  5 active torsions:
REMARK  status: ('A' for Active; 'I' for Inactive)
REMARK    1  A    between atoms: C_1  and  C_2
REMARK    2  A    between atoms: C_5  and  C_7
REMARK    3  A    between atoms: C_7  and  C_8
REMARK    4  A    between atoms: C_10  and  C_13
REMARK    5  A    between atoms: C_18  and  N_19
REMARK                            x       y       z     vdW  Elec       q    Type
REMARK                         _______ _______ _______ _____ _____    ______ ____
ROOT
ATOM      1  C   UNL     1      -1.533  -4.167   2.908  0.00  0.00    +0.178 A 
ATOM      2  N   UNL     1      -2.152  -3.341   3.754  0.00  0.00    -0.191 NA
ATOM      3  C   UNL     1      -3.437  -3.622   3.796  0.00  0.00    +0.260 A 
ATOM      4  O   UNL     1      -3.665  -4.652   2.961  0.00  0.00    -0.333 OA
ATOM      5  N   UNL     1      -2.407  -4.985   2.392  0.00  0.00    -0.060 NA
ENDROOT
BRANCH   3   6
ATOM      6  C   UNL     1      -4.450  -2.929   4.614  0.00  0.00    +0.063 A 
ATOM      7  C   UNL     1      -4.199  -2.661   5.963  0.00  0.00    +0.056 A 
ATOM      8  C   UNL     1      -5.149  -2.013   6.723  0.00  0.00    +0.159 A 
ATOM      9  C   UNL     1      -6.356  -1.625   6.154  0.00  0.00    +0.160 A 
ATOM     10  C   UNL     1      -6.616  -1.885   4.821  0.00  0.00    +0.064 A 
ATOM     11  C   UNL     1      -5.667  -2.531   4.041  0.00  0.00    +0.040 A 
ATOM     12  F   UNL     1      -7.282  -0.991   6.908  0.00  0.00    -0.202 F 
ATOM     13  F   UNL     1      -4.906  -1.755   8.027  0.00  0.00    -0.202 F 
BRANCH  11  14
ATOM     14  N   UNL     1      -5.924  -2.788   2.698  0.00  0.00    -0.357 N 
ATOM     15  H   UNL     1      -5.228  -3.159   2.133  0.00  0.00    +0.142 HD
ATOM     16  H   UNL     1      -6.799  -2.595   2.326  0.00  0.00    +0.142 HD
ENDBRANCH  11  14
ENDBRANCH   3   6
BRANCH   1  17
ATOM     17  C   UNL     1      -0.059  -4.153   2.595  0.00  0.00    +0.142 C 
BRANCH  17  22
ATOM     18  C   UNL     1       0.982   0.203   0.362  0.00  0.00    +0.066 C 
ATOM     19  C   UNL     1       0.671  -1.272   0.341  0.00  0.00    +0.046 A 
ATOM     20  C   UNL     1       0.587  -1.963  -0.824  0.00  0.00    +0.070 A 
ATOM     21  S   UNL     1       0.208  -3.597  -0.211  0.00  0.00    -0.080 S 
ATOM     22  C   UNL     1       0.198  -3.230   1.431  0.00  0.00    +0.086 A 
ATOM     23  N   UNL     1       0.473  -1.950   1.454  0.00  0.00    -0.249 NA
ENDBRANCH  17  22
ENDBRANCH   1  17
TORSDOF 4
