REMARK  Name = ZINC20527857
REMARK  10 active torsions:
REMARK  status: ('A' for Active; 'I' for Inactive)
REMARK    1  A    between atoms: C_1  and  C_2
REMARK    2  A    between atoms: C_4  and  O_32
REMARK    3  A    between atoms: C_7  and  N_8
REMARK    4  A    between atoms: C_9  and  C_11
REMARK    5  A    between atoms: C_11  and  S_12
REMARK    6  A    between atoms: S_12  and  C_13
REMARK    7  A    between atoms: N_17  and  N_18
REMARK    8  A    between atoms: N_19  and  N_20
REMARK    9  A    between atoms: C_21  and  C_22
REMARK   10  A    between atoms: O_32  and  C_33
REMARK                            x       y       z     vdW  Elec       q    Type
REMARK                         _______ _______ _______ _____ _____    ______ ____
ROOT
ATOM      1  C   UNL     1      -7.912   3.544   0.022  0.00  0.00    +0.210 A 
ATOM      2  N   UNL     1      -7.051   4.532   0.016  0.00  0.00    -0.119 NA
ATOM      3  N   UNL     1      -5.761   3.984   0.004  0.00  0.00    -0.109 NA
ATOM      4  C   UNL     1      -5.877   2.678  -0.007  0.00  0.00    +0.254 A 
ATOM      5  N   UNL     1      -7.210   2.372   0.007  0.00  0.00    -0.211 N 
ATOM      6  N   UNL     1      -4.832   1.767  -0.024  0.00  0.00    -0.204 N 
ATOM      7  H   UNL     1      -5.043   0.687  -0.027  0.00  0.00    +0.177 HD
ENDROOT
BRANCH   5   8
ATOM      8  N   UNL     1      -7.745   1.115   0.007  0.00  0.00    -0.294 N 
ATOM      9  H   UNL     1      -7.084   0.236  -0.005  0.00  0.00    +0.163 HD
ATOM     10  H   UNL     1      -8.837   0.982   0.019  0.00  0.00    +0.163 HD
ENDBRANCH   5   8
BRANCH   6  11
ATOM     11  N   UNL     1      -3.506   2.222  -0.038  0.00  0.00    -0.187 NA
ATOM     12  C   UNL     1      -2.527   1.368  -0.054  0.00  0.00    +0.140 C 
BRANCH  12  13
ATOM     13  C   UNL     1      -1.134   1.846  -0.068  0.00  0.00    +0.020 A 
ATOM     14  C   UNL     1      -0.012   1.079  -0.086  0.00  0.00    +0.093 A 
ATOM     15  N   UNL     1       1.093   1.880  -0.101  0.00  0.00    -0.360 N 
ATOM     16  H   UNL     1       2.097   1.432  -0.121  0.00  0.00    +0.165 HD
ATOM     17  C   UNL     1       0.720   3.207  -0.088  0.00  0.00    +0.047 A 
ATOM     18  C   UNL     1      -0.685   3.249  -0.063  0.00  0.00    +0.008 A 
ATOM     19  C   UNL     1      -1.346   4.476  -0.045  0.00  0.00    +0.010 A 
ATOM     20  C   UNL     1      -0.616   5.644  -0.053  0.00  0.00    +0.001 A 
ATOM     21  C   UNL     1       0.771   5.604  -0.077  0.00  0.00    +0.002 A 
ATOM     22  C   UNL     1       1.438   4.398  -0.095  0.00  0.00    +0.026 A 
ENDBRANCH  12  13
ENDBRANCH   6  11
BRANCH   1  23
ATOM     23  S   UNL     1      -9.667   3.699   0.043  0.00  0.00    -0.075 S 
BRANCH  23  24
ATOM     24  C   UNL     1      -9.949   5.491   0.056  0.00  0.00    +0.173 C 
BRANCH  24  26
ATOM     25  N   UNL     1     -11.879   7.037   0.086  0.00  0.00    -0.285 N 
ATOM     26  C   UNL     1     -11.430   5.767   0.075  0.00  0.00    +0.227 C 
ATOM     27  O   UNL     1     -12.218   4.845   0.080  0.00  0.00    -0.275 OA
ATOM     28  H   UNL     1     -11.167   7.871   0.174  0.00  0.00    +0.155 HD
BRANCH  25  35
ATOM     29  C   UNL     1     -12.867   9.476   1.167  0.00  0.00    +0.046 C 
ATOM     30  C   UNL     1     -13.776   8.474   0.502  0.00  0.00    -0.026 A 
ATOM     31  C   UNL     1     -15.130   8.730   0.400  0.00  0.00    +0.050 A 
ATOM     32  C   UNL     1     -15.967   7.806  -0.207  0.00  0.00    +0.120 A 
ATOM     33  C   UNL     1     -15.445   6.626  -0.717  0.00  0.00    +0.047 A 
ATOM     34  C   UNL     1     -14.091   6.371  -0.620  0.00  0.00    +0.027 A 
ATOM     35  C   UNL     1     -13.253   7.296  -0.013  0.00  0.00    +0.037 A 
BRANCH  32  36
ATOM     36  O   UNL     1     -17.300   8.057  -0.302  0.00  0.00    -0.495 OA
ATOM     37  C   UNL     1     -18.103   7.061  -0.939  0.00  0.00    +0.277 C 
ENDBRANCH  32  36
ENDBRANCH  25  35
ENDBRANCH  24  26
ENDBRANCH  23  24
ENDBRANCH   1  23
TORSDOF 8
