REMARK  Name = ZINC56906155
REMARK  9 active torsions:
REMARK  status: ('A' for Active; 'I' for Inactive)
REMARK    1  A    between atoms: C_1  and  C_2
REMARK    2  A    between atoms: C_10  and  C_11
REMARK    3  A    between atoms: C_11  and  C_13
REMARK    4  A    between atoms: C_11  and  N_14
REMARK    5  A    between atoms: N_17  and  N_18
REMARK    6  A    between atoms: C_19  and  C_21
REMARK    7  A    between atoms: C_21  and  O_22
REMARK    8  A    between atoms: O_22  and  C_23
REMARK    9  A    between atoms: C_26  and  C_29
REMARK                            x       y       z     vdW  Elec       q    Type
REMARK                         _______ _______ _______ _____ _____    ______ ____
ROOT
ATOM      1  N   UNL     1      -0.928  -1.145   3.277  0.00  0.00    -0.289 N 
ATOM      2  C   UNL     1      -1.473  -0.636   4.399  0.00  0.00    +0.316 C 
ATOM      3  O   UNL     1      -1.169   0.481   4.770  0.00  0.00    -0.251 OA
ATOM      4  N   UNL     1      -2.355  -1.366   5.111  0.00  0.00    -0.218 N 
ATOM      5  H   UNL     1      -1.171  -2.037   2.981  0.00  0.00    +0.151 HD
ATOM      6  H   UNL     1      -2.748  -1.000   5.919  0.00  0.00    +0.174 HD
ENDROOT
BRANCH   4   7
ATOM      7  N   UNL     1      -2.705  -2.653   4.684  0.00  0.00    -0.230 N 
ATOM      8  C   UNL     1      -3.587  -3.383   5.395  0.00  0.00    +0.267 C 
ATOM      9  O   UNL     1      -4.078  -2.925   6.405  0.00  0.00    -0.271 OA
ATOM     10  H   UNL     1      -2.313  -3.020   3.876  0.00  0.00    +0.173 HD
BRANCH   8  11
ATOM     11  C   UNL     1      -3.964  -4.768   4.936  0.00  0.00    +0.326 C 
BRANCH  11  12
ATOM     12  O   UNL     1      -4.907  -5.333   5.849  0.00  0.00    -0.483 OA
BRANCH  12  13
ATOM     13  C   UNL     1      -5.352  -6.587   5.578  0.00  0.00    +0.121 A 
ATOM     14  C   UNL     1      -4.884  -7.261   4.457  0.00  0.00    +0.047 A 
ATOM     15  C   UNL     1      -5.333  -8.533   4.179  0.00  0.00    +0.022 A 
ATOM     16  C   UNL     1      -6.260  -9.146   5.026  0.00  0.00    +0.052 A 
ATOM     17  C   UNL     1      -6.727  -8.464   6.153  0.00  0.00    +0.022 A 
ATOM     18  C   UNL     1      -6.269  -7.194   6.427  0.00  0.00    +0.047 A 
BRANCH  16  19
ATOM     19  C   UNL     1      -6.729 -10.468   4.741  0.00  0.00    +0.099 C 
ATOM     20  N   UNL     1      -7.101 -11.517   4.514  0.00  0.00    -0.191 NA
ENDBRANCH  16  19
ENDBRANCH  12  13
ENDBRANCH  11  12
ENDBRANCH   8  11
ENDBRANCH   4   7
BRANCH   1  21
ATOM     21  C   UNL     1       0.030  -0.352   2.503  0.00  0.00    +0.138 C 
ATOM     22  C   UNL     1       1.432  -0.532   3.090  0.00  0.00    +0.036 C 
BRANCH  21  32
ATOM     23  C   UNL     1      -0.018   1.503   0.010  0.00  0.00    +0.048 C 
ATOM     24  C   UNL     1       0.002  -0.004   0.002  0.00  0.00    +0.000 A 
ATOM     25  C   UNL     1       0.009  -0.879  -1.177  0.00  0.00    +0.023 A 
ATOM     26  C   UNL     1       0.000  -0.660  -2.553  0.00  0.00    +0.012 A 
ATOM     27  C   UNL     1       0.011  -1.726  -3.409  0.00  0.00    +0.001 A 
ATOM     28  C   UNL     1       0.031  -3.023  -2.916  0.00  0.00    +0.004 A 
ATOM     29  C   UNL     1       0.040  -3.259  -1.558  0.00  0.00    +0.047 A 
ATOM     30  C   UNL     1       0.029  -2.190  -0.671  0.00  0.00    +0.136 A 
ATOM     31  O   UNL     1       0.033  -2.100   0.674  0.00  0.00    -0.458 OA
ATOM     32  C   UNL     1       0.023  -0.814   1.069  0.00  0.00    +0.129 A 
ENDBRANCH  21  32
ENDBRANCH   1  21
TORSDOF 7
