REMARK  Name = ZINC15733228
REMARK  3 active torsions:
REMARK  status: ('A' for Active; 'I' for Inactive)
REMARK    1  A    between atoms: C_1  and  C_2
REMARK    2  A    between atoms: C_5  and  N_9
REMARK    3  A    between atoms: C_10  and  C_12
REMARK                            x       y       z     vdW  Elec       q    Type
REMARK                         _______ _______ _______ _____ _____    ______ ____
ROOT
ATOM      1  N   UNL     1       2.402   1.107  -0.014  0.00  0.00    -0.279 N 
ATOM      2  C   UNL     1       2.426  -0.238   0.081  0.00  0.00    +0.270 C 
ATOM      3  O   UNL     1       1.385  -0.865   0.088  0.00  0.00    -0.268 OA
ATOM      4  H   UNL     1       3.233   1.603  -0.085  0.00  0.00    +0.155 HD
ENDROOT
BRANCH   2   5
ATOM      5  C   UNL     1       3.723  -0.951   0.178  0.00  0.00    +0.172 A 
ATOM      6  C   UNL     1       3.917  -2.337   0.282  0.00  0.00    +0.032 A 
ATOM      7  C   UNL     1       5.287  -2.472   0.317  0.00  0.00    +0.172 A 
ATOM      8  O   UNL     1       5.801  -1.255   0.269  0.00  0.00    -0.354 OA
ATOM      9  N   UNL     1       4.926  -0.412   0.177  0.00  0.00    -0.073 NA
ATOM     10  C   UNL     1       5.879  -3.833   0.361  0.00  0.00    +0.030 A 
ATOM     11  C   UNL     1       7.206  -4.177   0.623  0.00  0.00    +0.019 A 
ATOM     12  C   UNL     1       7.538  -5.487   0.642  0.00  0.00    +0.046 A 
ATOM     13  S   UNL     1       5.981  -6.283   0.281  0.00  0.00    -0.101 S 
ATOM     14  C   UNL     1       5.004  -4.879   0.121  0.00  0.00    +0.001 A 
ATOM     15  C   UNL     1       3.557  -4.752  -0.224  0.00  0.00    +0.048 C 
ATOM     16  C   UNL     1       2.951  -3.477   0.376  0.00  0.00    +0.046 C 
ENDBRANCH   2   5
BRANCH   1  21
ATOM     17  C   UNL     1      -2.557   3.863   0.000  0.00  0.00    +0.044 C 
ATOM     18  C   UNL     1      -1.239   3.131  -0.003  0.00  0.00    -0.049 A 
ATOM     19  C   UNL     1      -1.141   1.891  -0.607  0.00  0.00    +0.005 A 
ATOM     20  C   UNL     1       0.064   1.215  -0.608  0.00  0.00    +0.025 A 
ATOM     21  C   UNL     1       1.180   1.786  -0.010  0.00  0.00    +0.052 A 
ATOM     22  C   UNL     1       1.079   3.035   0.592  0.00  0.00    +0.062 A 
ATOM     23  C   UNL     1      -0.131   3.703   0.594  0.00  0.00    +0.025 A 
ATOM     24 CL   UNL     1       2.470   3.753   1.341  0.00  0.00    -0.082 Cl
ENDBRANCH   1  21
TORSDOF 2
