REMARK  Name = ZINC09472364
REMARK  11 active torsions:
REMARK  status: ('A' for Active; 'I' for Inactive)
REMARK    1  A    between atoms: C_1  and  C_2
REMARK    2  A    between atoms: C_2  and  C_3
REMARK    3  A    between atoms: C_3  and  O_4
REMARK    4  A    between atoms: O_4  and  C_5
REMARK    5  A    between atoms: C_8  and  C_11
REMARK    6  A    between atoms: C_13  and  C_25
REMARK    7  A    between atoms: C_14  and  O_24
REMARK    8  A    between atoms: N_17  and  C_18
REMARK    9  A    between atoms: C_18  and  C_19
REMARK   10  A    between atoms: C_25  and  C_27
REMARK   11  A    between atoms: C_30  and  C_34
REMARK                            x       y       z     vdW  Elec       q    Type
REMARK                         _______ _______ _______ _____ _____    ______ ____
ROOT
ATOM      1  C   UNL     1      -3.797   1.534   0.007  0.00  0.00    +0.145 C 
ATOM      2  C   UNL     1      -3.725   3.043   0.000  0.00  0.00    +0.071 C 
ATOM      3  C   UNL     1      -5.000   3.494  -0.063  0.00  0.00    +0.188 C 
ATOM      4  C   UNL     1      -5.922   2.339  -0.108  0.00  0.00    +0.283 C 
ATOM      5  O   UNL     1      -7.133   2.416  -0.171  0.00  0.00    -0.267 OA
ATOM      6  N   UNL     1      -5.222   1.191  -0.064  0.00  0.00    -0.276 N 
ENDROOT
BRANCH   1  10
ATOM      7  C   UNL     1      -1.734  -0.050  -3.384  0.00  0.00    +0.121 A 
ATOM      8  C   UNL     1      -1.169  -0.143  -2.121  0.00  0.00    +0.046 A 
ATOM      9  C   UNL     1      -1.837   0.369  -1.026  0.00  0.00    +0.009 A 
ATOM     10  C   UNL     1      -3.069   0.975  -1.189  0.00  0.00    -0.022 A 
ATOM     11  C   UNL     1      -3.638   1.064  -2.446  0.00  0.00    +0.009 A 
ATOM     12  C   UNL     1      -2.971   0.558  -3.545  0.00  0.00    +0.046 A 
BRANCH   7  13
ATOM     13  O   UNL     1      -1.078  -0.554  -4.462  0.00  0.00    -0.492 OA
BRANCH  13  14
ATOM     14  C   UNL     1      -1.721  -0.422  -5.732  0.00  0.00    +0.229 C 
BRANCH  14  16
ATOM     15  C   UNL     1      -1.526  -0.902  -8.176  0.00  0.00    +0.007 C 
ATOM     16  C   UNL     1      -0.838  -1.042  -6.817  0.00  0.00    +0.038 C 
ENDBRANCH  14  16
ENDBRANCH  13  14
ENDBRANCH   7  13
ENDBRANCH   1  10
BRANCH   3  17
ATOM     17  O   UNL     1      -5.371   4.795  -0.083  0.00  0.00    -0.502 OA
ATOM     18  H   UNL     1      -6.368   4.856  -0.132  0.00  0.00    +0.292 HD
ENDBRANCH   3  17
BRANCH   2  19
ATOM     19  C   UNL     1      -2.510   3.861   0.057  0.00  0.00    +0.195 C 
ATOM     20  O   UNL     1      -2.199   4.554  -0.893  0.00  0.00    -0.287 OA
BRANCH  19  21
ATOM     21  C   UNL     1      -1.663   3.843   1.269  0.00  0.00    +0.025 A 
ATOM     22  C   UNL     1      -2.054   3.103   2.387  0.00  0.00    +0.012 A 
ATOM     23  C   UNL     1      -1.262   3.094   3.516  0.00  0.00    +0.007 A 
ATOM     24  C   UNL     1      -0.077   3.808   3.541  0.00  0.00    -0.015 A 
ATOM     25  C   UNL     1       0.320   4.541   2.434  0.00  0.00    +0.127 A 
ATOM     26  C   UNL     1      -0.466   4.562   1.298  0.00  0.00    +0.050 A 
ATOM     27  F   UNL     1       1.479   5.235   2.465  0.00  0.00    -0.205 F 
ATOM     28  C   UNL     1       0.785   3.788   4.777  0.00  0.00    +0.047 C 
ENDBRANCH  19  21
ENDBRANCH   2  19
BRANCH   6  29
ATOM     29  C   UNL     1      -5.783  -0.162  -0.084  0.00  0.00    +0.183 C 
BRANCH  29  30
ATOM     30  C   UNL     1      -6.049  -0.617   1.328  0.00  0.00    +0.122 A 
ATOM     31  C   UNL     1      -7.192  -0.431   2.013  0.00  0.00    +0.046 A 
ATOM     32  C   UNL     1      -7.005  -1.015   3.287  0.00  0.00    +0.041 A 
ATOM     33  C   UNL     1      -5.757  -1.515   3.307  0.00  0.00    +0.195 A 
ATOM     34  O   UNL     1      -5.182  -1.271   2.118  0.00  0.00    -0.466 OA
ENDBRANCH  29  30
ENDBRANCH   6  29
TORSDOF 9
