REMARK  Name = ZINC36016873
REMARK  14 active torsions:
REMARK  status: ('A' for Active; 'I' for Inactive)
REMARK    1  A    between atoms: C_1  and  C_2
REMARK    2  A    between atoms: C_2  and  N_3
REMARK    3  A    between atoms: C_4  and  C_21
REMARK    4  A    between atoms: C_5  and  C_16
REMARK    5  A    between atoms: C_6  and  C_11
REMARK    6  A    between atoms: C_16  and  O_18
REMARK    7  A    between atoms: O_18  and  C_19
REMARK    8  A    between atoms: C_19  and  C_20
REMARK    9  A    between atoms: C_21  and  N_22
REMARK   10  A    between atoms: C_26  and  C_29
REMARK   11  A    between atoms: N_32  and  C_33
REMARK   12  A    between atoms: C_33  and  C_34
REMARK   13  A    between atoms: C_33  and  C_35
REMARK   14  A    between atoms: C_33  and  C_36
REMARK                            x       y       z     vdW  Elec       q    Type
REMARK                         _______ _______ _______ _____ _____    ______ ____
ROOT
ATOM      1  N   UNL     1       0.773  -0.523  -0.984  0.00  0.00    -0.258 N 
ATOM      2  C   UNL     1       0.318  -0.507  -2.272  0.00  0.00    +0.041 C 
ATOM      3  C   UNL     1       1.126  -0.842  -3.301  0.00  0.00    +0.080 C 
ATOM      4  C   UNL     1       2.554  -1.234  -2.977  0.00  0.00    +0.144 C 
ATOM      5  N   UNL     1       2.945  -1.218  -1.558  0.00  0.00    -0.288 N 
ATOM      6  C   UNL     1       2.024  -0.856  -0.643  0.00  0.00    +0.307 C 
ATOM      7  O   UNL     1       2.338  -0.836   0.531  0.00  0.00    -0.252 OA
ATOM      8  H   UNL     1       3.845  -1.459  -1.288  0.00  0.00    +0.151 HD
ENDROOT
BRANCH   4   9
ATOM      9  C   UNL     1       2.784  -2.626  -3.506  0.00  0.00    -0.015 A 
ATOM     10  C   UNL     1       3.446  -2.821  -4.704  0.00  0.00    +0.013 A 
ATOM     11  C   UNL     1       3.636  -4.086  -5.152  0.00  0.00    +0.045 A 
ATOM     12  S   UNL     1       2.869  -5.054  -3.862  0.00  0.00    -0.105 S 
ATOM     13  C   UNL     1       2.351  -3.707  -2.811  0.00  0.00    +0.051 A 
ENDBRANCH   4   9
BRANCH   1  15
ATOM     14  C   UNL     1      -0.080   1.361   0.322  0.00  0.00    +0.025 C 
ATOM     15  C   UNL     1      -0.159  -0.148   0.083  0.00  0.00    +0.111 C 
ENDBRANCH   1  15
BRANCH   3  16
ATOM     16  C   UNL     1       0.656  -0.827  -4.635  0.00  0.00    +0.339 C 
ATOM     17  O   UNL     1       0.286  -1.860  -5.161  0.00  0.00    -0.245 OA
BRANCH  16  18
ATOM     18  O   UNL     1       0.618   0.333  -5.324  0.00  0.00    -0.462 OA
BRANCH  18  19
ATOM     19  C   UNL     1       0.132   0.274  -6.666  0.00  0.00    +0.229 C 
ATOM     20  C   UNL     1       0.163   1.674  -7.282  0.00  0.00    +0.048 C 
ENDBRANCH  18  19
ENDBRANCH  16  18
ENDBRANCH   3  16
BRANCH   2  21
ATOM     21  C   UNL     1      -1.109  -0.111  -2.549  0.00  0.00    +0.136 C 
BRANCH  21  22
ATOM     22  N   UNL     1      -2.016  -1.125  -1.994  0.00  0.00    -0.294 NA
ATOM     23  C   UNL     1      -1.861  -2.408  -2.691  0.00  0.00    +0.104 C 
ATOM     24  C   UNL     1      -2.685  -3.480  -1.969  0.00  0.00    +0.125 C 
ATOM     25  N   UNL     1      -4.070  -3.002  -1.849  0.00  0.00    -0.280 N 
ATOM     26  C   UNL     1      -4.297  -1.663  -1.284  0.00  0.00    +0.088 C 
ATOM     27  C   UNL     1      -3.410  -0.662  -2.033  0.00  0.00    +0.107 C 
ATOM     28  C   UNL     1      -5.768  -1.277  -1.452  0.00  0.00    +0.029 C 
ATOM     29  C   UNL     1      -5.104  -3.770  -2.244  0.00  0.00    +0.303 C 
ATOM     30  O   UNL     1      -6.236  -3.326  -2.219  0.00  0.00    -0.253 OA
ATOM     31  N   UNL     1      -4.884  -5.031  -2.668  0.00  0.00    -0.294 N 
ATOM     32  H   UNL     1      -3.992  -5.408  -2.623  0.00  0.00    +0.151 HD
BRANCH  31  33
ATOM     33  C   UNL     1      -5.992  -5.830  -3.196  0.00  0.00    +0.028 C 
ATOM     34  C   UNL     1      -6.590  -5.129  -4.417  0.00  0.00    +0.031 C 
ATOM     35  C   UNL     1      -5.476  -7.212  -3.603  0.00  0.00    +0.031 C 
ATOM     36  C   UNL     1      -7.068  -5.985  -2.119  0.00  0.00    +0.031 C 
ENDBRANCH  31  33
ENDBRANCH  21  22
ENDBRANCH   2  21
TORSDOF 8
