REMARK  Name = ZINC45626562
REMARK  4 active torsions:
REMARK  status: ('A' for Active; 'I' for Inactive)
REMARK    1  A    between atoms: C_1  and  C_2
REMARK    2  A    between atoms: C_2  and  N_7
REMARK    3  A    between atoms: C_8  and  C_10
REMARK    4  A    between atoms: C_12  and  N_17
REMARK                            x       y       z     vdW  Elec       q    Type
REMARK                         _______ _______ _______ _____ _____    ______ ____
ROOT
ATOM      1  N   UNL     1      -1.367  -0.524  -0.021  0.00  0.00    -0.306 N 
ATOM      2  C   UNL     1      -2.194  -0.200  -1.035  0.00  0.00    +0.246 C 
ATOM      3  O   UNL     1      -1.803   0.523  -1.931  0.00  0.00    -0.270 OA
ATOM      4  H   UNL     1      -1.679  -1.101   0.693  0.00  0.00    +0.150 HD
ENDROOT
BRANCH   2   5
ATOM      5  C   UNL     1      -3.575  -0.725  -1.058  0.00  0.00    +0.053 A 
ATOM      6  C   UNL     1      -4.029  -1.551  -0.029  0.00  0.00    +0.047 A 
ATOM      7  C   UNL     1      -5.320  -2.037  -0.056  0.00  0.00    +0.127 A 
ATOM      8  C   UNL     1      -6.165  -1.707  -1.102  0.00  0.00    +0.034 A 
ATOM      9  C   UNL     1      -5.723  -0.890  -2.126  0.00  0.00    +0.018 A 
ATOM     10  C   UNL     1      -4.435  -0.392  -2.108  0.00  0.00    +0.030 A 
ATOM     11 BR   UNL     1      -3.834   0.733  -3.505  0.00  0.00    -0.050 Br
BRANCH   7  12
ATOM     12  N   UNL     1      -5.802  -2.914   1.035  0.00  0.00    +0.056 N 
ATOM     13  O   UNL     1      -5.065  -3.203   1.948  0.00  0.00    -0.126 OA
ATOM     14  O   UNL     1      -6.933  -3.340   1.012  0.00  0.00    -0.126 OA
ENDBRANCH   7  12
ENDBRANCH   2   5
BRANCH   1  16
ATOM     15  C   UNL     1      -0.019   1.526   0.010  0.00  0.00    +0.031 C 
ATOM     16  C   UNL     1       0.002  -0.004   0.002  0.00  0.00    +0.032 C 
ATOM     17  C   UNL     1       0.781  -0.514  -1.223  0.00  0.00    +0.025 C 
ATOM     18  C   UNL     1       1.971  -1.331  -0.679  0.00  0.00    +0.002 C 
ATOM     19  C   UNL     1       1.516  -1.771   0.734  0.00  0.00    +0.002 C 
ATOM     20  C   UNL     1       0.746  -0.529   1.247  0.00  0.00    +0.025 C 
ENDBRANCH   1  16
TORSDOF 3
