REMARK  Name = ZINC41147673
REMARK  7 active torsions:
REMARK  status: ('A' for Active; 'I' for Inactive)
REMARK    1  A    between atoms: C_1  and  C_2
REMARK    2  A    between atoms: C_5  and  C_25
REMARK    3  A    between atoms: N_8  and  C_10
REMARK    4  A    between atoms: C_10  and  C_11
REMARK    5  A    between atoms: C_11  and  C_12
REMARK    6  A    between atoms: C_12  and  C_14
REMARK    7  A    between atoms: C_12  and  O_24
REMARK                            x       y       z     vdW  Elec       q    Type
REMARK                         _______ _______ _______ _____ _____    ______ ____
ROOT
ATOM      1  C   UNL     1       2.850  -0.222   4.947  0.00  0.00    +0.143 C 
ENDROOT
BRANCH   1   2
ATOM      2  C   UNL     1       2.268   0.513   6.127  0.00  0.00    -0.019 A 
ATOM      3  C   UNL     1       1.136   0.026   6.754  0.00  0.00    +0.008 A 
ATOM      4  C   UNL     1       0.603   0.700   7.834  0.00  0.00    +0.023 A 
ATOM      5  C   UNL     1       1.205   1.868   8.292  0.00  0.00    +0.030 A 
ATOM      6  C   UNL     1       2.341   2.354   7.665  0.00  0.00    -0.026 A 
ATOM      7  C   UNL     1       2.871   1.669   6.584  0.00  0.00    +0.011 A 
ATOM      8  C   UNL     1       3.026   3.608   8.139  0.00  0.00    +0.038 C 
ATOM      9  C   UNL     1       2.065   4.463   8.965  0.00  0.00    +0.023 C 
ATOM     10  C   UNL     1       1.431   3.585  10.053  0.00  0.00    +0.102 C 
ATOM     11  N   UNL     1       0.646   2.539   9.385  0.00  0.00    -0.344 N 
ATOM     12  H   UNL     1      -0.246   2.317   9.696  0.00  0.00    +0.146 HD
ENDBRANCH   1   2
BRANCH   1  13
ATOM     13  O   UNL     1       2.673  -1.629   5.128  0.00  0.00    -0.387 OA
ATOM     14  H   UNL     1       1.749  -1.902   5.208  0.00  0.00    +0.210 HD
ENDBRANCH   1  13
BRANCH   1  15
ATOM     15  C   UNL     1       2.136   0.221   3.668  0.00  0.00    +0.017 C 
BRANCH  15  16
ATOM     16  C   UNL     1       2.808  -0.431   2.458  0.00  0.00    -0.076 C 
BRANCH  16  22
ATOM     17  C   UNL     1      -0.019   1.526   0.010  0.00  0.00    +0.005 C 
ATOM     18  C   UNL     1       0.002  -0.004   0.002  0.00  0.00    -0.031 C 
ATOM     19  C   UNL     1       0.721  -0.499  -1.257  0.00  0.00    +0.003 C 
ATOM     20  C   UNL     1       2.177  -0.027  -1.220  0.00  0.00    -0.031 C 
ATOM     21  C   UNL     1       2.839  -0.534   0.063  0.00  0.00    -0.076 C 
ATOM     22  N   UNL     1       2.123  -0.005   1.230  0.00  0.00    +0.380 N 
ATOM     23  C   UNL     1       0.744  -0.512   1.240  0.00  0.00    -0.076 C 
ATOM     24  C   UNL     1       2.924  -0.581  -2.434  0.00  0.00    +0.005 C 
ATOM     25  H   UNL     1       2.109   1.003   1.187  0.00  0.00    -0.082 HD
ENDBRANCH  16  22
ENDBRANCH  15  16
ENDBRANCH   1  15
TORSDOF 5
