REMARK  Name = ZINC33040432
REMARK  1 active torsions:
REMARK  status: ('A' for Active; 'I' for Inactive)
REMARK    1  A    between atoms: N_10  and  N_11
REMARK                            x       y       z     vdW  Elec       q    Type
REMARK                         _______ _______ _______ _____ _____    ______ ____
ROOT
ATOM      1  N   UNL     1      -0.827  -2.265  -0.003  0.00  0.00    -0.151 NA
ATOM      2  C   UNL     1      -1.853  -3.055   0.089  0.00  0.00    +0.074 C 
ATOM      3  C   UNL     1      -1.628  -4.540   0.179  0.00  0.00    +0.081 C 
ATOM      4  C   UNL     1      -2.473  -5.234  -0.892  0.00  0.00    +0.178 C 
ATOM      5  S   UNL     1      -4.224  -4.965  -0.493  0.00  0.00    -0.002 S 
ATOM      6  O   UNL     1      -4.549  -5.593   0.739  0.00  0.00    -0.169 OA
ATOM      7  O   UNL     1      -5.029  -5.171  -1.646  0.00  0.00    -0.169 OA
ATOM      8  C   UNL     1      -4.343  -3.236  -0.163  0.00  0.00    +0.097 A 
ATOM      9  C   UNL     1      -3.205  -2.474   0.094  0.00  0.00    +0.026 A 
ATOM     10  C   UNL     1      -3.343  -1.106   0.367  0.00  0.00    +0.050 A 
ATOM     11  C   UNL     1      -4.594  -0.523   0.374  0.00  0.00    +0.124 A 
ATOM     12  C   UNL     1      -5.718  -1.289   0.112  0.00  0.00    +0.040 A 
ATOM     13  C   UNL     1      -5.589  -2.639  -0.156  0.00  0.00    +0.030 A 
ATOM     14  F   UNL     1      -4.722   0.795   0.638  0.00  0.00    -0.205 F 
ENDROOT
BRANCH   1  24
ATOM     15  C   UNL     1       4.423   1.690   0.238  0.00  0.00    +0.002 A 
ATOM     16  C   UNL     1       3.991   2.885  -0.319  0.00  0.00    +0.001 A 
ATOM     17  C   UNL     1       2.686   2.992  -0.764  0.00  0.00    +0.017 A 
ATOM     18  C   UNL     1       1.840   1.918  -0.647  0.00  0.00    +0.039 A 
ATOM     19  C   UNL     1       2.245   0.685  -0.086  0.00  0.00    +0.055 A 
ATOM     20  C   UNL     1       3.586   0.612   0.358  0.00  0.00    +0.027 A 
ATOM     21  N   UNL     1       1.299  -0.277  -0.041  0.00  0.00    -0.332 N 
ATOM     22  C   UNL     1       0.078  -0.087  -0.489  0.00  0.00    +0.193 A 
ATOM     23  S   UNL     1       0.142   1.603  -1.066  0.00  0.00    -0.048 S 
ATOM     24  N   UNL     1      -0.983  -0.969  -0.509  0.00  0.00    -0.124 NA
ATOM     25  H   UNL     1       1.537  -1.264   0.382  0.00  0.00    +0.168 HD
ENDBRANCH   1  24
TORSDOF 1
