REMARK  Name = ZINC09408671
REMARK  12 active torsions:
REMARK  status: ('A' for Active; 'I' for Inactive)
REMARK    1  A    between atoms: C_1  and  C_2
REMARK    2  A    between atoms: C_5  and  N_8
REMARK    3  A    between atoms: C_9  and  C_37
REMARK    4  A    between atoms: C_10  and  C_34
REMARK    5  A    between atoms: C_15  and  O_17
REMARK    6  A    between atoms: O_17  and  C_18
REMARK    7  A    between atoms: C_18  and  C_19
REMARK    8  A    between atoms: C_19  and  C_21
REMARK    9  A    between atoms: C_19  and  O_33
REMARK   10  A    between atoms: C_21  and  N_71
REMARK   11  A    between atoms: C_24  and  C_27
REMARK   12  A    between atoms: C_34  and  C_36
REMARK                            x       y       z     vdW  Elec       q    Type
REMARK                         _______ _______ _______ _____ _____    ______ ____
ROOT
ATOM      1  N   UNL     1       1.961   1.137   6.061  0.00  0.00    -0.313 N 
ATOM      2  C   UNL     1       1.223   1.962   6.840  0.00  0.00    +0.032 A 
ATOM      3  C   UNL     1       0.226   2.541   6.083  0.00  0.00    +0.046 A 
ATOM      4  C   UNL     1       0.383   2.010   4.714  0.00  0.00    +0.014 A 
ATOM      5  C   UNL     1       1.482   1.138   4.762  0.00  0.00    +0.055 A 
ATOM      6  C   UNL     1       1.881   0.476   3.605  0.00  0.00    +0.030 A 
ATOM      7  C   UNL     1       1.194   0.673   2.427  0.00  0.00    +0.048 A 
ATOM      8  C   UNL     1       0.107   1.541   2.378  0.00  0.00    +0.121 A 
ATOM      9  C   UNL     1      -0.301   2.208   3.519  0.00  0.00    +0.056 A 
ATOM     10  C   UNL     1       1.454   2.209   8.308  0.00  0.00    +0.064 C 
ENDROOT
BRANCH   1  15
ATOM     11  C   UNL     1       6.398  -1.904   7.867  0.00  0.00    +0.044 C 
ATOM     12  C   UNL     1       5.220  -1.096   7.388  0.00  0.00    -0.050 A 
ATOM     13  C   UNL     1       3.954  -1.364   7.878  0.00  0.00    +0.005 A 
ATOM     14  C   UNL     1       2.872  -0.625   7.440  0.00  0.00    +0.026 A 
ATOM     15  C   UNL     1       3.056   0.386   6.506  0.00  0.00    +0.047 A 
ATOM     16  C   UNL     1       4.327   0.648   6.012  0.00  0.00    +0.026 A 
ATOM     17  C   UNL     1       5.405  -0.090   6.458  0.00  0.00    +0.005 A 
ENDBRANCH   1  15
BRANCH   3  18
ATOM     18  C   UNL     1      -0.753   3.462   6.529  0.00  0.00    +0.162 C 
ATOM     19  O   UNL     1      -0.531   4.655   6.481  0.00  0.00    -0.292 OA
ATOM     20  C   UNL     1      -2.070   2.962   7.064  0.00  0.00    +0.091 C 
ENDBRANCH   3  18
BRANCH   8  21
ATOM     21  O   UNL     1      -0.557   1.730   1.207  0.00  0.00    -0.489 OA
BRANCH  21  22
ATOM     22  C   UNL     1      -0.082   1.010   0.068  0.00  0.00    +0.258 C 
BRANCH  22  23
ATOM     23  C   UNL     1      -0.948   1.349  -1.147  0.00  0.00    +0.135 C 
BRANCH  23  24
ATOM     24  O   UNL     1      -0.786   2.730  -1.478  0.00  0.00    -0.390 OA
ATOM     25  H   UNL     1       0.123   2.978  -1.697  0.00  0.00    +0.210 HD
ENDBRANCH  23  24
BRANCH  23  26
ATOM     26  C   UNL     1      -0.519   0.486  -2.336  0.00  0.00    -0.043 C 
BRANCH  26  32
ATOM     27  C   UNL     1      -2.724   0.227  -3.308  0.00  0.00    -0.074 C 
ATOM     28  C   UNL     1      -3.648   0.830  -4.370  0.00  0.00    +0.017 C 
ATOM     29  C   UNL     1      -3.005   0.719  -5.724  0.00  0.00    -0.048 C 
ATOM     30  C   UNL     1      -1.723   0.474  -5.883  0.00  0.00    -0.041 C 
ATOM     31  C   UNL     1      -0.778   0.277  -4.733  0.00  0.00    -0.051 C 
ATOM     32  N   UNL     1      -1.379   0.809  -3.497  0.00  0.00    +0.384 N 
ATOM     33  H   UNL     1      -1.464   1.829  -3.577  0.00  0.00    -0.081 HD
BRANCH  29  34
ATOM     34  C   UNL     1      -3.849   0.890  -6.926  0.00  0.00    -0.022 A 
ATOM     35  C   UNL     1      -4.455   2.119  -7.186  0.00  0.00    +0.008 A 
ATOM     36  C   UNL     1      -5.236   2.275  -8.313  0.00  0.00    +0.001 A 
ATOM     37  C   UNL     1      -5.429   1.211  -9.177  0.00  0.00    +0.000 A 
ATOM     38  C   UNL     1      -4.835  -0.012  -8.921  0.00  0.00    +0.001 A 
ATOM     39  C   UNL     1      -4.046  -0.178  -7.801  0.00  0.00    +0.008 A 
ENDBRANCH  29  34
ENDBRANCH  26  32
ENDBRANCH  23  26
ENDBRANCH  22  23
ENDBRANCH  21  22
ENDBRANCH   8  21
TORSDOF 9
