REMARK  Name = ZINC63613218
REMARK  8 active torsions:
REMARK  status: ('A' for Active; 'I' for Inactive)
REMARK    1  A    between atoms: C_1  and  C_2
REMARK    2  A    between atoms: C_8  and  C_11
REMARK    3  A    between atoms: C_11  and  C_12
REMARK    4  A    between atoms: C_12  and  N_13
REMARK    5  A    between atoms: C_14  and  C_16
REMARK    6  A    between atoms: C_26  and  C_27
REMARK    7  A    between atoms: C_32  and  O_33
REMARK    8  A    between atoms: O_33  and  C_34
REMARK                            x       y       z     vdW  Elec       q    Type
REMARK                         _______ _______ _______ _____ _____    ______ ____
ROOT
ATOM      1  C   UNL     1      -2.557  -2.982   8.043  0.00  0.00    +0.039 A 
ATOM      2  C   UNL     1      -1.352  -2.696   8.688  0.00  0.00    +0.017 A 
ATOM      3  C   UNL     1      -1.352  -2.308  10.011  0.00  0.00    +0.049 A 
ATOM      4  C   UNL     1      -2.549  -2.200  10.704  0.00  0.00    +0.150 A 
ATOM      5  C   UNL     1      -3.759  -2.482  10.066  0.00  0.00    +0.077 A 
ATOM      6  C   UNL     1      -3.764  -2.868   8.738  0.00  0.00    +0.040 A 
ATOM      7  N   UNL     1      -4.968  -2.369  10.767  0.00  0.00    -0.276 N 
ATOM      8  C   UNL     1      -4.973  -1.731  11.962  0.00  0.00    +0.284 C 
ATOM      9  O   UNL     1      -5.999  -1.597  12.602  0.00  0.00    -0.266 OA
ATOM     10  C   UNL     1      -3.686  -1.205  12.459  0.00  0.00    +0.191 C 
ATOM     11  C   UNL     1      -3.634  -0.163  13.319  0.00  0.00    +0.063 C 
ATOM     12  O   UNL     1      -2.547  -1.818  12.011  0.00  0.00    -0.449 OA
ATOM     13  H   UNL     1      -5.787  -2.740  10.402  0.00  0.00    +0.155 HD
ENDROOT
BRANCH  11  14
ATOM     14  C   UNL     1      -2.351   0.236  13.914  0.00  0.00    +0.020 A 
ATOM     15  C   UNL     1      -1.265  -0.645  13.901  0.00  0.00    +0.011 A 
ATOM     16  C   UNL     1      -0.064  -0.264  14.461  0.00  0.00    +0.001 A 
ATOM     17  C   UNL     1       0.072   0.989  15.037  0.00  0.00    +0.004 A 
ATOM     18  C   UNL     1      -0.993   1.869  15.057  0.00  0.00    +0.046 A 
ATOM     19  C   UNL     1      -2.206   1.506  14.494  0.00  0.00    +0.127 A 
BRANCH  19  20
ATOM     20  O   UNL     1      -3.251   2.373  14.509  0.00  0.00    -0.495 OA
ATOM     21  C   UNL     1      -3.029   3.647  15.116  0.00  0.00    +0.277 C 
ENDBRANCH  19  20
ENDBRANCH  11  14
BRANCH   1  23
ATOM     22  N   UNL     1      -1.392  -3.508   5.957  0.00  0.00    -0.311 N 
ATOM     23  C   UNL     1      -2.557  -3.399   6.627  0.00  0.00    +0.244 C 
ATOM     24  O   UNL     1      -3.607  -3.643   6.064  0.00  0.00    -0.270 OA
ATOM     25  H   UNL     1      -0.555  -3.314   6.406  0.00  0.00    +0.149 HD
BRANCH  22  26
ATOM     26  C   UNL     1      -1.392  -3.922   4.552  0.00  0.00    +0.109 C 
BRANCH  26  27
ATOM     27  C   UNL     1       0.047  -3.966   4.034  0.00  0.00    +0.052 C 
BRANCH  27  35
ATOM     28  C   UNL     1       0.122  -0.097  -0.055  0.00  0.00    +0.044 C 
ATOM     29  C   UNL     1       0.100  -1.595   0.105  0.00  0.00    -0.050 A 
ATOM     30  C   UNL     1       0.092  -2.404  -1.039  0.00  0.00    +0.005 A 
ATOM     31  C   UNL     1       0.073  -3.753  -0.979  0.00  0.00    +0.026 A 
ATOM     32  C   UNL     1       0.058  -4.416   0.279  0.00  0.00    +0.043 A 
ATOM     33  N   UNL     1       0.037  -5.688   0.594  0.00  0.00    -0.380 N 
ATOM     34  C   UNL     1       0.029  -5.807   2.057  0.00  0.00    +0.144 C 
ATOM     35  C   UNL     1       0.048  -4.391   2.588  0.00  0.00    -0.040 C 
ATOM     36  C   UNL     1       0.065  -3.584   1.503  0.00  0.00    -0.001 A 
ATOM     37  C   UNL     1       0.093  -2.124   1.350  0.00  0.00    +0.013 A 
ATOM     38  H   UNL     1       0.028  -6.427  -0.034  0.00  0.00    +0.160 HD
ENDBRANCH  27  35
ENDBRANCH  26  27
ENDBRANCH  22  26
ENDBRANCH   1  23
TORSDOF 6
