REMARK  Name = ZINC13203811
REMARK  12 active torsions:
REMARK  status: ('A' for Active; 'I' for Inactive)
REMARK    1  A    between atoms: C_1  and  C_2
REMARK    2  A    between atoms: C_2  and  O_3
REMARK    3  A    between atoms: O_3  and  C_4
REMARK    4  A    between atoms: C_4  and  C_6
REMARK    5  A    between atoms: C_6  and  N_7
REMARK    6  A    between atoms: N_7  and  C_8
REMARK    7  A    between atoms: C_15  and  C_17
REMARK    8  A    between atoms: C_17  and  S_18
REMARK    9  A    between atoms: S_18  and  C_19
REMARK   10  A    between atoms: C_22  and  C_27
REMARK   11  A    between atoms: N_23  and  C_24
REMARK   12  A    between atoms: C_24  and  C_25
REMARK                            x       y       z     vdW  Elec       q    Type
REMARK                         _______ _______ _______ _____ _____    ______ ____
ROOT
ATOM      1  N   UNL     1       3.333  11.982  -0.076  0.00  0.00    -0.260 N 
ATOM      2  C   UNL     1       3.802  10.724   0.040  0.00  0.00    +0.231 C 
ATOM      3  O   UNL     1       4.969  10.487  -0.193  0.00  0.00    -0.274 OA
ENDROOT
BRANCH   1   4
ATOM      4  C   UNL     1       2.016  12.275   0.297  0.00  0.00    +0.037 A 
ATOM      5  C   UNL     1       0.955  11.757  -0.433  0.00  0.00    +0.026 A 
ATOM      6  C   UNL     1      -0.344  12.043  -0.060  0.00  0.00    +0.040 A 
ATOM      7  C   UNL     1      -0.588  12.856   1.034  0.00  0.00    +0.124 A 
ATOM      8  C   UNL     1       0.469  13.378   1.760  0.00  0.00    +0.040 A 
ATOM      9  C   UNL     1       1.769  13.090   1.394  0.00  0.00    +0.026 A 
ATOM     10  F   UNL     1      -1.859  13.139   1.394  0.00  0.00    -0.205 F 
ENDBRANCH   1   4
BRANCH   1  11
ATOM     11  C   UNL     1       4.202  13.043  -0.592  0.00  0.00    +0.234 C 
BRANCH  11  12
ATOM     12  C   UNL     1       4.063  13.121  -2.091  0.00  0.00    +0.325 C 
ATOM     13  O   UNL     1       3.314  12.369  -2.668  0.00  0.00    -0.249 OA
BRANCH  12  14
ATOM     14  O   UNL     1       4.770  14.027  -2.784  0.00  0.00    -0.464 OA
BRANCH  14  16
ATOM     15  C   UNL     1       5.467  15.136  -4.837  0.00  0.00    +0.048 C 
ATOM     16  C   UNL     1       4.585  14.046  -4.224  0.00  0.00    +0.229 C 
ENDBRANCH  14  16
ENDBRANCH  12  14
ENDBRANCH  11  12
ENDBRANCH   1  11
BRANCH   2  17
ATOM     17  C   UNL     1       2.877   9.610   0.459  0.00  0.00    +0.173 C 
BRANCH  17  18
ATOM     18  S   UNL     1       3.821   8.076   0.638  0.00  0.00    -0.077 S 
BRANCH  18  19
ATOM     19  C   UNL     1       2.530   6.978   1.119  0.00  0.00    +0.193 A 
ATOM     20  N   UNL     1       1.263   7.286   1.277  0.00  0.00    -0.122 NA
ATOM     21  N   UNL     1       0.596   6.247   1.633  0.00  0.00    -0.128 NA
ATOM     22  C   UNL     1       1.397   5.209   1.725  0.00  0.00    +0.172 A 
ATOM     23  N   UNL     1       2.662   5.647   1.404  0.00  0.00    -0.291 N 
BRANCH  22  24
ATOM     24  C   UNL     1       1.015   3.839   2.106  0.00  0.00    +0.056 A 
ATOM     25  C   UNL     1      -0.235   3.277   2.172  0.00  0.00    +0.019 A 
ATOM     26  C   UNL     1      -0.347   1.959   2.554  0.00  0.00    +0.008 A 
ATOM     27  C   UNL     1       0.776   1.261   2.862  0.00  0.00    +0.046 A 
ATOM     28  S   UNL     1       2.057   2.477   2.602  0.00  0.00    -0.094 S 
ENDBRANCH  22  24
BRANCH  23  29
ATOM     29  C   UNL     1       3.893   4.852   1.371  0.00  0.00    +0.250 C 
BRANCH  29  30
ATOM     30  C   UNL     1       4.076   4.266  -0.005  0.00  0.00    +0.375 C 
ATOM     31  O   UNL     1       3.263   4.490  -0.870  0.00  0.00    -0.244 OA
ATOM     32  O   UNL     1       5.143   3.497  -0.270  0.00  0.00    -0.244 OA
ENDBRANCH  29  30
ENDBRANCH  23  29
ENDBRANCH  18  19
ENDBRANCH  17  18
ENDBRANCH   2  17
TORSDOF 11
