REMARK  Name = ZINC08856092
REMARK  7 active torsions:
REMARK  status: ('A' for Active; 'I' for Inactive)
REMARK    1  A    between atoms: C_1  and  O_2
REMARK    2  A    between atoms: O_2  and  C_3
REMARK    3  A    between atoms: C_3  and  C_5
REMARK    4  A    between atoms: C_8  and  C_11
REMARK    5  A    between atoms: C_14  and  C_25
REMARK    6  A    between atoms: C_20  and  N_24
REMARK    7  A    between atoms: C_21  and  C_22
REMARK                            x       y       z     vdW  Elec       q    Type
REMARK                         _______ _______ _______ _____ _____    ______ ____
ROOT
ATOM      1  C   UNL     1       0.820  -6.471  -1.289  0.00  0.00    +0.101 C 
ATOM      2  C   UNL     1       0.036  -6.878  -2.510  0.00  0.00    +0.050 A 
ATOM      3  C   UNL     1      -1.336  -6.858  -2.721  0.00  0.00    +0.077 A 
ATOM      4  N   UNL     1      -1.568  -7.301  -3.934  0.00  0.00    -0.175 NA
ATOM      5  N   UNL     1      -0.339  -7.619  -4.532  0.00  0.00    -0.246 N 
ATOM      6  H   UNL     1      -0.214  -7.968  -5.429  0.00  0.00    +0.192 HD
ATOM      7  C   UNL     1       0.632  -7.354  -3.644  0.00  0.00    +0.222 A 
ATOM      8  O   UNL     1       1.976  -7.500  -3.760  0.00  0.00    -0.423 OA
ATOM      9  C   UNL     1       2.711  -7.424  -2.632  0.00  0.00    +0.200 C 
ATOM     10  C   UNL     1       2.237  -6.959  -1.454  0.00  0.00    +0.098 C 
ENDROOT
BRANCH   3  11
ATOM     11  C   UNL     1      -2.377  -6.405  -1.730  0.00  0.00    +0.016 C 
ATOM     12  C   UNL     1      -2.167  -7.134  -0.401  0.00  0.00    +0.016 C 
ATOM     13  C   UNL     1      -3.224  -6.674   0.605  0.00  0.00    -0.010 C 
ATOM     14  C   UNL     1      -3.097  -5.166   0.825  0.00  0.00    +0.007 C 
ATOM     15  C   UNL     1      -3.306  -4.436  -0.503  0.00  0.00    -0.010 C 
ATOM     16  C   UNL     1      -2.249  -4.896  -1.510  0.00  0.00    +0.016 C 
ATOM     17  C   UNL     1      -4.700  -4.756  -1.046  0.00  0.00    +0.007 C 
ATOM     18  C   UNL     1      -4.828  -6.265  -1.267  0.00  0.00    -0.010 C 
ATOM     19  C   UNL     1      -4.619  -6.994   0.062  0.00  0.00    +0.007 C 
ATOM     20  C   UNL     1      -3.771  -6.725  -2.273  0.00  0.00    +0.016 C 
ENDBRANCH   3  11
BRANCH   1  24
ATOM     21  C   UNL     1       0.796  -2.211  -0.916  0.00  0.00    +0.059 A 
ATOM     22  C   UNL     1       0.529  -3.013   0.195  0.00  0.00    +0.015 A 
ATOM     23  C   UNL     1       0.539  -4.387   0.068  0.00  0.00    +0.005 A 
ATOM     24  C   UNL     1       0.811  -4.969  -1.158  0.00  0.00    -0.035 A 
ATOM     25  C   UNL     1       1.077  -4.180  -2.263  0.00  0.00    +0.005 A 
ATOM     26  C   UNL     1       1.065  -2.805  -2.151  0.00  0.00    +0.015 A 
BRANCH  21  27
ATOM     27  C   UNL     1       0.788  -0.739  -0.787  0.00  0.00    +0.339 C 
ATOM     28  O   UNL     1       1.015  -0.043  -1.756  0.00  0.00    -0.245 OA
BRANCH  27  30
ATOM     29  C   UNL     1       0.537   1.259   0.457  0.00  0.00    +0.280 C 
ATOM     30  O   UNL     1       0.528  -0.169   0.406  0.00  0.00    -0.464 OA
ENDBRANCH  27  30
ENDBRANCH  21  27
ENDBRANCH   1  24
BRANCH   9  31
ATOM     31  N   UNL     1       4.017  -7.843  -2.683  0.00  0.00    -0.328 N 
ATOM     32  H   UNL     1       4.386  -8.181  -3.514  0.00  0.00    +0.145 HD
ATOM     33  H   UNL     1       4.572  -7.800  -1.888  0.00  0.00    +0.145 HD
ENDBRANCH   9  31
BRANCH  10  34
ATOM     34  C   UNL     1       3.113  -6.930  -0.321  0.00  0.00    +0.101 C 
ATOM     35  N   UNL     1       3.807  -6.907   0.578  0.00  0.00    -0.191 NA
ENDBRANCH  10  34
TORSDOF 6
