REMARK  Name = ZINC35729439
REMARK  8 active torsions:
REMARK  status: ('A' for Active; 'I' for Inactive)
REMARK    1  A    between atoms: C_1  and  C_2
REMARK    2  A    between atoms: C_2  and  C_3
REMARK    3  A    between atoms: C_3  and  C_5
REMARK    4  A    between atoms: C_3  and  C_6
REMARK    5  A    between atoms: C_6  and  C_8
REMARK    6  A    between atoms: C_6  and  N_25
REMARK    7  A    between atoms: C_14  and  C_16
REMARK    8  A    between atoms: N_28  and  C_29
REMARK                            x       y       z     vdW  Elec       q    Type
REMARK                         _______ _______ _______ _____ _____    ______ ____
ROOT
ATOM      1  C   UNL     1      -2.037  -0.154  -0.921  0.00  0.00    +0.163 C 
ENDROOT
BRANCH   1   2
ATOM      2  C   UNL     1      -1.645   1.293  -1.073  0.00  0.00    +0.239 C 
ATOM      3  O   UNL     1      -2.500   2.139  -1.228  0.00  0.00    -0.273 OA
ATOM      4  N   UNL     1      -0.345   1.647  -1.037  0.00  0.00    -0.262 N 
ATOM      5  C   UNL     1       0.010   2.990  -1.063  0.00  0.00    +0.188 A 
ATOM      6  N   UNL     1      -0.754   4.073  -1.115  0.00  0.00    -0.125 NA
ATOM      7  N   UNL     1      -0.264   5.235  -1.131  0.00  0.00    -0.140 NA
ATOM      8  C   UNL     1       1.046   5.444  -1.097  0.00  0.00    +0.134 A 
ATOM      9  S   UNL     1       1.630   3.752  -1.027  0.00  0.00    -0.030 S 
ATOM     10  H   UNL     1       0.342   0.964  -0.993  0.00  0.00    +0.157 HD
BRANCH   8  11
ATOM     11  C   UNL     1       1.807   6.711  -1.108  0.00  0.00    +0.013 A 
ATOM     12  C   UNL     1       3.202   6.690  -1.071  0.00  0.00    +0.014 A 
ATOM     13  C   UNL     1       3.910   7.873  -1.081  0.00  0.00    +0.050 A 
ATOM     14  C   UNL     1       3.241   9.087  -1.129  0.00  0.00    +0.166 A 
ATOM     15  C   UNL     1       1.847   9.115  -1.165  0.00  0.00    +0.167 A 
ATOM     16  C   UNL     1       1.132   7.931  -1.160  0.00  0.00    +0.060 A 
ATOM     17  O   UNL     1       1.438  10.417  -1.208  0.00  0.00    -0.453 OA
ATOM     18  C   UNL     1       2.576  11.191  -0.785  0.00  0.00    +0.466 C 
ATOM     19  O   UNL     1       3.702  10.372  -1.149  0.00  0.00    -0.453 OA
ENDBRANCH   8  11
ENDBRANCH   1   2
BRANCH   1  20
ATOM     20  N   UNL     1      -3.390  -0.352  -1.446  0.00  0.00    -0.288 N 
ATOM     21  C   UNL     1      -3.772  -1.568  -1.886  0.00  0.00    +0.305 C 
ATOM     22  O   UNL     1      -2.992  -2.500  -1.847  0.00  0.00    -0.252 OA
ATOM     23  N   UNL     1      -5.017  -1.750  -2.369  0.00  0.00    -0.267 N 
ATOM     24  H   UNL     1      -4.012   0.392  -1.477  0.00  0.00    +0.151 HD
ATOM     25  H   UNL     1      -5.616  -0.993  -2.462  0.00  0.00    +0.156 HD
BRANCH  23  26
ATOM     26  C   UNL     1      -5.445  -3.033  -2.737  0.00  0.00    +0.070 A 
ATOM     27  C   UNL     1      -4.526  -3.971  -3.185  0.00  0.00    +0.029 A 
ATOM     28  C   UNL     1      -4.949  -5.235  -3.547  0.00  0.00    +0.040 A 
ATOM     29  C   UNL     1      -6.291  -5.567  -3.464  0.00  0.00    +0.126 A 
ATOM     30  C   UNL     1      -7.212  -4.634  -3.018  0.00  0.00    +0.078 A 
ATOM     31  C   UNL     1      -6.791  -3.369  -2.649  0.00  0.00    +0.147 A 
ATOM     32  F   UNL     1      -7.688  -2.460  -2.208  0.00  0.00    -0.203 F 
ATOM     33  F   UNL     1      -6.703  -6.804  -3.819  0.00  0.00    -0.205 F 
ENDBRANCH  23  26
ENDBRANCH   1  20
BRANCH   1  34
ATOM     34  C   UNL     1      -2.003  -0.539   0.560  0.00  0.00    +0.015 C 
ATOM     35  C   UNL     1      -3.090   0.232   1.312  0.00  0.00    +0.010 C 
BRANCH  34  37
ATOM     36  C   UNL     1      -1.078  -2.813   0.095  0.00  0.00    +0.004 C 
ATOM     37  C   UNL     1      -2.252  -2.042   0.702  0.00  0.00    +0.002 C 
ENDBRANCH  34  37
ENDBRANCH   1  34
TORSDOF 6
