REMARK  Name = ZINC35375152
REMARK  7 active torsions:
REMARK  status: ('A' for Active; 'I' for Inactive)
REMARK    1  A    between atoms: C_1  and  C_2
REMARK    2  A    between atoms: C_2  and  C_3
REMARK    3  A    between atoms: C_3  and  C_5
REMARK    4  A    between atoms: C_3  and  N_6
REMARK    5  A    between atoms: C_7  and  C_9
REMARK    6  A    between atoms: N_17  and  S_20
REMARK    7  A    between atoms: S_20  and  C_23
REMARK                            x       y       z     vdW  Elec       q    Type
REMARK                         _______ _______ _______ _____ _____    ______ ____
ROOT
ATOM      1  C   UNL     1      -4.090   0.329   2.630  0.00  0.00    +0.028 C 
ATOM      2  C   UNL     1      -3.773  -0.741   3.718  0.00  0.00    +0.061 C 
ATOM      3  S   UNL     1      -5.159  -0.397   4.888  0.00  0.00    -0.174 S 
ATOM      4  C   UNL     1      -6.277   0.476   3.723  0.00  0.00    -0.016 C 
ATOM      5  N   UNL     1      -5.553   0.387   2.438  0.00  0.00    +0.397 N 
ATOM      6  C   UNL     1      -6.448   1.923   4.157  0.00  0.00    +0.015 C 
ATOM      7  C   UNL     1      -7.359   2.653   3.163  0.00  0.00    +0.109 C 
ATOM      8  N   UNL     1      -8.605   1.889   3.018  0.00  0.00    -0.177 NA
ATOM      9  C   UNL     1      -8.528   0.469   2.649  0.00  0.00    +0.109 C 
ATOM     10  C   UNL     1      -7.611  -0.249   3.646  0.00  0.00    +0.015 C 
ATOM     11  H   UNL     1      -5.779   1.197   1.879  0.00  0.00    -0.083 HD
ATOM     12  H   UNL     1      -5.853  -0.442   1.947  0.00  0.00    -0.083 HD
ENDROOT
BRANCH   1  14
ATOM     13  N   UNL     1      -2.082  -0.162   1.273  0.00  0.00    -0.314 N 
ATOM     14  C   UNL     1      -3.424  -0.053   1.334  0.00  0.00    +0.200 C 
ATOM     15  O   UNL     1      -4.095  -0.264   0.346  0.00  0.00    -0.278 OA
ATOM     16  H   UNL     1      -1.545   0.006   2.063  0.00  0.00    +0.149 HD
BRANCH  13  17
ATOM     17  C   UNL     1      -1.433  -0.534   0.013  0.00  0.00    +0.070 C 
ATOM     18  C   UNL     1      -1.416  -2.058  -0.121  0.00  0.00    +0.028 C 
BRANCH  17  20
ATOM     19  C   UNL     1      -0.019   1.526   0.010  0.00  0.00    +0.005 C 
ATOM     20  C   UNL     1       0.002  -0.004   0.002  0.00  0.00    +0.018 C 
ENDBRANCH  17  20
ENDBRANCH  13  17
ENDBRANCH   1  14
BRANCH   8  21
ATOM     21  S   UNL     1     -10.072   2.616   3.269  0.00  0.00    +0.061 S 
ATOM     22  O   UNL     1     -10.985   1.581   3.610  0.00  0.00    -0.153 OA
ATOM     23  O   UNL     1      -9.834   3.731   4.116  0.00  0.00    -0.153 OA
BRANCH  21  24
ATOM     24  C   UNL     1     -10.603   3.265   1.719  0.00  0.00    +0.106 A 
ATOM     25  C   UNL     1     -10.253   4.551   1.352  0.00  0.00    +0.029 A 
ATOM     26  C   UNL     1     -10.669   5.060   0.137  0.00  0.00    +0.017 A 
ATOM     27  C   UNL     1     -11.436   4.283  -0.713  0.00  0.00    +0.018 A 
ATOM     28  C   UNL     1     -11.786   2.997  -0.345  0.00  0.00    +0.017 A 
ATOM     29  C   UNL     1     -11.365   2.486   0.868  0.00  0.00    +0.029 A 
ATOM     30 BR   UNL     1     -12.006   4.980  -2.376  0.00  0.00    -0.050 Br
ENDBRANCH  21  24
ENDBRANCH   8  21
TORSDOF 5
