REMARK  Name = ZINC66978535
REMARK  8 active torsions:
REMARK  status: ('A' for Active; 'I' for Inactive)
REMARK    1  A    between atoms: C_1  and  C_2
REMARK    2  A    between atoms: C_2  and  C_3
REMARK    3  A    between atoms: C_2  and  N_4
REMARK    4  A    between atoms: C_8  and  C_11
REMARK    5  A    between atoms: C_11  and  N_12
REMARK    6  A    between atoms: C_18  and  N_21
REMARK    7  A    between atoms: C_22  and  C_24
REMARK    8  A    between atoms: C_24  and  C_25
REMARK                            x       y       z     vdW  Elec       q    Type
REMARK                         _______ _______ _______ _____ _____    ______ ____
ROOT
ATOM      1  N   UNL     1      -6.093   0.697  -4.335  0.00  0.00    -0.299 N 
ATOM      2  C   UNL     1      -6.550   0.029  -3.257  0.00  0.00    +0.302 C 
ATOM      3  O   UNL     1      -5.771  -0.370  -2.413  0.00  0.00    -0.253 OA
ATOM      4  N   UNL     1      -7.871  -0.197  -3.115  0.00  0.00    -0.286 N 
ATOM      5  C   UNL     1      -8.398  -0.816  -1.891  0.00  0.00    +0.111 C 
ATOM      6  C   UNL     1      -9.243  -2.034  -2.279  0.00  0.00    +0.041 C 
ATOM      7  C   UNL     1     -10.319  -1.606  -3.279  0.00  0.00    +0.076 C 
ATOM      8  C   UNL     1      -9.653  -1.058  -4.544  0.00  0.00    +0.041 C 
ATOM      9  C   UNL     1      -8.813   0.176  -4.180  0.00  0.00    +0.111 C 
ATOM     10  H   UNL     1      -6.704   0.951  -5.043  0.00  0.00    +0.150 HD
ENDROOT
BRANCH   7  11
ATOM     11  N   UNL     1     -11.150  -2.761  -3.626  0.00  0.00    -0.312 N 
ATOM     12  C   UNL     1     -12.413  -2.577  -4.058  0.00  0.00    +0.214 C 
ATOM     13  O   UNL     1     -12.862  -1.455  -4.159  0.00  0.00    -0.276 OA
ATOM     14  H   UNL     1     -10.791  -3.659  -3.546  0.00  0.00    +0.149 HD
BRANCH  12  15
ATOM     15  C   UNL     1     -13.268  -3.765  -4.415  0.00  0.00    +0.099 C 
BRANCH  15  16
ATOM     16  C   UNL     1     -14.646  -3.283  -4.872  0.00  0.00    -0.002 C 
ATOM     17  C   UNL     1     -15.409  -2.662  -3.684  0.00  0.00    +0.004 C 
ATOM     18  C   UNL     1     -16.879  -3.094  -3.908  0.00  0.00    +0.000 C 
ATOM     19  C   UNL     1     -16.732  -4.538  -4.449  0.00  0.00    +0.000 C 
ATOM     20  C   UNL     1     -15.488  -4.476  -5.358  0.00  0.00    +0.004 C 
ENDBRANCH  15  16
ENDBRANCH  12  15
ENDBRANCH   7  11
BRANCH   1  21
ATOM     21  C   UNL     1      -4.671   1.038  -4.436  0.00  0.00    +0.107 C 
BRANCH  21  26
ATOM     22  N   UNL     1      -2.675   2.762  -7.165  0.00  0.00    +0.381 N 
ATOM     23  C   UNL     1      -3.320   4.080  -7.115  0.00  0.00    -0.078 C 
ATOM     24  C   UNL     1      -4.836   3.906  -6.997  0.00  0.00    -0.018 C 
ATOM     25  C   UNL     1      -5.157   3.130  -5.716  0.00  0.00    +0.001 C 
ATOM     26  C   UNL     1      -4.419   1.788  -5.745  0.00  0.00    -0.011 C 
ATOM     27  C   UNL     1      -2.919   2.041  -5.910  0.00  0.00    -0.074 C 
ATOM     28  H   UNL     1      -3.055   2.233  -7.935  0.00  0.00    -0.081 HD
BRANCH  22  30
ATOM     29  C   UNL     1      -0.556   1.560  -7.417  0.00  0.00    -0.014 C 
ATOM     30  C   UNL     1      -1.229   2.933  -7.356  0.00  0.00    -0.075 C 
ATOM     31  C   UNL     1      -0.973   3.685  -8.664  0.00  0.00    -0.014 C 
ENDBRANCH  22  30
ENDBRANCH  21  26
ENDBRANCH   1  21
TORSDOF 6
