REMARK  Name = ZINC23237258
REMARK  5 active torsions:
REMARK  status: ('A' for Active; 'I' for Inactive)
REMARK    1  A    between atoms: C_3  and  C_6
REMARK    2  A    between atoms: C_6  and  C_12
REMARK    3  A    between atoms: C_12  and  N_13
REMARK    4  A    between atoms: C_14  and  C_16
REMARK    5  A    between atoms: C_21  and  N_22
REMARK                            x       y       z     vdW  Elec       q    Type
REMARK                         _______ _______ _______ _____ _____    ______ ____
ROOT
ATOM      1  N   UNL     1       3.650   4.358   1.268  0.00  0.00    -0.310 N 
ATOM      2  C   UNL     1       3.306   5.206   2.257  0.00  0.00    +0.246 C 
ATOM      3  O   UNL     1       3.950   5.229   3.288  0.00  0.00    -0.270 OA
ATOM      4  H   UNL     1       3.136   4.339   0.445  0.00  0.00    +0.149 HD
ENDROOT
BRANCH   2   5
ATOM      5  C   UNL     1       2.146   6.107   2.090  0.00  0.00    +0.068 A 
ATOM      6  C   UNL     1       2.075   6.959   0.987  0.00  0.00    +0.035 A 
ATOM      7  C   UNL     1       0.988   7.798   0.836  0.00  0.00    +0.042 A 
ATOM      8  C   UNL     1      -0.028   7.794   1.777  0.00  0.00    +0.022 A 
ATOM      9  C   UNL     1       0.038   6.952   2.872  0.00  0.00    +0.035 A 
ATOM     10  C   UNL     1       1.115   6.104   3.030  0.00  0.00    +0.138 A 
ATOM     11 CL   UNL     1       0.897   8.859  -0.535  0.00  0.00    -0.084 Cl
BRANCH  10  12
ATOM     12  N   UNL     1       1.181   5.199   4.200  0.00  0.00    +0.057 N 
ATOM     13  O   UNL     1       0.352   5.282   5.076  0.00  0.00    -0.126 OA
ATOM     14  O   UNL     1       2.064   4.377   4.279  0.00  0.00    -0.126 OA
ENDBRANCH  10  12
ENDBRANCH   2   5
BRANCH   1  15
ATOM     15  C   UNL     1       4.800   3.466   1.434  0.00  0.00    +0.116 C 
BRANCH  15  16
ATOM     16  C   UNL     1       5.044   2.700   0.132  0.00  0.00    +0.017 C 
ATOM     17  C   UNL     1       5.353   3.692  -0.992  0.00  0.00    +0.013 C 
ATOM     18  C   UNL     1       6.602   4.498  -0.632  0.00  0.00    +0.001 C 
ATOM     19  C   UNL     1       7.788   3.547  -0.451  0.00  0.00    +0.000 C 
ATOM     20  C   UNL     1       7.479   2.556   0.673  0.00  0.00    +0.001 C 
ATOM     21  C   UNL     1       6.229   1.750   0.313  0.00  0.00    +0.013 C 
BRANCH  16  24
ATOM     22  C   UNL     1       2.082   0.313  -0.058  0.00  0.00    +0.008 A 
ATOM     23  C   UNL     1       3.217   0.903   0.466  0.00  0.00    +0.012 A 
ATOM     24  C   UNL     1       3.813   1.907  -0.223  0.00  0.00    -0.003 A 
ATOM     25  S   UNL     1       2.762   2.044  -1.659  0.00  0.00    -0.101 S 
ATOM     26  C   UNL     1       1.599   0.755  -1.244  0.00  0.00    +0.045 A 
ENDBRANCH  16  24
ENDBRANCH  15  16
ENDBRANCH   1  15
TORSDOF 5
