REMARK  Name = ZINC50997324
REMARK  9 active torsions:
REMARK  status: ('A' for Active; 'I' for Inactive)
REMARK    1  A    between atoms: C_1  and  C_2
REMARK    2  A    between atoms: C_2  and  C_3
REMARK    3  A    between atoms: C_3  and  C_4
REMARK    4  A    between atoms: C_6  and  C_14
REMARK    5  A    between atoms: N_8  and  C_9
REMARK    6  A    between atoms: C_9  and  C_10
REMARK    7  A    between atoms: C_9  and  C_11
REMARK    8  A    between atoms: C_9  and  C_12
REMARK    9  A    between atoms: N_17  and  C_19
REMARK                            x       y       z     vdW  Elec       q    Type
REMARK                         _______ _______ _______ _____ _____    ______ ____
ROOT
ATOM      1  C   UNL     1      -0.200  -2.272  -0.067  0.00  0.00    +0.077 C 
ATOM      2  N   UNL     1       0.183  -2.928  -1.105  0.00  0.00    -0.363 N 
ATOM      3  C   UNL     1      -0.191  -4.338  -0.921  0.00  0.00    +0.175 C 
ATOM      4  C   UNL     1      -0.869  -4.360   0.436  0.00  0.00    +0.101 C 
ATOM      5  N   UNL     1      -0.815  -3.053   0.870  0.00  0.00    -0.273 N 
ATOM      6  N   UNL     1      -1.378  -5.378   1.049  0.00  0.00    -0.388 N 
ATOM      7  H   UNL     1      -1.260  -6.270   0.688  0.00  0.00    +0.157 HD
ATOM      8  H   UNL     1      -1.877  -5.248   1.871  0.00  0.00    +0.157 HD
ATOM      9  H   UNL     1       0.640  -2.556  -1.876  0.00  0.00    +0.162 HD
ENDROOT
BRANCH   3  10
ATOM     10  C   UNL     1      -1.150  -4.776  -1.998  0.00  0.00    +0.019 A 
ATOM     11  C   UNL     1      -2.183  -4.006  -2.542  0.00  0.00    +0.140 A 
ATOM     12  N   UNL     1      -2.795  -4.725  -3.448  0.00  0.00    -0.180 NA
ATOM     13  N   UNL     1      -2.169  -5.977  -3.510  0.00  0.00    -0.274 N 
ATOM     14  C   UNL     1      -1.159  -5.981  -2.614  0.00  0.00    +0.114 A 
ATOM     15  C   UNL     1      -2.540  -7.084  -4.394  0.00  0.00    +0.172 C 
ENDBRANCH   3  10
BRANCH   5  16
ATOM     16  C   UNL     1      -1.344  -2.571   2.149  0.00  0.00    +0.033 C 
ATOM     17  C   UNL     1      -2.461  -1.559   1.889  0.00  0.00    +0.031 C 
ATOM     18  C   UNL     1      -1.900  -3.752   2.948  0.00  0.00    +0.031 C 
ATOM     19  C   UNL     1      -0.222  -1.900   2.944  0.00  0.00    +0.031 C 
ENDBRANCH   5  16
BRANCH   1  20
ATOM     20  C   UNL     1       0.014  -0.790   0.102  0.00  0.00    +0.069 C 
BRANCH  20  22
ATOM     21  C   UNL     1       1.691   0.977   0.655  0.00  0.00    +0.004 C 
ATOM     22  C   UNL     1       1.450  -0.531   0.559  0.00  0.00    +0.004 C 
ENDBRANCH  20  22
ENDBRANCH   1  20
TORSDOF 4
