REMARK  Name = ZINC12981461
REMARK  8 active torsions:
REMARK  status: ('A' for Active; 'I' for Inactive)
REMARK    1  A    between atoms: C_1  and  C_2
REMARK    2  A    between atoms: C_2  and  N_55
REMARK    3  A    between atoms: C_3  and  C_4
REMARK    4  A    between atoms: C_3  and  N_55
REMARK    5  A    between atoms: N_6  and  C_7
REMARK    6  A    between atoms: C_15  and  C_16
REMARK    7  A    between atoms: C_15  and  N_55
REMARK    8  A    between atoms: C_29  and  C_31
REMARK                            x       y       z     vdW  Elec       q    Type
REMARK                         _______ _______ _______ _____ _____    ______ ____
ROOT
ATOM      1  C   UNL     1       3.811   2.557  -0.061  0.00  0.00    +0.020 C 
ENDROOT
BRANCH   1   2
ATOM      2  C   UNL     1       2.330   2.414  -0.305  0.00  0.00    +0.204 C 
ATOM      3  O   UNL     1       1.779   1.356  -0.086  0.00  0.00    -0.277 OA
ATOM      4  N   UNL     1       1.619   3.462  -0.766  0.00  0.00    -0.268 N 
ATOM      5  C   UNL     1       2.244   4.690  -1.023  0.00  0.00    +0.058 A 
ATOM      6  C   UNL     1       2.675   5.496   0.018  0.00  0.00    +0.025 A 
ATOM      7  C   UNL     1       3.268   6.715  -0.256  0.00  0.00    +0.002 A 
ATOM      8  C   UNL     1       3.431   7.133  -1.564  0.00  0.00    +0.002 A 
ATOM      9  C   UNL     1       3.011   6.331  -2.609  0.00  0.00    +0.025 A 
ATOM     10  C   UNL     1       2.427   5.104  -2.344  0.00  0.00    +0.055 A 
ATOM     11  N   UNL     1       2.045   4.250  -3.385  0.00  0.00    -0.284 N 
ATOM     12  C   UNL     1       0.822   3.676  -3.387  0.00  0.00    +0.219 C 
ATOM     13  O   UNL     1       0.535   2.874  -4.251  0.00  0.00    -0.275 OA
ATOM     14  C   UNL     1      -0.186   4.024  -2.324  0.00  0.00    +0.118 C 
ATOM     15  C   UNL     1       0.180   3.338  -1.007  0.00  0.00    +0.087 C 
ATOM     16  C   UNL     1      -0.586   4.001   0.140  0.00  0.00    +0.029 C 
ATOM     17  H   UNL     1       2.663   4.070  -4.111  0.00  0.00    +0.155 HD
ENDBRANCH   1   2
BRANCH   1  18
ATOM     18  N   UNL     1       4.342   1.263   0.418  0.00  0.00    +0.391 N 
ATOM     19  H   UNL     1       4.049   0.522  -0.230  0.00  0.00    -0.080 HD
BRANCH  18  21
ATOM     20  C   UNL     1       4.042  -0.517   2.067  0.00  0.00    -0.017 C 
ATOM     21  C   UNL     1       3.807   0.964   1.763  0.00  0.00    -0.081 C 
ENDBRANCH  18  21
BRANCH  18  22
ATOM     22  C   UNL     1       5.819   1.308   0.460  0.00  0.00    +0.020 C 
BRANCH  22  23
ATOM     23  C   UNL     1       6.347   1.134  -0.940  0.00  0.00    +0.201 C 
ATOM     24  O   UNL     1       5.576   1.041  -1.872  0.00  0.00    -0.278 OA
ATOM     25  N   UNL     1       7.676   1.081  -1.157  0.00  0.00    -0.283 N 
ATOM     26  H   UNL     1       8.293   1.203  -0.419  0.00  0.00    +0.155 HD
BRANCH  25  27
ATOM     27  C   UNL     1       8.167   0.850  -2.450  0.00  0.00    +0.105 A 
ATOM     28  C   UNL     1       7.468   0.024  -3.323  0.00  0.00    +0.147 A 
ATOM     29  C   UNL     1       7.953  -0.197  -4.599  0.00  0.00    +0.040 A 
ATOM     30  C   UNL     1       9.136   0.393  -5.004  0.00  0.00    +0.006 A 
ATOM     31  C   UNL     1       9.837   1.210  -4.136  0.00  0.00    +0.040 A 
ATOM     32  C   UNL     1       9.356   1.441  -2.860  0.00  0.00    +0.147 A 
ATOM     33  F   UNL     1      10.042   2.239  -2.013  0.00  0.00    -0.203 F 
ATOM     34  F   UNL     1       6.314  -0.557  -2.927  0.00  0.00    -0.203 F 
ENDBRANCH  25  27
ENDBRANCH  22  23
ENDBRANCH  18  22
ENDBRANCH   1  18
TORSDOF 6
