REMARK  Name = ZINC06341550
REMARK  2 active torsions:
REMARK  status: ('A' for Active; 'I' for Inactive)
REMARK    1  A    between atoms: C_4  and  N_7
REMARK    2  A    between atoms: C_10  and  N_14
REMARK                            x       y       z     vdW  Elec       q    Type
REMARK                         _______ _______ _______ _____ _____    ______ ____
ROOT
ATOM      1  N   UNL     1      -4.922   0.735   0.064  0.00  0.00    -0.284 N 
ATOM      2  C   UNL     1      -3.930   0.082   0.732  0.00  0.00    +0.097 A 
ATOM      3  C   UNL     1      -2.668   0.555   0.733  0.00  0.00    +0.046 A 
ATOM      4  C   UNL     1      -2.367   1.754   0.041  0.00  0.00    +0.072 A 
ATOM      5  C   UNL     1      -3.389   2.412  -0.637  0.00  0.00    +0.098 A 
ATOM      6  C   UNL     1      -4.678   1.873  -0.610  0.00  0.00    +0.258 A 
ATOM      7  O   UNL     1      -5.586   2.438  -1.200  0.00  0.00    -0.267 OA
ENDROOT
BRANCH   4   8
ATOM      8  N   UNL     1      -1.098   2.251   0.035  0.00  0.00    -0.237 NA
ATOM      9  C   UNL     1      -0.289   1.967  -0.951  0.00  0.00    +0.096 C 
ATOM     10  C   UNL     1      -0.599   1.014  -2.085  0.00  0.00    +0.073 C 
ATOM     11  C   UNL     1       0.678   0.988  -2.952  0.00  0.00    +0.026 C 
ATOM     12  C   UNL     1       1.734   1.613  -2.013  0.00  0.00    +0.103 C 
ATOM     13  N   UNL     1       0.958   2.486  -1.118  0.00  0.00    -0.332 N 
ATOM     14  H   UNL     1       1.284   3.304  -0.710  0.00  0.00    +0.147 HD
ENDBRANCH   4   8
BRANCH   1  18
ATOM     15  C   UNL     1      -8.787  -0.824   0.109  0.00  0.00    +0.000 A 
ATOM     16  C   UNL     1      -7.886  -1.240  -0.854  0.00  0.00    +0.002 A 
ATOM     17  C   UNL     1      -6.604  -0.726  -0.872  0.00  0.00    +0.026 A 
ATOM     18  C   UNL     1      -6.221   0.211   0.079  0.00  0.00    +0.049 A 
ATOM     19  C   UNL     1      -7.126   0.623   1.049  0.00  0.00    +0.026 A 
ATOM     20  C   UNL     1      -8.408   0.109   1.057  0.00  0.00    +0.002 A 
ENDBRANCH   1  18
TORSDOF 2
