REMARK  Name = ZINC12467622
REMARK  10 active torsions:
REMARK  status: ('A' for Active; 'I' for Inactive)
REMARK    1  A    between atoms: C_1  and  O_2
REMARK    2  A    between atoms: O_2  and  C_3
REMARK    3  A    between atoms: C_6  and  C_9
REMARK    4  A    between atoms: C_9  and  C_11
REMARK    5  A    between atoms: C_11  and  S_12
REMARK    6  A    between atoms: S_12  and  C_13
REMARK    7  A    between atoms: C_16  and  C_24
REMARK    8  A    between atoms: N_17  and  C_18
REMARK    9  A    between atoms: C_18  and  C_19
REMARK   10  A    between atoms: C_33  and  O_34
REMARK                            x       y       z     vdW  Elec       q    Type
REMARK                         _______ _______ _______ _____ _____    ______ ____
ROOT
ATOM      1  C   UNL     1       3.396  -6.317   6.031  0.00  0.00    +0.193 A 
ATOM      2  N   UNL     1       2.851  -6.983   5.038  0.00  0.00    -0.122 NA
ATOM      3  N   UNL     1       3.128  -8.234   5.140  0.00  0.00    -0.128 NA
ATOM      4  C   UNL     1       3.868  -8.443   6.205  0.00  0.00    +0.169 A 
ATOM      5  N   UNL     1       4.067  -7.221   6.805  0.00  0.00    -0.295 N 
ENDROOT
BRANCH   4   6
ATOM      6  C   UNL     1       4.392  -9.745   6.668  0.00  0.00    +0.061 A 
ATOM      7  C   UNL     1       5.727  -9.864   7.013  0.00  0.00    +0.023 A 
ATOM      8  C   UNL     1       6.219 -11.103   7.452  0.00  0.00    -0.017 A 
ATOM      9  C   UNL     1       7.570 -11.261   7.812  0.00  0.00    +0.008 A 
ATOM     10  C   UNL     1       8.017 -12.474   8.234  0.00  0.00    +0.001 A 
ATOM     11  C   UNL     1       7.156 -13.567   8.316  0.00  0.00    +0.001 A 
ATOM     12  C   UNL     1       5.843 -13.452   7.976  0.00  0.00    +0.008 A 
ATOM     13  C   UNL     1       5.343 -12.215   7.536  0.00  0.00    -0.014 A 
ATOM     14  C   UNL     1       3.992 -12.066   7.178  0.00  0.00    +0.054 A 
ATOM     15  C   UNL     1       3.527 -10.855   6.760  0.00  0.00    +0.128 A 
BRANCH  15  16
ATOM     16  O   UNL     1       2.219 -10.718   6.422  0.00  0.00    -0.506 OA
ATOM     17  H   UNL     1       2.039 -10.855   5.481  0.00  0.00    +0.292 HD
ENDBRANCH  15  16
ENDBRANCH   4   6
BRANCH   1  18
ATOM     18  S   UNL     1       3.288  -4.580   6.309  0.00  0.00    -0.078 S 
BRANCH  18  19
ATOM     19  C   UNL     1       2.267  -3.979   4.935  0.00  0.00    +0.157 C 
BRANCH  19  20
ATOM     20  C   UNL     1       2.094  -2.487   5.054  0.00  0.00    +0.173 C 
ATOM     21  O   UNL     1       2.609  -1.888   5.975  0.00  0.00    -0.291 OA
BRANCH  20  25
ATOM     22  C   UNL     1      -0.189  -0.384   2.172  0.00  0.00    +0.120 A 
ATOM     23  C   UNL     1       0.400   0.305   3.227  0.00  0.00    +0.046 A 
ATOM     24  C   UNL     1       1.140  -0.371   4.163  0.00  0.00    +0.015 A 
ATOM     25  C   UNL     1       1.302  -1.758   4.055  0.00  0.00    +0.018 A 
ATOM     26  C   UNL     1       0.707  -2.447   2.991  0.00  0.00    +0.015 A 
ATOM     27  C   UNL     1      -0.035  -1.762   2.063  0.00  0.00    +0.046 A 
BRANCH  22  29
ATOM     28  C   UNL     1      -1.038   1.703   1.421  0.00  0.00    +0.277 C 
ATOM     29  O   UNL     1      -0.920   0.290   1.249  0.00  0.00    -0.495 OA
ENDBRANCH  22  29
ENDBRANCH  20  25
ENDBRANCH  19  20
ENDBRANCH  18  19
ENDBRANCH   1  18
BRANCH   5  30
ATOM     30  C   UNL     1       4.835  -6.947   8.022  0.00  0.00    +0.200 C 
BRANCH  30  31
ATOM     31  C   UNL     1       3.922  -7.019   9.219  0.00  0.00    +0.125 A 
ATOM     32  C   UNL     1       3.739  -8.095  10.006  0.00  0.00    +0.046 A 
ATOM     33  C   UNL     1       2.805  -7.721  11.000  0.00  0.00    +0.041 A 
ATOM     34  C   UNL     1       2.473  -6.440  10.761  0.00  0.00    +0.195 A 
ATOM     35  O   UNL     1       3.157  -6.018   9.684  0.00  0.00    -0.466 OA
ENDBRANCH  30  31
ENDBRANCH   5  30
TORSDOF 9
