REMARK  Name = ZINC63708275
REMARK  12 active torsions:
REMARK  status: ('A' for Active; 'I' for Inactive)
REMARK    1  A    between atoms: C_1  and  C_2
REMARK    2  A    between atoms: C_2  and  O_3
REMARK    3  A    between atoms: O_3  and  C_4
REMARK    4  A    between atoms: C_9  and  N_10
REMARK    5  A    between atoms: C_11  and  C_13
REMARK    6  A    between atoms: C_13  and  S_14
REMARK    7  A    between atoms: S_14  and  C_15
REMARK    8  A    between atoms: C_27  and  C_29
REMARK    9  A    between atoms: C_29  and  C_30
REMARK   10  A    between atoms: C_30  and  C_31
REMARK   11  A    between atoms: C_32  and  C_38
REMARK   12  A    between atoms: C_35  and  C_37
REMARK                            x       y       z     vdW  Elec       q    Type
REMARK                         _______ _______ _______ _____ _____    ______ ____
ROOT
ATOM      1  C   UNL     1       4.285  -0.848   8.152  0.00  0.00    +0.248 C 
ATOM      2  N   UNL     1       5.372  -0.077   7.536  0.00  0.00    -0.356 N 
ATOM      3  C   UNL     1       5.258   1.240   7.422  0.00  0.00    +0.048 A 
ATOM      4  C   UNL     1       6.290   2.002   6.833  0.00  0.00    +0.026 A 
ATOM      5  C   UNL     1       6.152   3.350   6.725  0.00  0.00    +0.002 A 
ATOM      6  C   UNL     1       5.012   4.006   7.182  0.00  0.00    +0.001 A 
ATOM      7  C   UNL     1       3.982   3.328   7.759  0.00  0.00    +0.013 A 
ATOM      8  C   UNL     1       4.058   1.933   7.902  0.00  0.00    +0.038 A 
ATOM      9  C   UNL     1       3.001   1.214   8.496  0.00  0.00    +0.128 C 
ATOM     10  N   UNL     1       3.094  -0.146   8.627  0.00  0.00    -0.204 N 
ATOM     11  N   UNL     1       1.908  -0.564   9.244  0.00  0.00    -0.249 N 
ATOM     12  C   UNL     1       1.169   0.548   9.452  0.00  0.00    +0.090 C 
ATOM     13  N   UNL     1       1.823   1.591   9.007  0.00  0.00    -0.332 N 
ATOM     14  H   UNL     1       1.665  -1.474   9.476  0.00  0.00    +0.171 HD
ATOM     15  H   UNL     1       6.169  -0.527   7.215  0.00  0.00    +0.162 HD
ATOM     16  H   UNL     1       1.500   2.505   9.043  0.00  0.00    +0.168 HD
ENDROOT
BRANCH   1  17
ATOM     17  S   UNL     1       3.742  -2.086   6.942  0.00  0.00    -0.106 S 
BRANCH  17  18
ATOM     18  C   UNL     1       3.061  -1.099   5.580  0.00  0.00    +0.168 C 
BRANCH  18  20
ATOM     19  N   UNL     1       2.017  -1.504   3.375  0.00  0.00    -0.282 N 
ATOM     20  C   UNL     1       2.567  -2.018   4.493  0.00  0.00    +0.227 C 
ATOM     21  O   UNL     1       2.665  -3.220   4.623  0.00  0.00    -0.275 OA
ATOM     22  H   UNL     1       2.012  -0.544   3.234  0.00  0.00    +0.155 HD
BRANCH  19  28
ATOM     23  C   UNL     1       1.353  -1.944   1.089  0.00  0.00    +0.142 A 
ATOM     24  C   UNL     1       0.799  -2.793   0.144  0.00  0.00    +0.047 A 
ATOM     25  C   UNL     1       0.342  -4.042   0.520  0.00  0.00    +0.004 A 
ATOM     26  C   UNL     1       0.437  -4.449   1.838  0.00  0.00    +0.002 A 
ATOM     27  C   UNL     1       0.988  -3.609   2.787  0.00  0.00    +0.027 A 
ATOM     28  C   UNL     1       1.453  -2.356   2.416  0.00  0.00    +0.076 A 
BRANCH  23  29
ATOM     29  O   UNL     1       1.802  -0.715   0.721  0.00  0.00    -0.490 OA
BRANCH  29  31
ATOM     30  C   UNL     1       2.223   1.048  -0.878  0.00  0.00    +0.048 C 
ATOM     31  C   UNL     1       1.667  -0.360  -0.657  0.00  0.00    +0.226 C 
ENDBRANCH  29  31
ENDBRANCH  23  29
ENDBRANCH  19  28
ENDBRANCH  18  20
ENDBRANCH  17  18
ENDBRANCH   1  17
BRANCH  12  32
ATOM     32  C   UNL     1      -0.194   0.583  10.094  0.00  0.00    +0.075 C 
BRANCH  32  33
ATOM     33  C   UNL     1      -0.041   0.760  11.606  0.00  0.00    +0.042 C 
BRANCH  33  34
ATOM     34  C   UNL     1      -1.404   0.794  12.248  0.00  0.00    -0.021 C 
ATOM     35  C   UNL     1      -2.076  -0.215  12.805  0.00  0.00    +0.061 C 
ATOM     36  N   UNL     1      -3.271   0.205  13.276  0.00  0.00    -0.159 NA
ATOM     37  N   UNL     1      -3.496   1.406  13.102  0.00  0.00    -0.180 NA
ATOM     38  C   UNL     1      -2.328   1.987  12.417  0.00  0.00    +0.153 C 
ATOM     39  C   UNL     1      -2.732   2.557  11.056  0.00  0.00    +0.039 C 
ATOM     40  C   UNL     1      -1.572  -1.633  12.895  0.00  0.00    +0.067 C 
ENDBRANCH  33  34
ENDBRANCH  32  33
ENDBRANCH  12  32
TORSDOF 9
