REMARK  Name = ZINC18113945
REMARK  7 active torsions:
REMARK  status: ('A' for Active; 'I' for Inactive)
REMARK    1  A    between atoms: C_1  and  C_2
REMARK    2  A    between atoms: C_4  and  C_24
REMARK    3  A    between atoms: C_5  and  N_9
REMARK    4  A    between atoms: C_6  and  C_8
REMARK    5  A    between atoms: N_9  and  S_10
REMARK    6  A    between atoms: C_12  and  C_20
REMARK    7  A    between atoms: C_14  and  C_16
REMARK                            x       y       z     vdW  Elec       q    Type
REMARK                         _______ _______ _______ _____ _____    ______ ____
ROOT
ATOM      1  S   UNL     1       2.091  -4.520  -1.246  0.00  0.00    +0.118 S 
ATOM      2  N   UNL     1       3.269  -3.473  -1.042  0.00  0.00    -0.168 NA
ATOM      3  C   UNL     1       4.405  -3.965  -0.610  0.00  0.00    +0.193 C 
ATOM      4  N   UNL     1       4.580  -5.249  -0.355  0.00  0.00    -0.207 NA
ATOM      5  C   UNL     1       3.697  -6.223  -0.479  0.00  0.00    +0.193 C 
ATOM      6  N   UNL     1       2.469  -6.023  -0.894  0.00  0.00    -0.168 NA
ENDROOT
BRANCH   5   7
ATOM      7  C   UNL     1       4.119  -7.627  -0.128  0.00  0.00    +0.250 C 
ATOM      8 CL   UNL     1       2.734  -8.753  -0.385  0.00  0.00    -0.075 Cl
ATOM      9 CL   UNL     1       5.498  -8.120  -1.180  0.00  0.00    -0.075 Cl
ATOM     10 CL   UNL     1       4.629  -7.687   1.600  0.00  0.00    -0.075 Cl
ENDBRANCH   5   7
BRANCH   3  11
ATOM     11  C   UNL     1       5.563  -3.024  -0.396  0.00  0.00    +0.250 C 
ATOM     12 CL   UNL     1       6.991  -3.953   0.196  0.00  0.00    -0.075 Cl
ATOM     13 CL   UNL     1       5.976  -2.214  -1.953  0.00  0.00    -0.075 Cl
ATOM     14 CL   UNL     1       5.108  -1.780   0.827  0.00  0.00    -0.075 Cl
ENDBRANCH   3  11
BRANCH   1  15
ATOM     15  N   UNL     1       0.980  -4.104  -0.090  0.00  0.00    -0.262 N 
ATOM     16  H   UNL     1       0.777  -4.721   0.631  0.00  0.00    +0.163 HD
BRANCH  15  21
ATOM     17  C   UNL     1      -1.635   0.921  -0.344  0.00  0.00    +0.044 C 
ATOM     18  C   UNL     1      -0.940  -0.414  -0.277  0.00  0.00    -0.050 A 
ATOM     19  C   UNL     1      -0.732  -1.143  -1.433  0.00  0.00    +0.008 A 
ATOM     20  C   UNL     1      -0.095  -2.367  -1.375  0.00  0.00    -0.028 A 
ATOM     21  C   UNL     1       0.337  -2.866  -0.153  0.00  0.00    +0.045 A 
ATOM     22  C   UNL     1       0.126  -2.131   1.007  0.00  0.00    -0.028 A 
ATOM     23  C   UNL     1      -0.506  -0.905   0.941  0.00  0.00    +0.008 A 
ATOM     24  C   UNL     1       0.593  -2.669   2.336  0.00  0.00    +0.046 C 
ATOM     25  C   UNL     1       0.130  -3.161  -2.636  0.00  0.00    +0.046 C 
ENDBRANCH  15  21
ENDBRANCH   1  15
TORSDOF 4
