REMARK  Name = ZINC09362818
REMARK  11 active torsions:
REMARK  status: ('A' for Active; 'I' for Inactive)
REMARK    1  A    between atoms: C_1  and  C_2
REMARK    2  A    between atoms: C_2  and  C_4
REMARK    3  A    between atoms: C_2  and  N_14
REMARK    4  A    between atoms: C_7  and  C_10
REMARK    5  A    between atoms: C_10  and  C_11
REMARK    6  A    between atoms: C_11  and  C_12
REMARK    7  A    between atoms: C_11  and  C_13
REMARK    8  A    between atoms: C_15  and  C_17
REMARK    9  A    between atoms: C_17  and  N_18
REMARK   10  A    between atoms: C_21  and  C_25
REMARK   11  A    between atoms: C_21  and  C_26
REMARK                            x       y       z     vdW  Elec       q    Type
REMARK                         _______ _______ _______ _____ _____    ______ ____
ROOT
ATOM      1  N   UNL     1       4.181  -1.104  -2.214  0.00  0.00    -0.215 N 
ATOM      2  C   UNL     1       5.010  -0.068  -2.449  0.00  0.00    +0.251 C 
ATOM      3  O   UNL     1       4.713   1.024  -2.883  0.00  0.00    -0.272 OA
ATOM      4  C   UNL     1       6.392  -0.552  -2.057  0.00  0.00    +0.135 C 
ATOM      5  N   UNL     1       6.160  -1.934  -1.605  0.00  0.00    -0.281 N 
ATOM      6  C   UNL     1       4.840  -2.163  -1.729  0.00  0.00    +0.310 C 
ATOM      7  O   UNL     1       4.306  -3.214  -1.436  0.00  0.00    -0.252 OA
ATOM      8  C   UNL     1       7.332  -0.532  -3.265  0.00  0.00    +0.047 C 
ATOM      9  H   UNL     1       6.827  -2.557  -1.278  0.00  0.00    +0.152 HD
ENDROOT
BRANCH   4  10
ATOM     10  C   UNL     1       6.949   0.287  -0.936  0.00  0.00    -0.012 A 
ATOM     11  C   UNL     1       6.577   1.613  -0.816  0.00  0.00    +0.010 A 
ATOM     12  C   UNL     1       7.085   2.386   0.211  0.00  0.00    +0.050 A 
ATOM     13  C   UNL     1       7.970   1.833   1.123  0.00  0.00    +0.166 A 
ATOM     14  C   UNL     1       8.344   0.497   1.002  0.00  0.00    +0.167 A 
ATOM     15  C   UNL     1       7.827  -0.273  -0.026  0.00  0.00    +0.055 A 
ATOM     16  O   UNL     1       9.214   0.195   2.010  0.00  0.00    -0.453 OA
ATOM     17  C   UNL     1       9.684   1.463   2.506  0.00  0.00    +0.466 C 
ATOM     18  O   UNL     1       8.604   2.368   2.207  0.00  0.00    -0.453 OA
ENDBRANCH   4  10
BRANCH   1  19
ATOM     19  C   UNL     1       2.736  -1.073  -2.455  0.00  0.00    +0.213 C 
BRANCH  19  21
ATOM     20  N   UNL     1       0.688  -0.476  -1.203  0.00  0.00    -0.307 N 
ATOM     21  C   UNL     1       2.031  -0.587  -1.215  0.00  0.00    +0.231 C 
ATOM     22  O   UNL     1       2.672  -0.295  -0.228  0.00  0.00    -0.274 OA
ATOM     23  H   UNL     1       0.175  -0.710  -1.993  0.00  0.00    +0.149 HD
BRANCH  20  25
ATOM     24  C   UNL     1      -0.019   1.526   0.010  0.00  0.00    +0.033 C 
ATOM     25  C   UNL     1       0.002  -0.004   0.002  0.00  0.00    +0.100 C 
BRANCH  25  26
ATOM     26  C   UNL     1      -1.412  -0.526   0.013  0.00  0.00    -0.027 A 
ATOM     27  C   UNL     1      -2.141  -0.569  -1.161  0.00  0.00    +0.006 A 
ATOM     28  C   UNL     1      -3.438  -1.047  -1.151  0.00  0.00    +0.004 A 
ATOM     29  C   UNL     1      -4.005  -1.483   0.032  0.00  0.00    -0.047 A 
ATOM     30  C   UNL     1      -3.275  -1.441   1.205  0.00  0.00    +0.004 A 
ATOM     31  C   UNL     1      -1.977  -0.966   1.195  0.00  0.00    +0.006 A 
BRANCH  29  32
ATOM     32  C   UNL     1      -5.419  -2.004   0.043  0.00  0.00    +0.038 C 
BRANCH  32  33
ATOM     33  C   UNL     1      -5.409  -3.513  -0.210  0.00  0.00    -0.013 C 
ATOM     34  C   UNL     1      -4.709  -4.220   0.952  0.00  0.00    +0.007 C 
ATOM     35  C   UNL     1      -6.848  -4.021  -0.323  0.00  0.00    +0.007 C 
ENDBRANCH  32  33
ENDBRANCH  29  32
ENDBRANCH  25  26
ENDBRANCH  20  25
ENDBRANCH  19  21
ENDBRANCH   1  19
TORSDOF 7
