REMARK  Name = ZINC39635919
REMARK  5 active torsions:
REMARK  status: ('A' for Active; 'I' for Inactive)
REMARK    1  A    between atoms: C_1  and  C_2
REMARK    2  A    between atoms: C_6  and  C_9
REMARK    3  A    between atoms: C_13  and  C_22
REMARK    4  A    between atoms: N_24  and  C_25
REMARK    5  A    between atoms: C_31  and  C_33
REMARK                            x       y       z     vdW  Elec       q    Type
REMARK                         _______ _______ _______ _____ _____    ______ ____
ROOT
ATOM      1  C   UNL     1       0.069  -2.871   2.524  0.00  0.00    +0.251 C 
ATOM      2  O   UNL     1       1.121  -3.194   3.040  0.00  0.00    -0.270 OA
ATOM      3  N   UNL     1      -1.099  -3.236   3.090  0.00  0.00    -0.296 N 
ATOM      4  C   UNL     1      -2.471  -2.946   2.610  0.00  0.00    +0.121 C 
ATOM      5  C   UNL     1      -3.264  -4.243   2.883  0.00  0.00    +0.100 C 
ATOM      6  C   UNL     1      -2.493  -4.942   4.016  0.00  0.00    -0.004 C 
ATOM      7  C   UNL     1      -1.302  -4.025   4.329  0.00  0.00    +0.115 C 
ATOM      8  C   UNL     1      -3.382  -5.093   5.246  0.00  0.00    -0.010 C 
ATOM      9  C   UNL     1      -2.613  -5.843   6.337  0.00  0.00    -0.082 C 
ATOM     10  N   UNL     1      -2.209  -7.162   5.836  0.00  0.00    +0.379 N 
ATOM     11  C   UNL     1      -1.280  -7.007   4.711  0.00  0.00    -0.082 C 
ATOM     12  C   UNL     1      -1.992  -6.307   3.550  0.00  0.00    -0.010 C 
ATOM     13  H   UNL     1      -1.756  -7.677   6.576  0.00  0.00    -0.086 HD
ATOM     14  H   UNL     1      -3.026  -7.668   5.529  0.00  0.00    -0.086 HD
ENDROOT
BRANCH   1  20
ATOM     15  C   UNL     1       0.060   1.558   0.218  0.00  0.00    +0.047 C 
ATOM     16  C   UNL     1       0.065   0.052   0.162  0.00  0.00    -0.014 A 
ATOM     17  C   UNL     1       0.071  -0.593  -1.061  0.00  0.00    +0.007 A 
ATOM     18  C   UNL     1       0.076  -1.975  -1.123  0.00  0.00    +0.021 A 
ATOM     19  C   UNL     1       0.075  -2.722   0.037  0.00  0.00    +0.056 A 
ATOM     20  C   UNL     1       0.070  -2.079   1.278  0.00  0.00    +0.091 A 
ATOM     21  C   UNL     1       0.070  -0.682   1.334  0.00  0.00    +0.140 A 
ATOM     22  F   UNL     1       0.070  -0.051   2.528  0.00  0.00    -0.204 F 
ATOM     23 CL   UNL     1       0.081  -4.456  -0.044  0.00  0.00    -0.083 Cl
ENDBRANCH   1  20
BRANCH   5  24
ATOM     24  C   UNL     1      -4.667  -3.917   3.324  0.00  0.00    +0.218 C 
ATOM     25  O   UNL     1      -4.881  -2.918   3.977  0.00  0.00    -0.275 OA
ATOM     26  N   UNL     1      -5.685  -4.737   2.993  0.00  0.00    -0.312 N 
ATOM     27  H   UNL     1      -5.513  -5.537   2.472  0.00  0.00    +0.149 HD
BRANCH  26  28
ATOM     28  C   UNL     1      -7.049  -4.420   3.422  0.00  0.00    +0.076 C 
ATOM     29  C   UNL     1      -7.275  -4.952   4.839  0.00  0.00    +0.022 C 
ATOM     30  C   UNL     1      -7.076  -6.469   4.852  0.00  0.00    +0.002 C 
ATOM     31  C   UNL     1      -8.075  -7.123   3.897  0.00  0.00    +0.000 C 
ATOM     32  C   UNL     1      -7.849  -6.592   2.480  0.00  0.00    +0.005 C 
ATOM     33  C   UNL     1      -8.049  -5.075   2.466  0.00  0.00    +0.006 C 
ATOM     34  C   UNL     1      -7.823  -4.543   1.049  0.00  0.00    +0.009 C 
ENDBRANCH  26  28
ENDBRANCH   5  24
TORSDOF 3
