REMARK  Name = ZINC12833294
REMARK  13 active torsions:
REMARK  status: ('A' for Active; 'I' for Inactive)
REMARK    1  A    between atoms: C_1  and  C_2
REMARK    2  A    between atoms: C_2  and  O_3
REMARK    3  A    between atoms: O_3  and  C_4
REMARK    4  A    between atoms: C_4  and  C_6
REMARK    5  A    between atoms: C_6  and  N_7
REMARK    6  A    between atoms: C_8  and  C_12
REMARK    7  A    between atoms: C_12  and  N_62
REMARK    8  A    between atoms: C_13  and  C_14
REMARK    9  A    between atoms: C_13  and  N_62
REMARK   10  A    between atoms: C_21  and  C_22
REMARK   11  A    between atoms: C_21  and  N_62
REMARK   12  A    between atoms: C_25  and  C_35
REMARK   13  A    between atoms: C_27  and  C_34
REMARK                            x       y       z     vdW  Elec       q    Type
REMARK                         _______ _______ _______ _____ _____    ______ ____
ROOT
ATOM      1  N   UNL     1      -0.539   1.114   1.322  0.00  0.00    +0.390 N 
ATOM      2  H   UNL     1      -0.765   2.094   1.532  0.00  0.00    -0.080 HD
ENDROOT
BRANCH   1   3
ATOM      3  C   UNL     1      -0.254   0.986  -0.123  0.00  0.00    +0.001 C 
BRANCH   3   5
ATOM      4  N   UNL     1      -2.406   1.113  -1.486  0.00  0.00    -0.220 N 
ATOM      5  C   UNL     1      -1.342   1.688  -0.895  0.00  0.00    +0.136 A 
ATOM      6  N   UNL     1      -1.432   2.974  -1.126  0.00  0.00    -0.115 NA
ATOM      7  N   UNL     1      -2.499   3.181  -1.819  0.00  0.00    -0.023 NA
ATOM      8  N   UNL     1      -3.091   2.058  -2.035  0.00  0.00    -0.043 NA
BRANCH   4   9
ATOM      9  C   UNL     1      -2.728  -0.316  -1.501  0.00  0.00    +0.267 C 
BRANCH   9  10
ATOM     10  C   UNL     1      -3.851  -0.588  -0.534  0.00  0.00    +0.329 C 
ATOM     11  O   UNL     1      -4.427   0.332  -0.003  0.00  0.00    -0.249 OA
BRANCH  10  12
ATOM     12  O   UNL     1      -4.213  -1.852  -0.264  0.00  0.00    -0.464 OA
BRANCH  12  14
ATOM     13  C   UNL     1      -5.570  -3.534   0.857  0.00  0.00    +0.048 C 
ATOM     14  C   UNL     1      -5.303  -2.039   0.677  0.00  0.00    +0.229 C 
ENDBRANCH  12  14
ENDBRANCH  10  12
ENDBRANCH   9  10
ENDBRANCH   4   9
ENDBRANCH   3   5
ENDBRANCH   1   3
BRANCH   1  15
ATOM     15  C   UNL     1      -1.694   0.266   1.686  0.00  0.00    -0.042 C 
BRANCH  15  16
ATOM     16  C   UNL     1      -2.202   0.696   3.039  0.00  0.00    -0.064 A 
ATOM     17  C   UNL     1      -1.798   0.020   4.175  0.00  0.00    +0.004 A 
ATOM     18  C   UNL     1      -2.259   0.416   5.416  0.00  0.00    +0.038 A 
ATOM     19  C   UNL     1      -3.134   1.484   5.520  0.00  0.00    +0.123 A 
ATOM     20  C   UNL     1      -3.542   2.157   4.381  0.00  0.00    +0.038 A 
ATOM     21  C   UNL     1      -3.075   1.762   3.142  0.00  0.00    +0.004 A 
ATOM     22  F   UNL     1      -3.590   1.869   6.732  0.00  0.00    -0.205 F 
ENDBRANCH  15  16
ENDBRANCH   1  15
BRANCH   1  23
ATOM     23  C   UNL     1       0.648   0.716   2.108  0.00  0.00    -0.036 C 
BRANCH  23  24
ATOM     24  C   UNL     1       1.643   1.847   2.086  0.00  0.00    +0.001 A 
ATOM     25  C   UNL     1       1.637   2.772   3.079  0.00  0.00    +0.017 A 
ATOM     26  C   UNL     1       2.619   3.856   3.030  0.00  0.00    +0.002 A 
ATOM     27  C   UNL     1       2.665   4.835   4.028  0.00  0.00    -0.041 A 
ATOM     28  C   UNL     1       3.592   5.837   3.952  0.00  0.00    +0.007 A 
ATOM     29  C   UNL     1       4.487   5.891   2.892  0.00  0.00    -0.048 A 
ATOM     30  C   UNL     1       4.460   4.937   1.898  0.00  0.00    +0.029 A 
ATOM     31  C   UNL     1       3.526   3.908   1.955  0.00  0.00    +0.050 A 
ATOM     32  N   UNL     1       3.476   2.940   0.974  0.00  0.00    -0.322 N 
ATOM     33  H   UNL     1       4.102   2.977   0.234  0.00  0.00    +0.169 HD
ATOM     34  C   UNL     1       2.574   1.945   1.030  0.00  0.00    +0.251 A 
ATOM     35  O   UNL     1       2.559   1.106   0.145  0.00  0.00    -0.268 OA
ATOM     36  C   UNL     1       5.500   7.005   2.829  0.00  0.00    +0.044 C 
ATOM     37  C   UNL     1       1.697   4.787   5.182  0.00  0.00    +0.044 C 
ENDBRANCH  23  24
ENDBRANCH   1  23
TORSDOF 10
