REMARK  Name = ZINC20874683
REMARK  12 active torsions:
REMARK  status: ('A' for Active; 'I' for Inactive)
REMARK    1  A    between atoms: C_1  and  C_2
REMARK    2  A    between atoms: C_2  and  O_3
REMARK    3  A    between atoms: O_3  and  C_4
REMARK    4  A    between atoms: C_6  and  C_20
REMARK    5  A    between atoms: C_9  and  O_10
REMARK    6  A    between atoms: O_10  and  C_11
REMARK    7  A    between atoms: C_11  and  C_12
REMARK    8  A    between atoms: C_15  and  C_18
REMARK    9  A    between atoms: C_20  and  N_21
REMARK   10  A    between atoms: N_21  and  C_22
REMARK   11  A    between atoms: C_26  and  C_33
REMARK   12  A    between atoms: C_29  and  C_32
REMARK                            x       y       z     vdW  Elec       q    Type
REMARK                         _______ _______ _______ _____ _____    ______ ____
ROOT
ATOM      1  C   UNL     1       0.802  -1.825   1.306  0.00  0.00    +0.163 A 
ATOM      2  C   UNL     1       0.251  -2.673   0.358  0.00  0.00    +0.051 A 
ATOM      3  C   UNL     1       0.367  -4.043   0.505  0.00  0.00    -0.060 A 
ATOM      4  C   UNL     1       1.023  -4.571   1.601  0.00  0.00    +0.021 A 
ATOM      5  C   UNL     1       1.571  -3.730   2.554  0.00  0.00    +0.063 A 
ATOM      6  C   UNL     1       1.462  -2.356   2.409  0.00  0.00    +0.176 A 
ATOM      7 BR   UNL     1       2.466  -4.456   4.053  0.00  0.00    -0.046 Br
ENDROOT
BRANCH   1   8
ATOM      8  O   UNL     1       0.693  -0.477   1.160  0.00  0.00    -0.489 OA
BRANCH   8  10
ATOM      9  C   UNL     1      -0.019   1.526   0.010  0.00  0.00    +0.048 C 
ATOM     10  C   UNL     1       0.002  -0.004   0.002  0.00  0.00    +0.226 C 
ENDBRANCH   8  10
ENDBRANCH   1   8
BRANCH   6  11
ATOM     11  O   UNL     1       2.000  -1.528   3.345  0.00  0.00    -0.483 OA
BRANCH  11  12
ATOM     12  C   UNL     1       1.160  -1.151   4.438  0.00  0.00    +0.264 C 
BRANCH  12  13
ATOM     13  C   UNL     1       1.920  -0.239   5.365  0.00  0.00    -0.010 A 
ATOM     14  C   UNL     1       2.647  -0.770   6.415  0.00  0.00    +0.007 A 
ATOM     15  C   UNL     1       3.348   0.067   7.263  0.00  0.00    +0.004 A 
ATOM     16  C   UNL     1       3.315   1.435   7.067  0.00  0.00    -0.050 A 
ATOM     17  C   UNL     1       2.584   1.966   6.021  0.00  0.00    +0.004 A 
ATOM     18  C   UNL     1       1.887   1.129   5.170  0.00  0.00    +0.007 A 
ATOM     19  C   UNL     1       4.076   2.348   7.994  0.00  0.00    +0.044 C 
ENDBRANCH  12  13
ENDBRANCH  11  12
ENDBRANCH   6  11
BRANCH   3  20
ATOM     20  C   UNL     1      -0.227  -4.963  -0.530  0.00  0.00    -0.046 C 
BRANCH  20  21
ATOM     21  N   UNL     1      -1.614  -5.282  -0.163  0.00  0.00    +0.385 N 
ATOM     22  H   UNL     1      -1.628  -5.777   0.819  0.00  0.00    -0.085 HD
ATOM     23  H   UNL     1      -2.203  -4.354  -0.115  0.00  0.00    -0.085 HD
BRANCH  21  24
ATOM     24  C   UNL     1      -2.227  -6.179  -1.152  0.00  0.00    -0.067 C 
ATOM     25  C   UNL     1      -1.426  -7.481  -1.225  0.00  0.00    -0.009 C 
ATOM     26  C   UNL     1      -2.065  -8.415  -2.254  0.00  0.00    -0.011 C 
ATOM     27  C   UNL     1      -2.064  -7.738  -3.627  0.00  0.00    +0.010 C 
ATOM     28  C   UNL     1      -2.865  -6.436  -3.554  0.00  0.00    -0.033 C 
ATOM     29  C   UNL     1      -2.226  -5.502  -2.524  0.00  0.00    -0.006 C 
ATOM     30  C   UNL     1      -4.304  -6.745  -3.138  0.00  0.00    +0.013 C 
ATOM     31  C   UNL     1      -4.305  -7.422  -1.766  0.00  0.00    -0.033 C 
ATOM     32  C   UNL     1      -3.505  -8.724  -1.839  0.00  0.00    +0.010 C 
ATOM     33  C   UNL     1      -3.667  -6.488  -0.736  0.00  0.00    -0.006 C 
ATOM     34  C   UNL     1      -5.745  -7.731  -1.350  0.00  0.00    +0.011 C 
ATOM     35  C   UNL     1      -2.864  -5.760  -4.926  0.00  0.00    +0.011 C 
ENDBRANCH  21  24
ENDBRANCH  20  21
ENDBRANCH   3  20
TORSDOF 8
