REMARK  Name = ZINC39696325
REMARK  9 active torsions:
REMARK  status: ('A' for Active; 'I' for Inactive)
REMARK    1  A    between atoms: C_1  and  C_2
REMARK    2  A    between atoms: C_2  and  C_3
REMARK    3  A    between atoms: C_6  and  C_9
REMARK    4  A    between atoms: C_9  and  C_11
REMARK    5  A    between atoms: C_9  and  N_12
REMARK    6  A    between atoms: C_13  and  C_15
REMARK    7  A    between atoms: C_26  and  C_28
REMARK    8  A    between atoms: C_30  and  C_34
REMARK    9  A    between atoms: N_31  and  C_33
REMARK                            x       y       z     vdW  Elec       q    Type
REMARK                         _______ _______ _______ _____ _____    ______ ____
ROOT
ATOM      1  C   UNL     1       5.888  -0.338  -6.233  0.00  0.00    +0.100 C 
ATOM      2  C   UNL     1       6.961  -1.032  -5.365  0.00  0.00    +0.121 C 
ATOM      3  N   UNL     1       7.647  -1.964  -6.291  0.00  0.00    -0.295 N 
ATOM      4  C   UNL     1       7.750  -1.210  -7.563  0.00  0.00    +0.115 C 
ATOM      5  C   UNL     1       6.412  -0.454  -7.675  0.00  0.00    -0.004 C 
ATOM      6  C   UNL     1       6.637   0.934  -8.268  0.00  0.00    -0.010 C 
ATOM      7  C   UNL     1       7.101   0.794  -9.720  0.00  0.00    -0.082 C 
ATOM      8  N   UNL     1       6.085   0.069 -10.493  0.00  0.00    +0.379 N 
ATOM      9  C   UNL     1       5.942  -1.297  -9.974  0.00  0.00    -0.082 C 
ATOM     10  C   UNL     1       5.429  -1.245  -8.532  0.00  0.00    -0.010 C 
ATOM     11  C   UNL     1       8.079  -3.215  -6.034  0.00  0.00    +0.267 C 
ATOM     12  O   UNL     1       8.630  -3.858  -6.907  0.00  0.00    -0.268 OA
ATOM     13  H   UNL     1       5.202   0.550 -10.419  0.00  0.00    -0.086 HD
ATOM     14  H   UNL     1       6.365   0.031 -11.462  0.00  0.00    -0.086 HD
ENDROOT
BRANCH  11  15
ATOM     15  C   UNL     1       7.885  -3.803  -4.693  0.00  0.00    +0.147 A 
ATOM     16  C   UNL     1       8.287  -5.093  -4.273  0.00  0.00    +0.057 A 
ATOM     17  C   UNL     1       7.902  -5.188  -2.979  0.00  0.00    +0.037 A 
ATOM     18  N   UNL     1       7.306  -4.022  -2.652  0.00  0.00    -0.271 N 
ATOM     19  N   UNL     1       7.309  -3.224  -3.659  0.00  0.00    -0.167 NA
ATOM     20  C   UNL     1       6.743  -3.709  -1.337  0.00  0.00    +0.172 C 
ATOM     21  C   UNL     1       8.101  -6.376  -2.073  0.00  0.00    +0.065 C 
ENDBRANCH  11  15
BRANCH   1  23
ATOM     22  N   UNL     1       3.415  -0.362  -6.263  0.00  0.00    -0.308 N 
ATOM     23  C   UNL     1       4.564  -1.046  -6.098  0.00  0.00    +0.219 C 
ATOM     24  O   UNL     1       4.534  -2.231  -5.839  0.00  0.00    -0.275 OA
ATOM     25  H   UNL     1       3.439   0.585  -6.470  0.00  0.00    +0.149 HD
BRANCH  22  26
ATOM     26  C   UNL     1       2.128  -1.050  -6.131  0.00  0.00    +0.100 C 
ATOM     27  C   UNL     1       1.720  -1.091  -4.657  0.00  0.00    +0.033 C 
BRANCH  26  31
ATOM     28  C   UNL     1      -0.845   1.045  -8.371  0.00  0.00    -0.048 A 
ATOM     29  C   UNL     1      -0.827  -0.338  -8.370  0.00  0.00    +0.004 A 
ATOM     30  C   UNL     1       0.135  -1.016  -7.645  0.00  0.00    +0.006 A 
ATOM     31  C   UNL     1       1.080  -0.311  -6.922  0.00  0.00    -0.027 A 
ATOM     32  C   UNL     1       1.062   1.071  -6.924  0.00  0.00    +0.006 A 
ATOM     33  C   UNL     1       0.103   1.749  -7.652  0.00  0.00    +0.004 A 
BRANCH  28  35
ATOM     34  C   UNL     1      -1.379   2.038 -10.580  0.00  0.00    +0.009 C 
ATOM     35  C   UNL     1      -1.894   1.784  -9.162  0.00  0.00    +0.032 C 
ENDBRANCH  28  35
ENDBRANCH  26  31
ENDBRANCH  22  26
ENDBRANCH   1  23
TORSDOF 5
