REMARK  Name = ZINC06142202
REMARK  19 active torsions:
REMARK  status: ('A' for Active; 'I' for Inactive)
REMARK    1  A    between atoms: C_1  and  C_2
REMARK    2  A    between atoms: C_2  and  O_3
REMARK    3  A    between atoms: O_3  and  C_4
REMARK    4  A    between atoms: C_4  and  C_6
REMARK    5  A    between atoms: C_7  and  C_34
REMARK    6  A    between atoms: C_8  and  C_33
REMARK    7  A    between atoms: C_10  and  N_11
REMARK    8  A    between atoms: C_12  and  C_14
REMARK    9  A    between atoms: C_14  and  C_15
REMARK   10  A    between atoms: C_15  and  C_16
REMARK   11  A    between atoms: C_16  and  C_17
REMARK   12  A    between atoms: C_17  and  C_18
REMARK   13  A    between atoms: N_20  and  C_21
REMARK   14  A    between atoms: C_22  and  C_28
REMARK   15  A    between atoms: C_23  and  C_27
REMARK   16  A    between atoms: C_24  and  C_26
REMARK   17  A    between atoms: C_28  and  O_30
REMARK   18  A    between atoms: O_30  and  C_31
REMARK   19  A    between atoms: C_31  and  C_32
REMARK                            x       y       z     vdW  Elec       q    Type
REMARK                         _______ _______ _______ _____ _____    ______ ____
ROOT
ATOM      1  C   UNL     1      -0.753   1.593  -1.232  0.00  0.00    +0.010 C 
ENDROOT
BRANCH   1   2
ATOM      2  C   UNL     1      -0.013   1.086   0.008  0.00  0.00    +0.096 C 
BRANCH   2   4
ATOM      3  N   UNL     1      -0.242   1.246   2.466  0.00  0.00    -0.279 N 
ATOM      4  C   UNL     1      -0.718   1.572   1.248  0.00  0.00    +0.218 C 
ATOM      5  O   UNL     1      -1.714   2.256   1.150  0.00  0.00    -0.275 OA
ATOM      6  H   UNL     1       0.555   0.699   2.544  0.00  0.00    +0.155 HD
BRANCH   3  11
ATOM      7  C   UNL     1      -0.555   1.464   4.937  0.00  0.00    +0.091 A 
ATOM      8  C   UNL     1      -1.416   2.057   5.933  0.00  0.00    -0.025 A 
ATOM      9  C   UNL     1      -2.463   2.776   5.491  0.00  0.00    -0.008 A 
ATOM     10  S   UNL     1      -2.310   2.678   3.720  0.00  0.00    -0.078 S 
ATOM     11  C   UNL     1      -0.890   1.693   3.606  0.00  0.00    +0.086 A 
ATOM     12  C   UNL     1      -3.511   3.496   6.301  0.00  0.00    +0.052 C 
ATOM     13  C   UNL     1      -1.152   1.877   7.406  0.00  0.00    +0.045 C 
BRANCH   7  14
ATOM     14  C   UNL     1       0.612   0.662   5.308  0.00  0.00    +0.342 C 
ATOM     15  O   UNL     1       1.694   1.197   5.462  0.00  0.00    -0.245 OA
BRANCH  14  16
ATOM     16  O   UNL     1       0.488  -0.670   5.480  0.00  0.00    -0.461 OA
BRANCH  16  18
ATOM     17  C   UNL     1       1.353  -2.887   5.997  0.00  0.00    +0.048 C 
ATOM     18  C   UNL     1       1.687  -1.401   5.848  0.00  0.00    +0.229 C 
ENDBRANCH  16  18
ENDBRANCH  14  16
ENDBRANCH   7  14
ENDBRANCH   3  11
ENDBRANCH   2   4
ENDBRANCH   1   2
BRANCH   1  19
ATOM     19  C   UNL     1      -0.037   1.099  -2.490  0.00  0.00    +0.010 C 
BRANCH  19  20
ATOM     20  C   UNL     1      -0.777   1.606  -3.730  0.00  0.00    +0.096 C 
BRANCH  20  21
ATOM     21  C   UNL     1      -0.071   1.120  -4.970  0.00  0.00    +0.218 C 
ATOM     22  O   UNL     1       0.925   0.436  -4.872  0.00  0.00    -0.275 OA
ATOM     23  N   UNL     1      -0.548   1.446  -6.188  0.00  0.00    -0.279 N 
ATOM     24  H   UNL     1      -1.345   1.993  -6.266  0.00  0.00    +0.155 HD
BRANCH  23  25
ATOM     25  C   UNL     1       0.101   0.999  -7.328  0.00  0.00    +0.086 A 
ATOM     26  C   UNL     1      -0.234   1.228  -8.659  0.00  0.00    +0.091 A 
ATOM     27  C   UNL     1       0.627   0.635  -9.655  0.00  0.00    -0.025 A 
ATOM     28  C   UNL     1       1.674  -0.084  -9.213  0.00  0.00    -0.008 A 
ATOM     29  S   UNL     1       1.530   0.027  -7.442  0.00  0.00    -0.078 S 
ATOM     30  C   UNL     1       2.721  -0.804 -10.023  0.00  0.00    +0.052 C 
ATOM     31  C   UNL     1       0.362   0.814 -11.128  0.00  0.00    +0.045 C 
BRANCH  26  32
ATOM     32  C   UNL     1      -1.402   2.029  -9.030  0.00  0.00    +0.342 C 
ATOM     33  O   UNL     1      -1.291   3.230  -9.186  0.00  0.00    -0.245 OA
BRANCH  32  34
ATOM     34  O   UNL     1      -2.601   1.435  -9.200  0.00  0.00    -0.461 OA
BRANCH  34  35
ATOM     35  C   UNL     1      -3.715   2.291  -9.568  0.00  0.00    +0.229 C 
ATOM     36  C   UNL     1      -4.981   1.445  -9.714  0.00  0.00    +0.048 C 
ENDBRANCH  34  35
ENDBRANCH  32  34
ENDBRANCH  26  32
ENDBRANCH  23  25
ENDBRANCH  20  21
ENDBRANCH  19  20
ENDBRANCH   1  19
TORSDOF 13
