REMARK  Name = ZINC39867181
REMARK  10 active torsions:
REMARK  status: ('A' for Active; 'I' for Inactive)
REMARK    1  A    between atoms: C_1  and  C_2
REMARK    2  A    between atoms: C_2  and  C_36
REMARK    3  A    between atoms: C_4  and  N_10
REMARK    4  A    between atoms: C_6  and  C_8
REMARK    5  A    between atoms: C_6  and  C_9
REMARK    6  A    between atoms: C_11  and  C_13
REMARK    7  A    between atoms: C_13  and  C_14
REMARK    8  A    between atoms: C_14  and  C_15
REMARK    9  A    between atoms: C_15  and  C_16
REMARK   10  A    between atoms: C_24  and  C_26
REMARK                            x       y       z     vdW  Elec       q    Type
REMARK                         _______ _______ _______ _____ _____    ______ ____
ROOT
ATOM      1  C   UNL     1       7.464   0.010  -6.415  0.00  0.00    -0.013 A 
ATOM      2  C   UNL     1       8.808  -0.409  -6.021  0.00  0.00    +0.003 A 
ATOM      3  C   UNL     1       9.309  -1.486  -5.284  0.00  0.00    +0.010 A 
ATOM      4  C   UNL     1      10.655  -1.604  -5.085  0.00  0.00    +0.001 A 
ATOM      5  C   UNL     1      11.530  -0.662  -5.608  0.00  0.00    +0.002 A 
ATOM      6  C   UNL     1      11.059   0.408  -6.338  0.00  0.00    +0.026 A 
ATOM      7  C   UNL     1       9.693   0.549  -6.554  0.00  0.00    +0.047 A 
ATOM      8  N   UNL     1       8.935   1.483  -7.224  0.00  0.00    -0.353 N 
ATOM      9  C   UNL     1       7.602   1.149  -7.140  0.00  0.00    +0.069 A 
ATOM     10  H   UNL     1       9.288   2.258  -7.688  0.00  0.00    +0.166 HD
ENDROOT
BRANCH   9  11
ATOM     11  C   UNL     1       6.492   1.914  -7.744  0.00  0.00    +0.088 A 
ATOM     12  C   UNL     1       6.663   3.285  -8.003  0.00  0.00    +0.030 A 
ATOM     13  C   UNL     1       5.647   4.002  -8.560  0.00  0.00    +0.012 A 
ATOM     14  C   UNL     1       4.443   3.332  -8.860  0.00  0.00    +0.000 A 
ATOM     15  C   UNL     1       3.358   4.011  -9.435  0.00  0.00    +0.010 A 
ATOM     16  C   UNL     1       2.210   3.333  -9.713  0.00  0.00    +0.001 A 
ATOM     17  C   UNL     1       2.097   1.973  -9.434  0.00  0.00    +0.002 A 
ATOM     18  C   UNL     1       3.130   1.283  -8.876  0.00  0.00    +0.028 A 
ATOM     19  C   UNL     1       4.332   1.948  -8.575  0.00  0.00    +0.072 A 
ATOM     20  N   UNL     1       5.362   1.294  -8.033  0.00  0.00    -0.245 NA
ENDBRANCH   9  11
BRANCH   1  21
ATOM     21  C   UNL     1       6.173  -0.692  -6.084  0.00  0.00    +0.038 C 
BRANCH  21  22
ATOM     22  C   UNL     1       5.623  -0.153  -4.762  0.00  0.00    +0.014 C 
BRANCH  22  23
ATOM     23  C   UNL     1       4.312  -0.866  -4.426  0.00  0.00    +0.096 C 
BRANCH  23  25
ATOM     24  N   UNL     1       2.615  -0.819  -2.626  0.00  0.00    -0.313 N 
ATOM     25  C   UNL     1       3.770  -0.334  -3.123  0.00  0.00    +0.213 C 
ATOM     26  O   UNL     1       4.374   0.530  -2.523  0.00  0.00    -0.276 OA
ATOM     27  H   UNL     1       2.133  -1.510  -3.106  0.00  0.00    +0.149 HD
BRANCH  24  31
ATOM     28  C   UNL     1      -0.019   1.528   0.010  0.00  0.00    -0.010 C 
ATOM     29  C   UNL     1       0.002  -0.004   0.002  0.00  0.00    -0.072 C 
ATOM     30  C   UNL     1       0.573  -0.505  -1.321  0.00  0.00    +0.009 C 
ATOM     31  C   UNL     1       2.088  -0.301  -1.357  0.00  0.00    +0.070 C 
ATOM     32  C   UNL     1       2.703  -1.086  -0.198  0.00  0.00    +0.009 C 
ATOM     33  C   UNL     1       2.147  -0.590   1.133  0.00  0.00    -0.072 C 
ATOM     34  N   UNL     1       0.697  -0.529   1.164  0.00  0.00    +0.386 N 
ATOM     35  C   UNL     1       2.769   0.766   1.481  0.00  0.00    -0.010 C 
ATOM     36  C   UNL     1       2.600  -1.589   2.223  0.00  0.00    -0.010 C 
ATOM     37  C   UNL     1      -1.468  -0.478   0.079  0.00  0.00    -0.010 C 
ATOM     38  H   UNL     1       0.416   0.021   1.982  0.00  0.00    -0.084 HD
ATOM     39  H   UNL     1       0.341  -1.472   1.351  0.00  0.00    -0.084 HD
ENDBRANCH  24  31
ENDBRANCH  23  25
ENDBRANCH  22  23
ENDBRANCH  21  22
ENDBRANCH   1  21
TORSDOF 6
