REMARK  Name = ZINC57641909
REMARK  12 active torsions:
REMARK  status: ('A' for Active; 'I' for Inactive)
REMARK    1  A    between atoms: C_1  and  C_2
REMARK    2  A    between atoms: C_2  and  C_3
REMARK    3  A    between atoms: C_3  and  C_5
REMARK    4  A    between atoms: C_3  and  N_18
REMARK    5  A    between atoms: N_9  and  C_10
REMARK    6  A    between atoms: C_10  and  C_11
REMARK    7  A    between atoms: N_18  and  C_19
REMARK    8  A    between atoms: N_18  and  C_26
REMARK    9  A    between atoms: C_19  and  C_20
REMARK   10  A    between atoms: C_26  and  C_27
REMARK   11  A    between atoms: C_30  and  C_40
REMARK   12  A    between atoms: C_32  and  C_39
REMARK                            x       y       z     vdW  Elec       q    Type
REMARK                         _______ _______ _______ _____ _____    ______ ____
ROOT
ATOM      1  N   UNL     1      -2.086   0.113   1.471  0.00  0.00    -0.284 NA
ENDROOT
BRANCH   1   2
ATOM      2  C   UNL     1      -1.811  -0.550   0.189  0.00  0.00    +0.127 C 
BRANCH   2   3
ATOM      3  C   UNL     1      -2.711   0.022  -0.876  0.00  0.00    +0.169 A 
ATOM      4  N   UNL     1      -3.996   0.260  -0.770  0.00  0.00    -0.112 NA
ATOM      5  N   UNL     1      -4.404   0.747  -1.891  0.00  0.00    -0.023 NA
ATOM      6  N   UNL     1      -3.413   0.827  -2.709  0.00  0.00    -0.044 NA
ATOM      7  N   UNL     1      -2.350   0.394  -2.118  0.00  0.00    -0.223 N 
BRANCH   7   8
ATOM      8  C   UNL     1      -1.005   0.318  -2.693  0.00  0.00    +0.182 C 
BRANCH   8   9
ATOM      9  C   UNL     1      -0.865  -0.962  -3.477  0.00  0.00    -0.026 A 
ATOM     10  C   UNL     1      -0.417  -2.110  -2.850  0.00  0.00    +0.008 A 
ATOM     11  C   UNL     1      -0.289  -3.284  -3.568  0.00  0.00    +0.038 A 
ATOM     12  C   UNL     1      -0.609  -3.310  -4.915  0.00  0.00    +0.123 A 
ATOM     13  C   UNL     1      -1.057  -2.159  -5.541  0.00  0.00    +0.038 A 
ATOM     14  C   UNL     1      -1.190  -0.987  -4.820  0.00  0.00    +0.008 A 
ATOM     15  F   UNL     1      -0.484  -4.457  -5.618  0.00  0.00    -0.205 F 
ENDBRANCH   8   9
ENDBRANCH   7   8
ENDBRANCH   2   3
BRANCH   2  17
ATOM     16  C   UNL     1      -1.080  -2.654   1.321  0.00  0.00    +0.006 C 
ATOM     17  C   UNL     1      -2.073  -2.052   0.325  0.00  0.00    +0.023 C 
ENDBRANCH   2  17
ENDBRANCH   1   2
BRANCH   1  18
ATOM     18  C   UNL     1      -3.511   0.020   1.817  0.00  0.00    +0.120 C 
BRANCH  18  19
ATOM     19  C   UNL     1      -3.692   0.314   3.284  0.00  0.00    -0.033 A 
ATOM     20  C   UNL     1      -3.520  -0.692   4.217  0.00  0.00    +0.005 A 
ATOM     21  C   UNL     1      -3.686  -0.422   5.562  0.00  0.00    +0.000 A 
ATOM     22  C   UNL     1      -4.023   0.853   5.975  0.00  0.00    +0.000 A 
ATOM     23  C   UNL     1      -4.194   1.859   5.042  0.00  0.00    +0.000 A 
ATOM     24  C   UNL     1      -4.024   1.590   3.697  0.00  0.00    +0.005 A 
ENDBRANCH  18  19
ENDBRANCH   1  18
BRANCH   1  25
ATOM     25  C   UNL     1      -1.641   1.512   1.445  0.00  0.00    +0.126 C 
BRANCH  25  26
ATOM     26  C   UNL     1      -0.143   1.566   1.603  0.00  0.00    +0.032 A 
ATOM     27  C   UNL     1       0.648   1.668   0.506  0.00  0.00    +0.020 A 
ATOM     28  C   UNL     1       2.099   1.718   0.693  0.00  0.00    +0.002 A 
ATOM     29  C   UNL     1       2.966   1.824  -0.399  0.00  0.00    -0.041 A 
ATOM     30  C   UNL     1       4.316   1.869  -0.191  0.00  0.00    +0.007 A 
ATOM     31  C   UNL     1       4.834   1.811   1.096  0.00  0.00    -0.048 A 
ATOM     32  C   UNL     1       3.999   1.706   2.187  0.00  0.00    +0.029 A 
ATOM     33  C   UNL     1       2.621   1.659   1.999  0.00  0.00    +0.050 A 
ATOM     34  N   UNL     1       1.762   1.556   3.072  0.00  0.00    -0.322 N 
ATOM     35  H   UNL     1       2.124   1.516   3.972  0.00  0.00    +0.169 HD
ATOM     36  C   UNL     1       0.431   1.516   2.891  0.00  0.00    +0.254 A 
ATOM     37  O   UNL     1      -0.299   1.429   3.864  0.00  0.00    -0.268 OA
ATOM     38  C   UNL     1       6.326   1.861   1.301  0.00  0.00    +0.044 C 
ATOM     39  C   UNL     1       2.414   1.887  -1.800  0.00  0.00    +0.044 C 
ENDBRANCH  25  26
ENDBRANCH   1  25
TORSDOF 9
