REMARK  Name = ZINC35806699
REMARK  12 active torsions:
REMARK  status: ('A' for Active; 'I' for Inactive)
REMARK    1  A    between atoms: C_1  and  C_2
REMARK    2  A    between atoms: C_4  and  O_36
REMARK    3  A    between atoms: C_14  and  C_15
REMARK    4  A    between atoms: C_14  and  O_25
REMARK    5  A    between atoms: C_15  and  C_17
REMARK    6  A    between atoms: C_17  and  O_18
REMARK    7  A    between atoms: O_18  and  C_19
REMARK    8  A    between atoms: C_19  and  C_21
REMARK    9  A    between atoms: C_21  and  C_22
REMARK   10  A    between atoms: C_21  and  C_23
REMARK   11  A    between atoms: C_21  and  C_24
REMARK   12  A    between atoms: C_34  and  C_35
REMARK                            x       y       z     vdW  Elec       q    Type
REMARK                         _______ _______ _______ _____ _____    ______ ____
ROOT
ATOM      1  C   UNL     1      -0.166   1.625  -0.882  0.00  0.00    +0.015 C 
ATOM      2  C   UNL     1      -0.023   0.102  -0.871  0.00  0.00    +0.009 C 
ATOM      3  C   UNL     1       0.842  -0.398  -2.031  0.00  0.00    +0.041 C 
ATOM      4  C   UNL     1       2.305  -0.030  -1.806  0.00  0.00    +0.120 C 
ATOM      5  C   UNL     1       2.804  -0.736  -0.538  0.00  0.00    +0.035 C 
ATOM      6  C   UNL     1       2.002  -0.217   0.655  0.00  0.00    -0.000 C 
ATOM      7  C   UNL     1       0.526  -0.414   0.470  0.00  0.00    +0.002 C 
ATOM      8  C   UNL     1       0.135  -1.904   0.470  0.00  0.00    +0.008 C 
ATOM      9  C   UNL     1      -1.281  -1.904  -0.150  0.00  0.00    +0.043 C 
ATOM     10  C   UNL     1      -1.396  -0.613  -0.983  0.00  0.00    +0.133 C 
ATOM     11  C   UNL     1       2.469  -0.906   1.939  0.00  0.00    +0.008 C 
ATOM     12  C   UNL     1       3.933  -0.550   2.214  0.00  0.00    +0.032 C 
ATOM     13  C   UNL     1       4.745  -0.920   0.987  0.00  0.00    -0.056 C 
ATOM     14  C   UNL     1       5.821  -1.680   1.133  0.00  0.00    +0.051 C 
ATOM     15  C   UNL     1       6.620  -2.077  -0.037  0.00  0.00    +0.179 C 
ATOM     16  O   UNL     1       7.631  -2.740   0.096  0.00  0.00    -0.288 OA
ATOM     17  C   UNL     1       6.168  -1.652  -1.373  0.00  0.00    +0.047 C 
ATOM     18  C   UNL     1       5.095  -0.887  -1.494  0.00  0.00    -0.012 C 
ATOM     19  C   UNL     1       4.289  -0.410  -0.350  0.00  0.00    +0.013 C 
ATOM     20  C   UNL     1       4.431   1.113  -0.329  0.00  0.00    +0.020 C 
ENDROOT
BRANCH  10  21
ATOM     21  C   UNL     1      -1.687  -0.951  -2.423  0.00  0.00    +0.202 C 
ATOM     22  O   UNL     1      -1.411  -2.044  -2.855  0.00  0.00    -0.291 OA
BRANCH  21  23
ATOM     23  C   UNL     1      -2.323   0.077  -3.323  0.00  0.00    +0.309 C 
BRANCH  23  24
ATOM     24  O   UNL     1      -2.497  -0.477  -4.629  0.00  0.00    -0.456 OA
BRANCH  24  25
ATOM     25  C   UNL     1      -3.055   0.316  -5.558  0.00  0.00    +0.313 C 
ATOM     26  O   UNL     1      -3.385   1.442  -5.271  0.00  0.00    -0.250 OA
BRANCH  25  27
ATOM     27  C   UNL     1      -3.270  -0.199  -6.958  0.00  0.00    +0.059 C 
ATOM     28  C   UNL     1      -3.916   0.894  -7.810  0.00  0.00    +0.022 C 
ATOM     29  C   UNL     1      -1.923  -0.593  -7.568  0.00  0.00    +0.022 C 
ATOM     30  C   UNL     1      -4.188  -1.423  -6.916  0.00  0.00    +0.022 C 
ENDBRANCH  25  27
ENDBRANCH  24  25
ENDBRANCH  23  24
ENDBRANCH  21  23
ENDBRANCH  10  21
BRANCH  10  31
ATOM     31  O   UNL     1      -2.429   0.221  -0.455  0.00  0.00    -0.380 OA
ATOM     32  H   UNL     1      -3.312  -0.171  -0.497  0.00  0.00    +0.211 HD
ENDBRANCH  10  31
BRANCH   4  33
ATOM     33  O   UNL     1       2.424   1.385  -1.647  0.00  0.00    -0.391 OA
ATOM     34  H   UNL     1       2.118   1.893  -2.411  0.00  0.00    +0.210 HD
ENDBRANCH   4  33
TORSDOF 7
