REMARK  Name = ZINC09424988
REMARK  12 active torsions:
REMARK  status: ('A' for Active; 'I' for Inactive)
REMARK    1  A    between atoms: C_1  and  C_2
REMARK    2  A    between atoms: C_2  and  N_61
REMARK    3  A    between atoms: C_3  and  C_4
REMARK    4  A    between atoms: C_3  and  N_61
REMARK    5  A    between atoms: C_5  and  C_6
REMARK    6  A    between atoms: C_5  and  N_61
REMARK    7  A    between atoms: C_6  and  N_7
REMARK    8  A    between atoms: C_8  and  C_27
REMARK    9  A    between atoms: C_10  and  C_15
REMARK   10  A    between atoms: C_11  and  O_14
REMARK   11  A    between atoms: C_15  and  C_17
REMARK   12  A    between atoms: C_31  and  O_33
REMARK                            x       y       z     vdW  Elec       q    Type
REMARK                         _______ _______ _______ _____ _____    ______ ____
ROOT
ATOM      1  N   UNL     1       7.293   1.892  -0.420  0.00  0.00    -0.285 N 
ATOM      2  C   UNL     1       5.998   1.212  -0.537  0.00  0.00    +0.144 C 
ATOM      3  C   UNL     1       6.295  -0.269  -0.508  0.00  0.00    +0.071 C 
ATOM      4  C   UNL     1       7.637  -0.396  -0.381  0.00  0.00    +0.188 C 
ATOM      5  C   UNL     1       8.249   0.949  -0.332  0.00  0.00    +0.282 C 
ATOM      6  O   UNL     1       9.439   1.169  -0.224  0.00  0.00    -0.267 OA
ENDROOT
BRANCH   2   7
ATOM      7  C   UNL     1       5.333   1.582  -1.837  0.00  0.00    -0.019 A 
ATOM      8  C   UNL     1       6.077   1.639  -3.002  0.00  0.00    +0.006 A 
ATOM      9  C   UNL     1       5.468   1.973  -4.197  0.00  0.00    +0.004 A 
ATOM     10  C   UNL     1       4.117   2.260  -4.230  0.00  0.00    +0.045 A 
ATOM     11  C   UNL     1       3.370   2.208  -3.062  0.00  0.00    +0.117 A 
ATOM     12  C   UNL     1       3.982   1.868  -1.864  0.00  0.00    +0.051 A 
BRANCH  11  13
ATOM     13  O   UNL     1       2.041   2.491  -3.091  0.00  0.00    -0.507 OA
ATOM     14  H   UNL     1       1.834   3.425  -2.949  0.00  0.00    +0.292 HD
ENDBRANCH  11  13
ENDBRANCH   2   7
BRANCH   4  15
ATOM     15  O   UNL     1       8.310  -1.567  -0.312  0.00  0.00    -0.502 OA
ATOM     16  H   UNL     1       9.289  -1.384  -0.220  0.00  0.00    +0.292 HD
ENDBRANCH   4  15
BRANCH   3  17
ATOM     17  C   UNL     1       5.318  -1.359  -0.595  0.00  0.00    +0.195 C 
ATOM     18  O   UNL     1       5.317  -2.100  -1.560  0.00  0.00    -0.287 OA
BRANCH  17  19
ATOM     19  C   UNL     1       4.336  -1.558   0.489  0.00  0.00    +0.026 A 
ATOM     20  C   UNL     1       4.389  -0.763   1.638  0.00  0.00    +0.015 A 
ATOM     21  C   UNL     1       3.472  -0.951   2.648  0.00  0.00    +0.050 A 
ATOM     22  C   UNL     1       2.492  -1.930   2.530  0.00  0.00    +0.162 A 
ATOM     23  C   UNL     1       2.431  -2.724   1.387  0.00  0.00    +0.163 A 
ATOM     24  C   UNL     1       3.350  -2.541   0.370  0.00  0.00    +0.061 A 
ATOM     25  O   UNL     1       1.473  -3.681   1.253  0.00  0.00    -0.485 OA
ATOM     26  C   UNL     1       0.802  -4.091   2.450  0.00  0.00    +0.270 C 
ATOM     27  C   UNL     1       0.408  -2.832   3.234  0.00  0.00    +0.270 C 
ATOM     28  O   UNL     1       1.602  -2.104   3.543  0.00  0.00    -0.485 OA
ENDBRANCH  17  19
ENDBRANCH   3  17
BRANCH   1  29
ATOM     29  C   UNL     1       7.508   3.341  -0.401  0.00  0.00    +0.090 C 
BRANCH  29  30
ATOM     30  C   UNL     1       7.453   3.846   1.042  0.00  0.00    -0.060 C 
BRANCH  30  31
ATOM     31  N   UNL     1       7.692   5.305   1.046  0.00  0.00    +0.380 N 
ATOM     32  H   UNL     1       8.551   5.503   0.519  0.00  0.00    -0.082 HD
BRANCH  31  34
ATOM     33  C   UNL     1       5.259   5.727   1.155  0.00  0.00    -0.017 C 
ATOM     34  C   UNL     1       6.561   6.004   0.401  0.00  0.00    -0.082 C 
ENDBRANCH  31  34
BRANCH  31  35
ATOM     35  C   UNL     1       7.858   5.785   2.433  0.00  0.00    -0.082 C 
ATOM     36  C   UNL     1       8.368   7.228   2.398  0.00  0.00    -0.017 C 
ENDBRANCH  31  35
ENDBRANCH  30  31
ENDBRANCH  29  30
ENDBRANCH   1  29
TORSDOF 10
