REMARK  Name = ZINC36788284
REMARK  10 active torsions:
REMARK  status: ('A' for Active; 'I' for Inactive)
REMARK    1  A    between atoms: C_1  and  C_2
REMARK    2  A    between atoms: C_3  and  C_33
REMARK    3  A    between atoms: C_7  and  S_11
REMARK    4  A    between atoms: S_11  and  C_12
REMARK    5  A    between atoms: C_17  and  C_18
REMARK    6  A    between atoms: C_18  and  O_20
REMARK    7  A    between atoms: O_20  and  C_21
REMARK    8  A    between atoms: C_21  and  C_22
REMARK    9  A    between atoms: N_24  and  C_25
REMARK   10  A    between atoms: C_26  and  C_30
REMARK                            x       y       z     vdW  Elec       q    Type
REMARK                         _______ _______ _______ _____ _____    ______ ____
ROOT
ATOM      1  C   UNL     1      -0.106   1.016   4.676  0.00  0.00    +0.028 A 
ATOM      2  C   UNL     1       0.033  -0.247   5.242  0.00  0.00    +0.016 A 
ATOM      3  C   UNL     1      -0.011  -0.399   6.612  0.00  0.00    +0.001 A 
ATOM      4  C   UNL     1      -0.193   0.702   7.435  0.00  0.00    +0.001 A 
ATOM      5  C   UNL     1      -0.332   1.961   6.894  0.00  0.00    +0.016 A 
ATOM      6  C   UNL     1      -0.285   2.133   5.508  0.00  0.00    +0.073 A 
ENDROOT
BRANCH   6   7
ATOM      7  C   UNL     1      -0.427   3.477   4.923  0.00  0.00    +0.341 C 
ATOM      8  O   UNL     1      -0.390   3.622   3.717  0.00  0.00    -0.245 OA
BRANCH   7   9
ATOM      9  O   UNL     1      -0.598   4.547   5.725  0.00  0.00    -0.452 OA
BRANCH   9  10
ATOM     10  C   UNL     1      -0.730   5.820   5.090  0.00  0.00    +0.328 C 
BRANCH  10  11
ATOM     11  C   UNL     1      -0.912   6.888   6.138  0.00  0.00    +0.255 C 
ATOM     12  O   UNL     1      -0.928   6.588   7.313  0.00  0.00    -0.272 OA
ATOM     13  N   UNL     1      -1.057   8.176   5.769  0.00  0.00    -0.277 N 
ATOM     14  H   UNL     1      -1.045   8.416   4.829  0.00  0.00    +0.155 HD
BRANCH  13  15
ATOM     15  C   UNL     1      -1.225   9.158   6.733  0.00  0.00    +0.084 A 
ATOM     16  C   UNL     1      -1.393  10.522   6.540  0.00  0.00    +0.065 A 
ATOM     17  C   UNL     1      -1.548  11.328   7.730  0.00  0.00    +0.022 A 
ATOM     18  C   UNL     1      -1.510  10.662   8.899  0.00  0.00    +0.048 A 
ATOM     19  S   UNL     1      -1.278   8.970   8.399  0.00  0.00    -0.081 S 
BRANCH  16  20
ATOM     20  C   UNL     1      -1.414  11.114   5.200  0.00  0.00    +0.244 C 
ATOM     21  O   UNL     1      -1.280  10.406   4.219  0.00  0.00    -0.270 OA
ATOM     22  N   UNL     1      -1.580  12.444   5.053  0.00  0.00    -0.325 N 
ATOM     23  H   UNL     1      -1.686  13.009   5.834  0.00  0.00    +0.145 HD
ATOM     24  H   UNL     1      -1.593  12.836   4.166  0.00  0.00    +0.145 HD
ENDBRANCH  16  20
ENDBRANCH  13  15
ENDBRANCH  10  11
ENDBRANCH   9  10
ENDBRANCH   7   9
ENDBRANCH   6   7
BRANCH   1  25
ATOM     25  S   UNL     1      -0.051   1.214   2.926  0.00  0.00    -0.068 S 
BRANCH  25  32
ATOM     26  C   UNL     1       0.217   1.286   0.026  0.00  0.00    +0.045 C 
ATOM     27  C   UNL     1      -1.275   1.459  -0.094  0.00  0.00    -0.029 A 
ATOM     28  C   UNL     1      -1.852   1.561  -1.300  0.00  0.00    -0.008 A 
ATOM     29  S   UNL     1      -3.584   1.746  -0.920  0.00  0.00    -0.074 S 
ATOM     30  C   UNL     1      -3.487   1.681   0.849  0.00  0.00    +0.113 A 
ATOM     31  C   UNL     1      -2.106   1.510   1.096  0.00  0.00    +0.043 A 
ATOM     32  C   UNL     1      -1.739   1.421   2.467  0.00  0.00    +0.113 A 
ATOM     33  N   UNL     1      -2.681   1.495   3.394  0.00  0.00    -0.228 NA
ATOM     34  C   UNL     1      -3.957   1.650   3.089  0.00  0.00    +0.223 A 
ATOM     35  N   UNL     1      -4.358   1.749   1.836  0.00  0.00    -0.228 NA
ATOM     36  C   UNL     1      -1.193   1.528  -2.655  0.00  0.00    +0.052 C 
ENDBRANCH  25  32
ENDBRANCH   1  25
TORSDOF 8
