REMARK  Name = ZINC40057034
REMARK  6 active torsions:
REMARK  status: ('A' for Active; 'I' for Inactive)
REMARK    1  A    between atoms: C_1  and  C_2
REMARK    2  A    between atoms: C_4  and  C_37
REMARK    3  A    between atoms: C_13  and  C_31
REMARK    4  A    between atoms: C_21  and  S_23
REMARK    5  A    between atoms: S_23  and  C_24
REMARK    6  A    between atoms: C_24  and  C_25
REMARK                            x       y       z     vdW  Elec       q    Type
REMARK                         _______ _______ _______ _____ _____    ______ ____
ROOT
ATOM      1  C   UNL     1      -0.523   1.450   0.038  0.00  0.00    +0.044 C 
ATOM      2  C   UNL     1      -0.237  -0.029   0.015  0.00  0.00    -0.047 A 
ATOM      3  C   UNL     1      -0.233  -0.708  -1.195  0.00  0.00    +0.007 A 
ATOM      4  C   UNL     1       0.026  -2.049  -1.231  0.00  0.00    -0.036 A 
ATOM      5  C   UNL     1       0.288  -2.735  -0.045  0.00  0.00    +0.067 A 
ATOM      6  C   UNL     1       0.282  -2.060   1.186  0.00  0.00    +0.140 A 
ATOM      7  C   UNL     1       0.022  -0.690   1.195  0.00  0.00    +0.050 A 
ATOM      8  O   UNL     1       0.519  -2.692   2.358  0.00  0.00    -0.450 OA
ATOM      9  C   UNL     1       0.998  -3.951   2.351  0.00  0.00    +0.199 A 
ATOM     10  C   UNL     1       1.047  -4.715   1.219  0.00  0.00    +0.072 A 
ATOM     11  C   UNL     1       0.580  -4.191  -0.068  0.00  0.00    +0.199 A 
ATOM     12  O   UNL     1       0.444  -4.884  -1.061  0.00  0.00    -0.287 OA
ATOM     13  C   UNL     1       1.624  -6.042   1.591  0.00  0.00    +0.151 C 
ATOM     14  N   UNL     1       1.907  -5.967   3.033  0.00  0.00    -0.230 N 
ATOM     15  C   UNL     1       1.540  -4.744   3.467  0.00  0.00    +0.289 C 
ATOM     16  O   UNL     1       1.641  -4.353   4.614  0.00  0.00    -0.266 OA
ATOM     17  C   UNL     1       2.457  -6.979   3.812  0.00  0.00    +0.192 A 
ATOM     18  N   UNL     1       2.849  -8.196   3.471  0.00  0.00    -0.125 NA
ATOM     19  N   UNL     1       3.333  -9.002   4.312  0.00  0.00    -0.133 NA
ATOM     20  C   UNL     1       3.479  -8.678   5.589  0.00  0.00    +0.160 A 
ATOM     21  S   UNL     1       2.845  -7.004   5.559  0.00  0.00    -0.024 S 
ATOM     22  C   UNL     1       0.030  -2.784  -2.547  0.00  0.00    +0.044 C 
ENDROOT
BRANCH  13  23
ATOM     23  C   UNL     1       2.896  -6.290   0.821  0.00  0.00    -0.022 A 
ATOM     24  C   UNL     1       4.080  -5.713   1.240  0.00  0.00    +0.006 A 
ATOM     25  C   UNL     1       5.247  -5.941   0.534  0.00  0.00    +0.000 A 
ATOM     26  C   UNL     1       5.229  -6.746  -0.590  0.00  0.00    +0.000 A 
ATOM     27  C   UNL     1       4.045  -7.323  -1.008  0.00  0.00    +0.000 A 
ATOM     28  C   UNL     1       2.879  -7.099  -0.299  0.00  0.00    +0.006 A 
ENDBRANCH  13  23
BRANCH  20  29
ATOM     29  S   UNL     1       4.122  -9.623   6.931  0.00  0.00    -0.092 S 
BRANCH  29  30
ATOM     30  C   UNL     1       4.567 -11.211   6.176  0.00  0.00    +0.111 C 
BRANCH  30  31
ATOM     31  C   UNL     1       5.137 -12.125   7.229  0.00  0.00    -0.037 A 
ATOM     32  C   UNL     1       6.496 -12.123   7.484  0.00  0.00    +0.004 A 
ATOM     33  C   UNL     1       7.019 -12.962   8.451  0.00  0.00    +0.000 A 
ATOM     34  C   UNL     1       6.184 -13.803   9.162  0.00  0.00    +0.000 A 
ATOM     35  C   UNL     1       4.825 -13.805   8.907  0.00  0.00    +0.000 A 
ATOM     36  C   UNL     1       4.301 -12.963   7.944  0.00  0.00    +0.004 A 
ENDBRANCH  30  31
ENDBRANCH  29  30
ENDBRANCH  20  29
TORSDOF 4
