REMARK  Name = ZINC63140380
REMARK  12 active torsions:
REMARK  status: ('A' for Active; 'I' for Inactive)
REMARK    1  A    between atoms: C_1  and  C_2
REMARK    2  A    between atoms: C_2  and  N_3
REMARK    3  A    between atoms: N_3  and  C_4
REMARK    4  A    between atoms: N_3  and  C_6
REMARK    5  A    between atoms: C_4  and  C_5
REMARK    6  A    between atoms: C_6  and  C_7
REMARK    7  A    between atoms: C_7  and  C_8
REMARK    8  A    between atoms: C_8  and  N_9
REMARK    9  A    between atoms: C_29  and  C_31
REMARK   10  A    between atoms: C_36  and  O_37
REMARK   11  A    between atoms: O_37  and  C_38
REMARK   12  A    between atoms: C_38  and  C_39
REMARK                            x       y       z     vdW  Elec       q    Type
REMARK                         _______ _______ _______ _____ _____    ______ ____
ROOT
ATOM      1  N   UNL     1       2.555  -3.634   3.876  0.00  0.00    -0.291 N 
ATOM      2  C   UNL     1       4.029  -3.648   3.899  0.00  0.00    +0.203 C 
ATOM      3  C   UNL     1       4.492  -3.261   5.288  0.00  0.00    +0.234 C 
ATOM      4  O   UNL     1       5.404  -2.480   5.458  0.00  0.00    -0.274 OA
ATOM      5  N   UNL     1       3.830  -3.835   6.346  0.00  0.00    -0.279 N 
ATOM      6  C   UNL     1       2.818  -4.808   5.991  0.00  0.00    +0.167 C 
ATOM      7  C   UNL     1       1.919  -4.233   4.926  0.00  0.00    +0.237 C 
ATOM      8  O   UNL     1       0.710  -4.302   4.994  0.00  0.00    -0.274 OA
ATOM      9  C   UNL     1       2.041  -5.467   7.101  0.00  0.00    +0.065 C 
ATOM     10  C   UNL     1       2.339  -4.787   8.409  0.00  0.00    -0.034 C 
ATOM     11  C   UNL     1       1.566  -4.446   9.431  0.00  0.00    -0.001 A 
ATOM     12  C   UNL     1       0.130  -4.648   9.684  0.00  0.00    +0.010 A 
ATOM     13  C   UNL     1      -0.348  -4.152  10.856  0.00  0.00    +0.001 A 
ATOM     14  C   UNL     1       0.449  -3.483  11.791  0.00  0.00    +0.002 A 
ATOM     15  C   UNL     1       1.778  -3.258  11.642  0.00  0.00    +0.026 A 
ATOM     16  C   UNL     1       2.397  -3.736  10.450  0.00  0.00    +0.043 A 
ATOM     17  N   UNL     1       3.634  -3.669  10.061  0.00  0.00    -0.375 N 
ATOM     18  C   UNL     1       3.757  -4.346   8.764  0.00  0.00    +0.131 C 
ATOM     19  C   UNL     1       4.184  -3.369   7.678  0.00  0.00    +0.137 C 
ATOM     20  H   UNL     1       4.357  -3.241  10.546  0.00  0.00    +0.160 HD
ENDROOT
BRANCH  19  21
ATOM     21  C   UNL     1       5.673  -3.144   7.740  0.00  0.00    +0.017 A 
ATOM     22  C   UNL     1       6.174  -1.971   8.271  0.00  0.00    +0.009 A 
ATOM     23  C   UNL     1       7.539  -1.764   8.327  0.00  0.00    +0.001 A 
ATOM     24  C   UNL     1       8.408  -2.730   7.853  0.00  0.00    +0.004 A 
ATOM     25  C   UNL     1       7.912  -3.904   7.321  0.00  0.00    +0.046 A 
ATOM     26  C   UNL     1       6.542  -4.117   7.268  0.00  0.00    +0.125 A 
BRANCH  26  27
ATOM     27  O   UNL     1       6.052  -5.274   6.751  0.00  0.00    -0.492 OA
BRANCH  27  28
ATOM     28  C   UNL     1       7.005  -6.231   6.284  0.00  0.00    +0.225 C 
ATOM     29  C   UNL     1       6.272  -7.459   5.741  0.00  0.00    +0.048 C 
ENDBRANCH  27  28
ENDBRANCH  26  27
ENDBRANCH  19  21
BRANCH   1  30
ATOM     30  C   UNL     1       1.809  -3.003   2.784  0.00  0.00    +0.106 C 
BRANCH  30  31
ATOM     31  C   UNL     1       1.556  -1.532   3.122  0.00  0.00    +0.000 C 
BRANCH  31  32
ATOM     32  C   UNL     1       0.777  -0.874   1.982  0.00  0.00    -0.077 C 
BRANCH  32  33
ATOM     33  N   UNL     1       0.424   0.501   2.360  0.00  0.00    +0.379 N 
ATOM     34  H   UNL     1      -0.084   0.490   3.233  0.00  0.00    -0.082 HD
BRANCH  33  36
ATOM     35  C   UNL     1       1.289   2.692   3.031  0.00  0.00    -0.017 C 
ATOM     36  C   UNL     1       1.649   1.297   2.517  0.00  0.00    -0.082 C 
ENDBRANCH  33  36
BRANCH  33  37
ATOM     37  C   UNL     1      -0.417   1.097   1.313  0.00  0.00    -0.082 C 
ATOM     38  C   UNL     1      -1.760   0.366   1.260  0.00  0.00    -0.017 C 
ENDBRANCH  33  37
ENDBRANCH  32  33
ENDBRANCH  31  32
ENDBRANCH  30  31
ENDBRANCH   1  30
TORSDOF 9
