REMARK  Name = ZINC12181887
REMARK  6 active torsions:
REMARK  status: ('A' for Active; 'I' for Inactive)
REMARK    1  A    between atoms: C_1  and  C_2
REMARK    2  A    between atoms: C_10  and  C_13
REMARK    3  A    between atoms: C_18  and  C_19
REMARK    4  A    between atoms: C_18  and  N_65
REMARK    5  A    between atoms: N_21  and  C_22
REMARK    6  A    between atoms: C_22  and  C_23
REMARK                            x       y       z     vdW  Elec       q    Type
REMARK                         _______ _______ _______ _____ _____    ______ ____
ROOT
ATOM      1  C   UNL     1      -4.045  -0.010   1.577  0.00  0.00    +0.019 C 
ENDROOT
BRANCH   1  13
ATOM      2  C   UNL     1      -0.920   4.871   5.155  0.00  0.00    +0.044 C 
ATOM      3  C   UNL     1      -0.964   4.317   3.754  0.00  0.00    -0.050 A 
ATOM      4  C   UNL     1      -0.532   5.090   2.692  0.00  0.00    +0.007 A 
ATOM      5  C   UNL     1      -0.579   4.591   1.404  0.00  0.00    +0.046 A 
ATOM      6  C   UNL     1      -1.058   3.308   1.182  0.00  0.00    +0.123 A 
ATOM      7  C   UNL     1      -1.468   2.532   2.249  0.00  0.00    -0.022 A 
ATOM      8  C   UNL     1      -1.438   3.036   3.533  0.00  0.00    +0.008 A 
ATOM      9  C   UNL     1      -1.944   1.114   1.999  0.00  0.00    -0.038 C 
ATOM     10  C   UNL     1      -3.021   1.293  -0.178  0.00  0.00    -0.028 C 
ATOM     11  C   UNL     1      -2.463   2.638  -0.593  0.00  0.00    +0.188 C 
ATOM     12  O   UNL     1      -1.136   2.816  -0.085  0.00  0.00    -0.486 OA
ATOM     13  N   UNL     1      -3.239   1.185   1.280  0.00  0.00    +0.391 N 
ATOM     14  H   UNL     1      -3.748   2.017   1.601  0.00  0.00    -0.080 HD
BRANCH  11  15
ATOM     15  C   UNL     1      -2.433   2.719  -2.098  0.00  0.00    -0.002 A 
ATOM     16  C   UNL     1      -3.437   3.375  -2.785  0.00  0.00    +0.015 A 
ATOM     17  C   UNL     1      -3.380   3.430  -4.138  0.00  0.00    +0.045 A 
ATOM     18  S   UNL     1      -1.873   2.536  -4.481  0.00  0.00    -0.105 S 
ATOM     19  C   UNL     1      -1.418   2.155  -2.797  0.00  0.00    +0.052 A 
ENDBRANCH  11  15
ENDBRANCH   1  13
BRANCH   1  20
ATOM     20  C   UNL     1      -3.323  -1.266   1.163  0.00  0.00    +0.196 C 
ATOM     21  O   UNL     1      -2.187  -1.202   0.743  0.00  0.00    -0.278 OA
ATOM     22  N   UNL     1      -3.938  -2.461   1.261  0.00  0.00    -0.317 N 
ATOM     23  H   UNL     1      -4.847  -2.513   1.598  0.00  0.00    +0.149 HD
BRANCH  22  24
ATOM     24  C   UNL     1      -3.236  -3.682   0.859  0.00  0.00    +0.109 C 
BRANCH  24  25
ATOM     25  C   UNL     1      -4.152  -4.890   1.068  0.00  0.00    +0.024 C 
ATOM     26  C   UNL     1      -3.379  -6.176   0.767  0.00  0.00    +0.008 C 
ATOM     27  C   UNL     1      -4.318  -7.376   0.921  0.00  0.00    +0.019 C 
ATOM     28  C   UNL     1      -5.515  -7.204  -0.018  0.00  0.00    +0.108 C 
ATOM     29  N   UNL     1      -6.222  -5.959   0.311  0.00  0.00    -0.299 N 
ATOM     30  C   UNL     1      -5.353  -4.790   0.125  0.00  0.00    +0.113 C 
ATOM     31  C   UNL     1      -7.383  -5.837  -0.432  0.00  0.00    +0.218 A 
ATOM     32  N   UNL     1      -7.566  -4.755  -1.174  0.00  0.00    -0.223 NA
ATOM     33  C   UNL     1      -8.662  -4.610  -1.900  0.00  0.00    +0.116 A 
ATOM     34  C   UNL     1      -9.630  -5.602  -1.869  0.00  0.00    +0.039 A 
ATOM     35  C   UNL     1      -9.409  -6.718  -1.078  0.00  0.00    +0.116 A 
ATOM     36  N   UNL     1      -8.288  -6.804  -0.380  0.00  0.00    -0.223 NA
ENDBRANCH  24  25
ENDBRANCH  22  24
ENDBRANCH   1  20
TORSDOF 5
