REMARK  Name = ZINC56877638
REMARK  5 active torsions:
REMARK  status: ('A' for Active; 'I' for Inactive)
REMARK    1  A    between atoms: C_1  and  N_2
REMARK    2  A    between atoms: C_7  and  N_12
REMARK    3  A    between atoms: N_15  and  C_16
REMARK    4  A    between atoms: N_15  and  C_23
REMARK    5  A    between atoms: C_16  and  C_17
REMARK                            x       y       z     vdW  Elec       q    Type
REMARK                         _______ _______ _______ _____ _____    ______ ____
ROOT
ATOM      1  N   UNL     1      -0.903  -4.291  -1.118  0.00  0.00    -0.292 N 
ATOM      2  C   UNL     1      -0.512  -5.175  -0.179  0.00  0.00    +0.303 C 
ATOM      3  O   UNL     1       0.645  -5.194   0.194  0.00  0.00    -0.253 OA
ATOM      4  N   UNL     1      -1.403  -6.040   0.345  0.00  0.00    -0.282 N 
ATOM      5  H   UNL     1      -1.810  -4.319  -1.462  0.00  0.00    +0.151 HD
ENDROOT
BRANCH   1  12
ATOM      6  C   UNL     1       0.019   1.458  -0.051  0.00  0.00    +0.172 C 
ATOM      7  N   UNL     1       0.031  -0.007  -0.047  0.00  0.00    -0.271 N 
ATOM      8  C   UNL     1       0.029  -0.802  -1.129  0.00  0.00    +0.044 A 
ATOM      9  C   UNL     1       0.041  -2.090  -0.700  0.00  0.00    +0.013 A 
ATOM     10  C   UNL     1       0.052  -2.079   0.693  0.00  0.00    +0.140 A 
ATOM     11  N   UNL     1       0.052  -0.830   1.090  0.00  0.00    -0.179 NA
ATOM     12  C   UNL     1       0.040  -3.288  -1.617  0.00  0.00    +0.108 C 
ATOM     13  C   UNL     1      -0.389  -2.825  -3.016  0.00  0.00    +0.027 C 
ATOM     14  C   UNL     1       0.438  -1.604  -3.426  0.00  0.00    +0.008 C 
ATOM     15  C   UNL     1       0.019  -0.394  -2.582  0.00  0.00    +0.055 C 
ENDBRANCH   1  12
BRANCH   4  16
ATOM     16  C   UNL     1      -2.771  -6.088  -0.176  0.00  0.00    +0.078 C 
ATOM     17  C   UNL     1      -3.815  -6.845   0.648  0.00  0.00    +0.024 C 
ATOM     18  C   UNL     1      -3.295  -7.441  -0.662  0.00  0.00    +0.024 C 
ENDBRANCH   4  16
BRANCH   4  19
ATOM     19  C   UNL     1      -1.004  -6.931   1.437  0.00  0.00    +0.113 C 
BRANCH  19  20
ATOM     20  C   UNL     1      -1.266  -6.244   2.779  0.00  0.00    +0.006 C 
ATOM     21  C   UNL     1      -0.363  -5.016   2.908  0.00  0.00    +0.005 C 
ATOM     22  C   UNL     1      -0.625  -4.329   4.249  0.00  0.00    +0.000 C 
ATOM     23  C   UNL     1      -0.326  -5.304   5.389  0.00  0.00    +0.000 C 
ATOM     24  C   UNL     1      -1.229  -6.532   5.260  0.00  0.00    +0.000 C 
ATOM     25  C   UNL     1      -0.966  -7.220   3.918  0.00  0.00    +0.005 C 
ENDBRANCH  19  20
ENDBRANCH   4  19
TORSDOF 4
