REMARK  Name = ZINC04237349
REMARK  5 active torsions:
REMARK  status: ('A' for Active; 'I' for Inactive)
REMARK    1  A    between atoms: C_1  and  C_2
REMARK    2  A    between atoms: N_4  and  C_5
REMARK    3  A    between atoms: C_8  and  C_11
REMARK    4  A    between atoms: C_26  and  C_27
REMARK    5  A    between atoms: C_26  and  N_55
REMARK                            x       y       z     vdW  Elec       q    Type
REMARK                         _______ _______ _______ _____ _____    ______ ____
ROOT
ATOM      1  C   UNL     1      -5.929  -1.191  -0.351  0.00  0.00    +0.047 A 
ATOM      2  C   UNL     1      -6.714  -1.141  -1.492  0.00  0.00    +0.015 A 
ATOM      3  C   UNL     1      -7.862  -1.935  -1.551  0.00  0.00    +0.022 A 
ATOM      4  C   UNL     1      -8.216  -2.720  -0.499  0.00  0.00    +0.023 A 
ATOM      5  N   UNL     1      -7.508  -2.699   0.655  0.00  0.00    -0.311 N 
ATOM      6  C   UNL     1      -6.338  -2.017   0.720  0.00  0.00    +0.259 A 
ATOM      7  O   UNL     1      -5.634  -2.116   1.711  0.00  0.00    -0.267 OA
ATOM      8  C   UNL     1      -7.969  -3.342   1.886  0.00  0.00    +0.126 C 
ATOM      9  C   UNL     1      -8.991  -4.434   1.618  0.00  0.00    -0.007 C 
ATOM     10  C   UNL     1     -10.063  -3.904   0.662  0.00  0.00    +0.011 C 
ATOM     11  C   UNL     1      -9.393  -3.651  -0.693  0.00  0.00    +0.020 C 
ATOM     12  C   UNL     1      -8.845  -4.990  -1.211  0.00  0.00    -0.069 C 
ATOM     13  C   UNL     1      -8.340  -5.689   1.053  0.00  0.00    -0.073 C 
ATOM     14  N   UNL     1      -7.774  -5.421  -0.285  0.00  0.00    +0.383 N 
ATOM     15  H   UNL     1      -7.078  -4.670  -0.208  0.00  0.00    -0.081 HD
ENDROOT
BRANCH   1  19
ATOM     16  C   UNL     1      -2.363   1.110  -0.073  0.00  0.00    +0.033 A 
ATOM     17  C   UNL     1      -2.294  -0.278  -0.079  0.00  0.00    +0.024 A 
ATOM     18  C   UNL     1      -3.449  -1.027  -0.163  0.00  0.00    +0.010 A 
ATOM     19  C   UNL     1      -4.687  -0.390  -0.254  0.00  0.00    -0.013 A 
ATOM     20  C   UNL     1      -4.753   1.004  -0.254  0.00  0.00    +0.010 A 
ATOM     21  C   UNL     1      -3.595   1.747  -0.164  0.00  0.00    +0.024 A 
BRANCH  16  25
ATOM     22  C   UNL     1       1.159   2.161   0.735  0.00  0.00    +0.109 C 
ATOM     23  C   UNL     1      -0.147   1.409   0.738  0.00  0.00    +0.214 C 
ATOM     24  O   UNL     1      -0.258   0.388   1.384  0.00  0.00    -0.276 OA
ATOM     25  N   UNL     1      -1.191   1.867   0.018  0.00  0.00    -0.286 N 
ATOM     26  H   UNL     1      -1.128   2.721  -0.437  0.00  0.00    +0.155 HD
ENDBRANCH  16  25
ENDBRANCH   1  19
BRANCH  14  27
ATOM     27  C   UNL     1      -7.113  -6.635  -0.805  0.00  0.00    -0.036 C 
BRANCH  27  28
ATOM     28  C   UNL     1      -6.357  -6.276  -2.058  0.00  0.00    -0.027 A 
ATOM     29  C   UNL     1      -5.080  -5.840  -2.188  0.00  0.00    +0.009 A 
ATOM     30  C   UNL     1      -4.590  -5.569  -3.452  0.00  0.00    +0.008 A 
ATOM     31  C   UNL     1      -5.401  -5.748  -4.524  0.00  0.00    +0.045 A 
ATOM     32  S   UNL     1      -6.907  -6.322  -3.756  0.00  0.00    -0.103 S 
ENDBRANCH  27  28
ENDBRANCH  14  27
TORSDOF 4
