REMARK  Name = ZINC39668390
REMARK  7 active torsions:
REMARK  status: ('A' for Active; 'I' for Inactive)
REMARK    1  A    between atoms: C_1  and  C_2
REMARK    2  A    between atoms: C_2  and  C_4
REMARK    3  A    between atoms: C_2  and  O_29
REMARK    4  A    between atoms: C_4  and  N_5
REMARK    5  A    between atoms: C_6  and  C_8
REMARK    6  A    between atoms: C_19  and  C_21
REMARK    7  A    between atoms: O_29  and  C_30
REMARK                            x       y       z     vdW  Elec       q    Type
REMARK                         _______ _______ _______ _____ _____    ______ ____
ROOT
ATOM      1  C   UNL     1       2.231  -3.695   2.817  0.00  0.00    +0.100 C 
ATOM      2  C   UNL     1       3.021  -4.450   1.724  0.00  0.00    +0.121 C 
ATOM      3  N   UNL     1       4.394  -4.568   2.268  0.00  0.00    -0.296 N 
ATOM      4  C   UNL     1       4.196  -4.851   3.710  0.00  0.00    +0.115 C 
ATOM      5  C   UNL     1       3.004  -3.964   4.119  0.00  0.00    -0.004 C 
ATOM      6  C   UNL     1       3.504  -2.653   4.717  0.00  0.00    -0.010 C 
ATOM      7  C   UNL     1       4.220  -2.941   6.040  0.00  0.00    -0.082 C 
ATOM      8  N   UNL     1       3.292  -3.602   6.966  0.00  0.00    +0.379 N 
ATOM      9  C   UNL     1       2.888  -4.905   6.425  0.00  0.00    -0.082 C 
ATOM     10  C   UNL     1       2.116  -4.700   5.118  0.00  0.00    -0.010 C 
ATOM     11  C   UNL     1       5.560  -4.445   1.603  0.00  0.00    +0.248 C 
ATOM     12  O   UNL     1       5.560  -4.123   0.431  0.00  0.00    -0.270 OA
ATOM     13  H   UNL     1       3.747  -3.735   7.857  0.00  0.00    -0.086 HD
ATOM     14  H   UNL     1       2.475  -3.023   7.092  0.00  0.00    -0.086 HD
ENDROOT
BRANCH  11  15
ATOM     15  C   UNL     1       6.838  -4.701   2.299  0.00  0.00    +0.055 A 
ATOM     16  C   UNL     1       6.921  -5.706   3.265  0.00  0.00    +0.016 A 
ATOM     17  C   UNL     1       8.116  -5.940   3.910  0.00  0.00    +0.021 A 
ATOM     18  C   UNL     1       9.234  -5.181   3.604  0.00  0.00    +0.042 A 
ATOM     19  C   UNL     1       9.159  -4.183   2.648  0.00  0.00    +0.040 A 
ATOM     20  C   UNL     1       7.970  -3.942   1.989  0.00  0.00    +0.054 A 
ATOM     21 CL   UNL     1       7.879  -2.695   0.785  0.00  0.00    -0.083 Cl
ATOM     22 CL   UNL     1      10.735  -5.482   4.422  0.00  0.00    -0.083 Cl
ENDBRANCH  11  15
BRANCH   1  24
ATOM     23  N   UNL     1       1.232  -1.444   3.042  0.00  0.00    -0.312 N 
ATOM     24  C   UNL     1       2.203  -2.218   2.518  0.00  0.00    +0.218 C 
ATOM     25  O   UNL     1       3.054  -1.727   1.808  0.00  0.00    -0.275 OA
ATOM     26  H   UNL     1       0.552  -1.837   3.610  0.00  0.00    +0.149 HD
BRANCH  23  27
ATOM     27  C   UNL     1       1.205  -0.008   2.752  0.00  0.00    +0.148 C 
BRANCH  27  29
ATOM     28  C   UNL     1      -0.090   2.106   3.061  0.00  0.00    +0.053 C 
ATOM     29  C   UNL     1       0.011   0.633   3.462  0.00  0.00    +0.187 C 
BRANCH  29  30
ATOM     30  O   UNL     1       0.191   0.536   4.877  0.00  0.00    -0.486 OA
BRANCH  30  31
ATOM     31  C   UNL     1      -0.929   0.578   5.645  0.00  0.00    +0.139 A 
ATOM     32  C   UNL     1      -2.188   0.641   5.055  0.00  0.00    +0.049 A 
ATOM     33  C   UNL     1      -3.300   0.681   5.880  0.00  0.00    +0.023 A 
ATOM     34  C   UNL     1      -3.125   0.658   7.251  0.00  0.00    +0.111 A 
ATOM     35  N   UNL     1      -1.919   0.598   7.778  0.00  0.00    -0.260 NA
ATOM     36  C   UNL     1      -0.835   0.552   7.029  0.00  0.00    +0.156 A 
ENDBRANCH  30  31
ENDBRANCH  29  30
ENDBRANCH  27  29
ENDBRANCH  23  27
ENDBRANCH   1  24
TORSDOF 6
