REMARK  Name = ZINC19360357
REMARK  12 active torsions:
REMARK  status: ('A' for Active; 'I' for Inactive)
REMARK    1  A    between atoms: C_1  and  C_2
REMARK    2  A    between atoms: C_6  and  C_33
REMARK    3  A    between atoms: C_9  and  O_11
REMARK    4  A    between atoms: O_11  and  C_12
REMARK    5  A    between atoms: C_12  and  C_13
REMARK    6  A    between atoms: C_13  and  C_15
REMARK    7  A    between atoms: C_13  and  O_32
REMARK    8  A    between atoms: C_15  and  N_16
REMARK    9  A    between atoms: N_19  and  C_22
REMARK   10  A    between atoms: C_22  and  C_23
REMARK   11  A    between atoms: C_33  and  C_34
REMARK   12  A    between atoms: C_33  and  C_35
REMARK                            x       y       z     vdW  Elec       q    Type
REMARK                         _______ _______ _______ _____ _____    ______ ____
ROOT
ATOM      1  N   UNL     1       0.234   1.206   7.113  0.00  0.00    -0.303 NA
ATOM      2  C   UNL     1       1.109   1.730   8.171  0.00  0.00    +0.066 C 
ATOM      3  C   UNL     1       0.251   2.282   9.311  0.00  0.00    -0.063 C 
ATOM      4  N   UNL     1      -0.616   1.215   9.830  0.00  0.00    +0.384 N 
ATOM      5  C   UNL     1      -1.490   0.690   8.772  0.00  0.00    -0.063 C 
ATOM      6  C   UNL     1      -0.632   0.138   7.631  0.00  0.00    +0.066 C 
ATOM      7  H   UNL     1       0.028   0.393  10.177  0.00  0.00    -0.081 HD
ENDROOT
BRANCH   1   8
ATOM      8  C   UNL     1       1.021   0.734   5.965  0.00  0.00    +0.117 C 
BRANCH   8   9
ATOM      9  C   UNL     1       0.123   0.660   4.728  0.00  0.00    +0.154 C 
BRANCH   9  10
ATOM     10  O   UNL     1      -0.394   1.960   4.436  0.00  0.00    -0.388 OA
ATOM     11  H   UNL     1      -1.010   2.486   5.180  0.00  0.00    +0.210 HD
ENDBRANCH   9  10
BRANCH   9  12
ATOM     12  C   UNL     1       0.940   0.157   3.536  0.00  0.00    +0.192 C 
BRANCH  12  13
ATOM     13  O   UNL     1       0.077  -0.024   2.410  0.00  0.00    -0.374 OA
BRANCH  13  20
ATOM     14  C   UNL     1       0.027   1.559   0.007  0.00  0.00    +0.010 C 
ATOM     15  C   UNL     1       0.019   0.029  -0.005  0.00  0.00    +0.015 C 
ATOM     16  C   UNL     1       0.733  -0.474  -1.261  0.00  0.00    +0.006 C 
ATOM     17  C   UNL     1       0.725  -2.004  -1.273  0.00  0.00    +0.004 C 
ATOM     18  C   UNL     1       1.449  -2.528  -0.031  0.00  0.00    -0.006 C 
ATOM     19  C   UNL     1       0.735  -2.024   1.225  0.00  0.00    +0.035 C 
ATOM     20  C   UNL     1       0.743  -0.494   1.237  0.00  0.00    +0.121 C 
BRANCH  18  21
ATOM     21  C   UNL     1       1.441  -4.058  -0.043  0.00  0.00    -0.014 C 
ATOM     22  C   UNL     1       2.154  -4.562  -1.300  0.00  0.00    +0.007 C 
ATOM     23  C   UNL     1       2.165  -4.581   1.199  0.00  0.00    +0.007 C 
ENDBRANCH  18  21
ENDBRANCH  13  20
ENDBRANCH  12  13
ENDBRANCH   9  12
ENDBRANCH   8   9
ENDBRANCH   1   8
BRANCH   4  24
ATOM     24  C   UNL     1      -1.402   1.686  10.978  0.00  0.00    -0.043 C 
BRANCH  24  25
ATOM     25  C   UNL     1      -0.479   1.985  12.130  0.00  0.00    -0.060 A 
ATOM     26  C   UNL     1      -0.175   0.995  13.046  0.00  0.00    +0.005 A 
ATOM     27  C   UNL     1       0.676   1.263  14.102  0.00  0.00    +0.050 A 
ATOM     28  C   UNL     1       1.217   2.529  14.252  0.00  0.00    +0.166 A 
ATOM     29  C   UNL     1       0.907   3.528  13.332  0.00  0.00    +0.166 A 
ATOM     30  C   UNL     1       0.059   3.251  12.273  0.00  0.00    +0.051 A 
ATOM     31  O   UNL     1       1.558   4.672  13.695  0.00  0.00    -0.453 OA
ATOM     32  C   UNL     1       1.942   4.477  15.069  0.00  0.00    +0.466 C 
ATOM     33  O   UNL     1       2.062   3.047  15.190  0.00  0.00    -0.453 OA
ENDBRANCH  24  25
ENDBRANCH   4  24
TORSDOF 9
