REMARK  Name = ZINC43077332
REMARK  3 active torsions:
REMARK  status: ('A' for Active; 'I' for Inactive)
REMARK    1  A    between atoms: C_4  and  C_7
REMARK    2  A    between atoms: N_14  and  C_15
REMARK    3  A    between atoms: C_15  and  C_16
REMARK                            x       y       z     vdW  Elec       q    Type
REMARK                         _______ _______ _______ _____ _____    ______ ____
ROOT
ATOM      1  C   UNL     1       3.711  -0.707  -0.038  0.00  0.00    +0.109 C 
ATOM      2  C   UNL     1       4.127  -1.248   1.337  0.00  0.00    +0.046 C 
ATOM      3  C   UNL     1       4.601  -2.458   0.519  0.00  0.00    +0.112 C 
ATOM      4  N   UNL     1       3.597  -2.100  -0.496  0.00  0.00    -0.278 N 
ATOM      5  C   UNL     1       2.885  -2.759  -1.431  0.00  0.00    +0.303 C 
ATOM      6  O   UNL     1       2.104  -2.152  -2.140  0.00  0.00    -0.253 OA
ATOM      7  N   UNL     1       3.038  -4.089  -1.582  0.00  0.00    -0.296 N 
ATOM      8  H   UNL     1       3.661  -4.573  -1.017  0.00  0.00    +0.150 HD
ENDROOT
BRANCH   1  12
ATOM      9  C   UNL     1      -0.017   1.378   0.010  0.00  0.00    +0.000 A 
ATOM     10  C   UNL     1       1.171   2.086   0.002  0.00  0.00    +0.000 A 
ATOM     11  C   UNL     1       2.377   1.411  -0.013  0.00  0.00    +0.005 A 
ATOM     12  C   UNL     1       2.396   0.029  -0.020  0.00  0.00    -0.027 A 
ATOM     13  C   UNL     1       1.208  -0.679  -0.012  0.00  0.00    +0.005 A 
ATOM     14  C   UNL     1       0.002  -0.004   0.002  0.00  0.00    +0.000 A 
ENDBRANCH   1  12
BRANCH   7  15
ATOM     15  C   UNL     1       2.264  -4.805  -2.600  0.00  0.00    +0.153 C 
BRANCH  15  16
ATOM     16  C   UNL     1       2.624  -6.291  -2.562  0.00  0.00    +0.228 C 
ATOM     17  C   UNL     1       1.901  -7.028  -3.697  0.00  0.00    +0.275 C 
ATOM     18  O   UNL     1       2.248  -8.415  -3.624  0.00  0.00    -0.485 OA
ATOM     19  C   UNL     1       2.195  -8.995  -2.393  0.00  0.00    +0.162 A 
ATOM     20  C   UNL     1       2.160 -10.378  -2.293  0.00  0.00    +0.049 A 
ATOM     21  C   UNL     1       2.110 -10.981  -1.051  0.00  0.00    +0.004 A 
ATOM     22  C   UNL     1       2.096 -10.208   0.095  0.00  0.00    +0.004 A 
ATOM     23  C   UNL     1       2.130  -8.830   0.002  0.00  0.00    +0.049 A 
ATOM     24  C   UNL     1       2.178  -8.218  -1.242  0.00  0.00    +0.163 A 
ATOM     25  O   UNL     1       2.203  -6.859  -1.317  0.00  0.00    -0.480 OA
ENDBRANCH  15  16
ENDBRANCH   7  15
TORSDOF 3
