REMARK  Name = ZINC40159969
REMARK  7 active torsions:
REMARK  status: ('A' for Active; 'I' for Inactive)
REMARK    1  A    between atoms: C_1  and  C_2
REMARK    2  A    between atoms: C_2  and  C_4
REMARK    3  A    between atoms: C_2  and  N_14
REMARK    4  A    between atoms: N_6  and  C_7
REMARK    5  A    between atoms: N_14  and  C_15
REMARK    6  A    between atoms: C_18  and  C_24
REMARK    7  A    between atoms: C_20  and  N_21
REMARK                            x       y       z     vdW  Elec       q    Type
REMARK                         _______ _______ _______ _____ _____    ______ ____
ROOT
ATOM      1  N   UNL     1      -1.325  -0.518   0.320  0.00  0.00    -0.331 N 
ATOM      2  H   UNL     1      -1.663  -0.756  -0.558  0.00  0.00    +0.147 HD
ENDROOT
BRANCH   1   3
ATOM      3  C   UNL     1      -2.141  -0.666   1.445  0.00  0.00    +0.058 A 
ATOM      4  C   UNL     1      -1.699  -0.228   2.687  0.00  0.00    +0.026 A 
ATOM      5  C   UNL     1      -2.507  -0.375   3.797  0.00  0.00    +0.014 A 
ATOM      6  C   UNL     1      -3.756  -0.958   3.672  0.00  0.00    +0.057 A 
ATOM      7  C   UNL     1      -4.198  -1.395   2.438  0.00  0.00    +0.047 A 
ATOM      8  C   UNL     1      -3.397  -1.245   1.322  0.00  0.00    +0.147 A 
BRANCH   6   9
ATOM      9  C   UNL     1      -4.635  -1.116   4.886  0.00  0.00    +0.417 C 
ATOM     10  F   UNL     1      -3.977  -0.605   6.009  0.00  0.00    -0.166 F 
ATOM     11  F   UNL     1      -5.832  -0.419   4.689  0.00  0.00    -0.166 F 
ATOM     12  F   UNL     1      -4.914  -2.473   5.085  0.00  0.00    -0.166 F 
ENDBRANCH   6   9
BRANCH   8  13
ATOM     13  N   UNL     1      -3.874  -1.708  -0.000  0.00  0.00    +0.058 N 
ATOM     14  O   UNL     1      -3.600  -1.078  -0.995  0.00  0.00    -0.126 OA
ATOM     15  O   UNL     1      -4.538  -2.715  -0.085  0.00  0.00    -0.126 OA
ENDBRANCH   8  13
ENDBRANCH   1   3
BRANCH   1  17
ATOM     16  C   UNL     1       0.011   1.525   0.465  0.00  0.00    +0.038 C 
ATOM     17  C   UNL     1       0.039  -0.005   0.467  0.00  0.00    +0.154 C 
BRANCH  17  18
ATOM     18  C   UNL     1       0.885  -0.492  -0.681  0.00  0.00    +0.237 C 
ATOM     19  O   UNL     1       0.397  -1.199  -1.537  0.00  0.00    -0.273 OA
ATOM     20  N   UNL     1       2.184  -0.143  -0.756  0.00  0.00    -0.284 N 
ATOM     21  H   UNL     1       2.560   0.470  -0.105  0.00  0.00    +0.155 HD
BRANCH  20  22
ATOM     22  C   UNL     1       2.991  -0.664  -1.774  0.00  0.00    +0.034 A 
ATOM     23  C   UNL     1       4.325  -0.958  -1.523  0.00  0.00    +0.025 A 
ATOM     24  C   UNL     1       5.119  -1.472  -2.529  0.00  0.00    +0.022 A 
ATOM     25  C   UNL     1       4.587  -1.693  -3.788  0.00  0.00    +0.041 A 
ATOM     26  C   UNL     1       3.259  -1.400  -4.041  0.00  0.00    +0.022 A 
ATOM     27  C   UNL     1       2.458  -0.892  -3.036  0.00  0.00    +0.025 A 
ATOM     28 CL   UNL     1       5.588  -2.338  -5.050  0.00  0.00    -0.084 Cl
ENDBRANCH  20  22
ENDBRANCH  17  18
ENDBRANCH   1  17
TORSDOF 6
