REMARK  Name = ZINC63411818
REMARK  12 active torsions:
REMARK  status: ('A' for Active; 'I' for Inactive)
REMARK    1  A    between atoms: C_1  and  O_2
REMARK    2  A    between atoms: O_2  and  C_3
REMARK    3  A    between atoms: C_6  and  O_36
REMARK    4  A    between atoms: C_7  and  N_9
REMARK    5  A    between atoms: C_13  and  N_14
REMARK    6  A    between atoms: N_14  and  C_15
REMARK    7  A    between atoms: C_15  and  C_17
REMARK    8  A    between atoms: C_15  and  C_27
REMARK    9  A    between atoms: C_17  and  C_18
REMARK   10  A    between atoms: C_27  and  O_29
REMARK   11  A    between atoms: O_29  and  C_30
REMARK   12  A    between atoms: O_36  and  C_37
REMARK                            x       y       z     vdW  Elec       q    Type
REMARK                         _______ _______ _______ _____ _____    ______ ____
ROOT
ATOM      1  N   UNL     1       1.306  -4.007  -2.257  0.00  0.00    -0.214 N 
ATOM      2  C   UNL     1       2.352  -4.660  -1.710  0.00  0.00    +0.263 C 
ATOM      3  O   UNL     1       3.236  -4.053  -1.136  0.00  0.00    -0.269 OA
ATOM      4  C   UNL     1       2.394  -6.128  -1.827  0.00  0.00    +0.113 C 
ATOM      5  C   UNL     1       3.434  -6.865  -1.292  0.00  0.00    +0.086 C 
ATOM      6  C   UNL     1       1.279  -6.777  -2.540  0.00  0.00    +0.256 C 
ATOM      7  O   UNL     1       1.244  -7.986  -2.677  0.00  0.00    -0.270 OA
ATOM      8  N   UNL     1       0.298  -5.995  -3.037  0.00  0.00    -0.263 N 
ATOM      9  C   UNL     1       0.322  -4.663  -2.888  0.00  0.00    +0.151 C 
ATOM     10  S   UNL     1      -0.969  -3.752  -3.545  0.00  0.00    -0.018 S 
ATOM     11  H   UNL     1      -0.443  -6.406  -3.509  0.00  0.00    +0.157 HD
ENDROOT
BRANCH   1  16
ATOM     12  C   UNL     1       0.553  -0.635  -0.979  0.00  0.00    +0.122 A 
ATOM     13  C   UNL     1       1.121   0.155  -1.968  0.00  0.00    +0.049 A 
ATOM     14  C   UNL     1       1.749  -0.433  -3.050  0.00  0.00    +0.051 A 
ATOM     15  C   UNL     1       1.812  -1.813  -3.150  0.00  0.00    +0.142 A 
ATOM     16  C   UNL     1       1.243  -2.609  -2.159  0.00  0.00    +0.088 A 
ATOM     17  C   UNL     1       0.619  -2.017  -1.071  0.00  0.00    +0.073 A 
BRANCH  12  19
ATOM     18  C   UNL     1      -0.096   1.375   0.115  0.00  0.00    +0.277 C 
ATOM     19  O   UNL     1      -0.064  -0.054   0.084  0.00  0.00    -0.495 OA
ENDBRANCH  12  19
BRANCH  15  20
ATOM     20  O   UNL     1       2.430  -2.391  -4.215  0.00  0.00    -0.493 OA
ATOM     21  C   UNL     1       2.991  -1.514  -5.194  0.00  0.00    +0.277 C 
ENDBRANCH  15  20
ENDBRANCH   1  16
BRANCH   5  22
ATOM     22  N   UNL     1       3.383  -8.212  -1.305  0.00  0.00    -0.336 N 
ATOM     23  H   UNL     1       2.654  -8.665  -1.757  0.00  0.00    +0.146 HD
BRANCH  22  24
ATOM     24  C   UNL     1       4.428  -8.992  -0.637  0.00  0.00    +0.184 C 
BRANCH  24  25
ATOM     25  C   UNL     1       4.090  -9.137   0.824  0.00  0.00    +0.328 C 
ATOM     26  O   UNL     1       3.079  -8.641   1.263  0.00  0.00    -0.249 OA
BRANCH  25  27
ATOM     27  O   UNL     1       4.911  -9.818   1.639  0.00  0.00    -0.467 OA
ATOM     28  C   UNL     1       4.528  -9.917   3.012  0.00  0.00    +0.280 C 
ENDBRANCH  25  27
ENDBRANCH  24  25
BRANCH  24  29
ATOM     29  C   UNL     1       4.520 -10.377  -1.280  0.00  0.00    +0.066 C 
BRANCH  29  30
ATOM     30  C   UNL     1       4.978 -10.239  -2.709  0.00  0.00    -0.039 C 
ATOM     31  C   UNL     1       6.245 -10.343  -3.170  0.00  0.00    -0.001 A 
ATOM     32  C   UNL     1       7.527 -10.606  -2.506  0.00  0.00    +0.010 A 
ATOM     33  C   UNL     1       8.655 -10.652  -3.251  0.00  0.00    +0.001 A 
ATOM     34  C   UNL     1       8.630 -10.454  -4.638  0.00  0.00    +0.002 A 
ATOM     35  C   UNL     1       7.491 -10.208  -5.320  0.00  0.00    +0.026 A 
ATOM     36  C   UNL     1       6.246 -10.139  -4.637  0.00  0.00    +0.043 A 
ATOM     37  N   UNL     1       5.027  -9.917  -5.065  0.00  0.00    -0.380 N 
ATOM     38  C   UNL     1       4.113  -9.961  -3.918  0.00  0.00    +0.144 C 
ATOM     39  H   UNL     1       4.771  -9.754  -5.986  0.00  0.00    +0.160 HD
ENDBRANCH  29  30
ENDBRANCH  24  29
ENDBRANCH  22  24
ENDBRANCH   5  22
TORSDOF 9
