REMARK  Name = ZINC01029450
REMARK  5 active torsions:
REMARK  status: ('A' for Active; 'I' for Inactive)
REMARK    1  A    between atoms: C_1  and  N_2
REMARK    2  A    between atoms: C_3  and  N_18
REMARK    3  A    between atoms: C_4  and  C_11
REMARK    4  A    between atoms: C_5  and  C_7
REMARK    5  A    between atoms: N_21  and  C_22
REMARK                            x       y       z     vdW  Elec       q    Type
REMARK                         _______ _______ _______ _____ _____    ______ ____
ROOT
ATOM      1  C   UNL     1       0.655   3.857  -0.412  0.00  0.00    +0.174 C 
ATOM      2  N   UNL     1       1.605   2.742  -0.371  0.00  0.00    -0.252 N 
ATOM      3  C   UNL     1       1.288   1.437  -0.213  0.00  0.00    +0.132 A 
ATOM      4  C   UNL     1       2.471   0.722  -0.237  0.00  0.00    +0.054 A 
ATOM      5  C   UNL     1       3.517   1.649  -0.409  0.00  0.00    +0.175 A 
ATOM      6  N   UNL     1       2.996   2.845  -0.484  0.00  0.00    -0.165 NA
ENDROOT
BRANCH   4   7
ATOM      7  C   UNL     1       2.613  -0.749  -0.106  0.00  0.00    -0.012 A 
ATOM      8  C   UNL     1       2.265  -1.381   1.086  0.00  0.00    +0.011 A 
ATOM      9  C   UNL     1       2.393  -2.750   1.202  0.00  0.00    +0.039 A 
ATOM     10  C   UNL     1       2.879  -3.495   0.139  0.00  0.00    +0.123 A 
ATOM     11  C   UNL     1       3.231  -2.870  -1.046  0.00  0.00    +0.039 A 
ATOM     12  C   UNL     1       3.100  -1.502  -1.173  0.00  0.00    +0.011 A 
ATOM     13  F   UNL     1       3.008  -4.834   0.258  0.00  0.00    -0.205 F 
ENDBRANCH   4   7
BRANCH   3  14
ATOM     14  N   UNL     1       0.008   0.911  -0.061  0.00  0.00    -0.254 N 
ATOM     15  C   UNL     1      -0.812   1.399   0.890  0.00  0.00    +0.309 C 
ATOM     16  O   UNL     1      -0.480   2.372   1.538  0.00  0.00    -0.252 OA
ATOM     17  N   UNL     1      -2.002   0.808   1.121  0.00  0.00    -0.267 N 
ATOM     18  H   UNL     1      -0.294   0.195  -0.643  0.00  0.00    +0.158 HD
ATOM     19  H   UNL     1      -2.294   0.071   0.563  0.00  0.00    +0.156 HD
BRANCH  17  20
ATOM     20  C   UNL     1      -2.816   1.259   2.170  0.00  0.00    +0.070 A 
ATOM     21  C   UNL     1      -2.255   1.937   3.243  0.00  0.00    +0.029 A 
ATOM     22  C   UNL     1      -3.059   2.380   4.275  0.00  0.00    +0.040 A 
ATOM     23  C   UNL     1      -4.423   2.150   4.241  0.00  0.00    +0.126 A 
ATOM     24  C   UNL     1      -4.987   1.474   3.172  0.00  0.00    +0.078 A 
ATOM     25  C   UNL     1      -4.187   1.033   2.133  0.00  0.00    +0.147 A 
ATOM     26  F   UNL     1      -4.737   0.378   1.087  0.00  0.00    -0.203 F 
ATOM     27  F   UNL     1      -5.207   2.585   5.252  0.00  0.00    -0.205 F 
ENDBRANCH  17  20
ENDBRANCH   3  14
BRANCH   5  28
ATOM     28  C   UNL     1       4.985   1.319  -0.493  0.00  0.00    +0.437 C 
ATOM     29  F   UNL     1       5.336   1.090  -1.827  0.00  0.00    -0.164 F 
ATOM     30  F   UNL     1       5.733   2.390   0.009  0.00  0.00    -0.164 F 
ATOM     31  F   UNL     1       5.249   0.172   0.263  0.00  0.00    -0.164 F 
ENDBRANCH   5  28
TORSDOF 4
