REMARK  Name = ZINC02491647
REMARK  6 active torsions:
REMARK  status: ('A' for Active; 'I' for Inactive)
REMARK    1  A    between atoms: C_1  and  C_2
REMARK    2  A    between atoms: C_2  and  C_3
REMARK    3  A    between atoms: C_5  and  C_17
REMARK    4  A    between atoms: C_5  and  C_21
REMARK    5  A    between atoms: N_8  and  C_15
REMARK    6  A    between atoms: N_11  and  C_14
REMARK                            x       y       z     vdW  Elec       q    Type
REMARK                         _______ _______ _______ _____ _____    ______ ____
ROOT
ATOM      1  C   UNL     1       0.752  -0.578  -1.035  0.00  0.00    +0.074 C 
ATOM      2  N   UNL     1       2.093  -0.816  -1.067  0.00  0.00    -0.310 N 
ATOM      3  C   UNL     1       2.616  -1.750  -2.078  0.00  0.00    +0.258 C 
ATOM      4  C   UNL     1       1.865  -1.503  -3.362  0.00  0.00    +0.098 A 
ATOM      5  C   UNL     1       0.591  -0.969  -3.311  0.00  0.00    +0.127 A 
ATOM      6  N   UNL     1      -0.096  -0.768  -4.490  0.00  0.00    -0.282 N 
ATOM      7  C   UNL     1       0.482  -1.072  -5.668  0.00  0.00    +0.333 A 
ATOM      8  O   UNL     1      -0.135  -0.885  -6.698  0.00  0.00    -0.246 OA
ATOM      9  N   UNL     1       1.727  -1.577  -5.729  0.00  0.00    -0.264 N 
ATOM     10  C   UNL     1       2.435  -1.806  -4.604  0.00  0.00    +0.264 A 
ATOM     11  O   UNL     1       3.560  -2.272  -4.668  0.00  0.00    -0.267 OA
ATOM     12  C   UNL     1       2.321  -1.882  -7.032  0.00  0.00    +0.157 C 
ATOM     13  C   UNL     1      -1.455  -0.223  -4.462  0.00  0.00    +0.155 C 
ATOM     14  N   UNL     1       0.040  -0.640  -2.129  0.00  0.00    -0.333 N 
ATOM     15  H   UNL     1      -0.908  -0.440  -2.089  0.00  0.00    +0.168 HD
ATOM     16  H   UNL     1       2.689  -0.380  -0.439  0.00  0.00    +0.149 HD
ENDROOT
BRANCH   3  17
ATOM     17  C   UNL     1       2.395  -3.191  -1.616  0.00  0.00    +0.424 C 
ATOM     18  F   UNL     1       1.026  -3.420  -1.440  0.00  0.00    -0.168 F 
ATOM     19  F   UNL     1       2.895  -4.072  -2.582  0.00  0.00    -0.168 F 
ATOM     20  F   UNL     1       3.062  -3.400  -0.405  0.00  0.00    -0.168 F 
ENDBRANCH   3  17
BRANCH   3  21
ATOM     21  C   UNL     1       4.110  -1.496  -2.294  0.00  0.00    +0.424 C 
ATOM     22  F   UNL     1       4.750  -1.401  -1.054  0.00  0.00    -0.168 F 
ATOM     23  F   UNL     1       4.661  -2.554  -3.024  0.00  0.00    -0.168 F 
ATOM     24  F   UNL     1       4.282  -0.302  -3.002  0.00  0.00    -0.168 F 
ENDBRANCH   3  21
BRANCH   1  26
ATOM     25  C   UNL     1       0.093   1.268   0.483  0.00  0.00    +0.011 C 
ATOM     26  C   UNL     1       0.083  -0.247   0.274  0.00  0.00    +0.066 C 
ENDBRANCH   1  26
TORSDOF 3
