REMARK  Name = ZINC36029907
REMARK  10 active torsions:
REMARK  status: ('A' for Active; 'I' for Inactive)
REMARK    1  A    between atoms: C_1  and  C_2
REMARK    2  A    between atoms: C_2  and  C_3
REMARK    3  A    between atoms: C_2  and  C_4
REMARK    4  A    between atoms: C_4  and  C_5
REMARK    5  A    between atoms: N_9  and  C_28
REMARK    6  A    between atoms: N_14  and  S_17
REMARK    7  A    between atoms: S_17  and  C_20
REMARK    8  A    between atoms: C_23  and  O_26
REMARK    9  A    between atoms: O_26  and  C_27
REMARK   10  A    between atoms: C_28  and  C_29
REMARK                            x       y       z     vdW  Elec       q    Type
REMARK                         _______ _______ _______ _____ _____    ______ ____
ROOT
ATOM      1  C   UNL     1      -2.842  -3.748   2.151  0.00  0.00    +0.019 C 
ATOM      2  C   UNL     1      -3.814  -4.353   1.161  0.00  0.00    +0.201 C 
ATOM      3  O   UNL     1      -4.737  -5.090   1.434  0.00  0.00    -0.277 OA
ATOM      4  N   UNL     1      -3.481  -3.933  -0.077  0.00  0.00    -0.309 N 
ATOM      5  C   UNL     1      -2.307  -3.059   0.002  0.00  0.00    +0.006 C 
ATOM      6  N   UNL     1      -2.193  -2.636   1.415  0.00  0.00    +0.401 N 
ATOM      7  C   UNL     1      -2.498  -1.834  -0.891  0.00  0.00    +0.023 C 
ATOM      8  C   UNL     1      -2.651  -2.286  -2.347  0.00  0.00    +0.109 C 
ATOM      9  N   UNL     1      -1.503  -3.131  -2.703  0.00  0.00    -0.177 NA
ATOM     10  C   UNL     1      -1.192  -4.293  -1.860  0.00  0.00    +0.109 C 
ATOM     11  C   UNL     1      -1.050  -3.824  -0.408  0.00  0.00    +0.023 C 
ATOM     12  H   UNL     1      -2.688  -1.770   1.569  0.00  0.00    -0.082 HD
ATOM     13  H   UNL     1      -1.224  -2.548   1.685  0.00  0.00    -0.082 HD
ENDROOT
BRANCH   9  14
ATOM     14  S   UNL     1      -0.578  -2.780  -4.031  0.00  0.00    +0.061 S 
ATOM     15  O   UNL     1       0.040  -3.996  -4.428  0.00  0.00    -0.153 OA
ATOM     16  O   UNL     1      -1.398  -2.019  -4.908  0.00  0.00    -0.153 OA
BRANCH  14  17
ATOM     17  C   UNL     1       0.715  -1.709  -3.496  0.00  0.00    +0.106 A 
ATOM     18  C   UNL     1       0.528  -0.339  -3.512  0.00  0.00    +0.032 A 
ATOM     19  C   UNL     1       1.541   0.502  -3.094  0.00  0.00    +0.047 A 
ATOM     20  C   UNL     1       2.746  -0.028  -2.657  0.00  0.00    +0.120 A 
ATOM     21  C   UNL     1       2.931  -1.403  -2.641  0.00  0.00    +0.047 A 
ATOM     22  C   UNL     1       1.914  -2.240  -3.056  0.00  0.00    +0.032 A 
BRANCH  20  23
ATOM     23  O   UNL     1       3.744   0.798  -2.245  0.00  0.00    -0.495 OA
ATOM     24  C   UNL     1       4.957   0.182  -1.808  0.00  0.00    +0.277 C 
ENDBRANCH  20  23
ENDBRANCH  14  17
ENDBRANCH   9  14
BRANCH   1  25
ATOM     25  C   UNL     1      -3.591  -3.213   3.373  0.00  0.00    -0.004 C 
BRANCH  25  27
ATOM     26  C   UNL     1      -3.339  -2.005   5.546  0.00  0.00    +0.007 C 
ATOM     27  C   UNL     1      -2.586  -2.652   4.382  0.00  0.00    -0.018 C 
ATOM     28  C   UNL     1      -1.707  -3.788   4.910  0.00  0.00    +0.007 C 
ENDBRANCH  25  27
ENDBRANCH   1  25
BRANCH   4  29
ATOM     29  C   UNL     1      -4.184  -4.294  -1.311  0.00  0.00    +0.141 C 
BRANCH  29  30
ATOM     30  C   UNL     1      -5.330  -3.340  -1.533  0.00  0.00    -0.026 A 
ATOM     31  C   UNL     1      -6.034  -2.844  -0.452  0.00  0.00    +0.009 A 
ATOM     32  C   UNL     1      -7.086  -1.969  -0.651  0.00  0.00    +0.050 A 
ATOM     33  C   UNL     1      -7.437  -1.587  -1.936  0.00  0.00    +0.166 A 
ATOM     34  C   UNL     1      -6.727  -2.087  -3.025  0.00  0.00    +0.167 A 
ATOM     35  C   UNL     1      -5.671  -2.959  -2.818  0.00  0.00    +0.054 A 
ATOM     36  O   UNL     1      -7.261  -1.567  -4.169  0.00  0.00    -0.453 OA
ATOM     37  C   UNL     1      -8.558  -1.067  -3.795  0.00  0.00    +0.466 C 
ATOM     38  O   UNL     1      -8.414  -0.754  -2.397  0.00  0.00    -0.453 OA
ENDBRANCH  29  30
ENDBRANCH   4  29
TORSDOF 7
