REMARK  Name = ZINC16636181
REMARK  6 active torsions:
REMARK  status: ('A' for Active; 'I' for Inactive)
REMARK    1  A    between atoms: C_3  and  N_23
REMARK    2  A    between atoms: C_4  and  N_20
REMARK    3  A    between atoms: C_6  and  C_7
REMARK    4  A    between atoms: N_9  and  C_10
REMARK    5  A    between atoms: C_10  and  C_11
REMARK    6  A    between atoms: C_11  and  C_12
REMARK                            x       y       z     vdW  Elec       q    Type
REMARK                         _______ _______ _______ _____ _____    ______ ____
ROOT
ATOM      1  C   UNL     1       0.050  -4.248  -0.125  0.00  0.00    +0.244 C 
ATOM      2  O   UNL     1      -0.994  -4.869  -0.071  0.00  0.00    -0.270 OA
ATOM      3  N   UNL     1       1.221  -4.905  -0.241  0.00  0.00    -0.311 N 
ATOM      4  H   UNL     1       2.053  -4.410  -0.284  0.00  0.00    +0.149 HD
ENDROOT
BRANCH   1  10
ATOM      5  C   UNL     1       1.234  -2.058  -0.124  0.00  0.00    +0.015 A 
ATOM      6  C   UNL     1       1.217  -0.683  -0.067  0.00  0.00    +0.026 A 
ATOM      7  C   UNL     1       0.007  -0.005   0.053  0.00  0.00    +0.055 A 
ATOM      8  C   UNL     1      -1.189  -0.716   0.120  0.00  0.00    +0.147 A 
ATOM      9  C   UNL     1      -1.179  -2.090   0.058  0.00  0.00    +0.047 A 
ATOM     10  C   UNL     1       0.035  -2.774  -0.063  0.00  0.00    +0.039 A 
BRANCH   8  11
ATOM     11  N   UNL     1      -2.473   0.009   0.254  0.00  0.00    +0.058 N 
ATOM     12  O   UNL     1      -3.362  -0.452   0.948  0.00  0.00    -0.126 OA
ATOM     13  O   UNL     1      -2.640   1.065  -0.329  0.00  0.00    -0.126 OA
ENDBRANCH   8  11
BRANCH   7  14
ATOM     14  N   UNL     1      -0.007   1.384   0.113  0.00  0.00    -0.356 N 
ATOM     15  H   UNL     1       0.809   1.884  -0.044  0.00  0.00    +0.142 HD
ATOM     16  H   UNL     1      -0.834   1.853   0.306  0.00  0.00    +0.142 HD
ENDBRANCH   7  14
ENDBRANCH   1  10
BRANCH   3  17
ATOM     17  C   UNL     1       1.236  -6.369  -0.303  0.00  0.00    +0.109 C 
BRANCH  17  18
ATOM     18  C   UNL     1       2.679  -6.859  -0.433  0.00  0.00    +0.055 C 
BRANCH  18  19
ATOM     19  C   UNL     1       2.695  -8.365  -0.496  0.00  0.00    -0.027 A 
ATOM     20  C   UNL     1       2.820  -9.004  -1.716  0.00  0.00    +0.006 A 
ATOM     21  C   UNL     1       2.834 -10.384  -1.775  0.00  0.00    +0.020 A 
ATOM     22  C   UNL     1       2.724 -11.128  -0.613  0.00  0.00    +0.042 A 
ATOM     23  C   UNL     1       2.599 -10.489   0.607  0.00  0.00    +0.040 A 
ATOM     24  C   UNL     1       2.590  -9.107   0.666  0.00  0.00    +0.046 A 
ATOM     25 CL   UNL     1       2.439  -8.304   2.198  0.00  0.00    -0.083 Cl
ATOM     26 CL   UNL     1       2.742 -12.862  -0.687  0.00  0.00    -0.083 Cl
ENDBRANCH  18  19
ENDBRANCH  17  18
ENDBRANCH   3  17
TORSDOF 6
