REMARK  Name = ZINC03010980
REMARK  12 active torsions:
REMARK  status: ('A' for Active; 'I' for Inactive)
REMARK    1  A    between atoms: C_1  and  O_2
REMARK    2  A    between atoms: O_2  and  C_3
REMARK    3  A    between atoms: C_6  and  O_37
REMARK    4  A    between atoms: C_7  and  N_9
REMARK    5  A    between atoms: C_10  and  C_12
REMARK    6  A    between atoms: C_17  and  C_33
REMARK    7  A    between atoms: C_20  and  C_23
REMARK    8  A    between atoms: C_26  and  O_31
REMARK    9  A    between atoms: C_27  and  O_29
REMARK   10  A    between atoms: O_29  and  C_30
REMARK   11  A    between atoms: O_31  and  C_32
REMARK   12  A    between atoms: O_37  and  C_38
REMARK                            x       y       z     vdW  Elec       q    Type
REMARK                         _______ _______ _______ _____ _____    ______ ____
ROOT
ATOM      1  C   UNL     1      -1.473  -6.259  -0.208  0.00  0.00    +0.149 A 
ATOM      2  C   UNL     1      -0.369  -7.134  -0.324  0.00  0.00    +0.078 A 
ATOM      3  C   UNL     1      -0.851  -8.390  -0.403  0.00  0.00    +0.119 A 
ATOM      4  N   UNL     1      -2.214  -8.327  -0.338  0.00  0.00    -0.238 N 
ATOM      5  N   UNL     1      -2.576  -6.987  -0.212  0.00  0.00    -0.164 NA
ATOM      6  C   UNL     1      -3.085  -9.505  -0.388  0.00  0.00    +0.215 C 
ATOM      7  C   UNL     1      -2.260 -10.748  -0.037  0.00  0.00    +0.063 C 
ATOM      8  C   UNL     1      -0.979 -10.778  -0.878  0.00  0.00    +0.104 C 
ATOM      9  N   UNL     1      -0.162  -9.599  -0.530  0.00  0.00    -0.322 N 
ATOM     10  H   UNL     1       0.798  -9.660  -0.398  0.00  0.00    +0.148 HD
ENDROOT
BRANCH   8  11
ATOM     11  C   UNL     1      -1.333 -10.739  -2.342  0.00  0.00    -0.024 A 
ATOM     12  C   UNL     1      -1.650  -9.536  -2.943  0.00  0.00    +0.009 A 
ATOM     13  C   UNL     1      -1.976  -9.495  -4.286  0.00  0.00    +0.050 A 
ATOM     14  C   UNL     1      -1.984 -10.662  -5.033  0.00  0.00    +0.162 A 
ATOM     15  C   UNL     1      -1.665 -11.874  -4.428  0.00  0.00    +0.162 A 
ATOM     16  C   UNL     1      -1.335 -11.907  -3.082  0.00  0.00    +0.054 A 
BRANCH  15  17
ATOM     17  O   UNL     1      -1.672 -13.022  -5.156  0.00  0.00    -0.491 OA
ATOM     18  C   UNL     1      -1.334 -14.229  -4.469  0.00  0.00    +0.277 C 
ENDBRANCH  15  17
BRANCH  14  19
ATOM     19  O   UNL     1      -2.305 -10.624  -6.354  0.00  0.00    -0.491 OA
ATOM     20  C   UNL     1      -2.622  -9.345  -6.908  0.00  0.00    +0.277 C 
ENDBRANCH  14  19
ENDBRANCH   8  11
BRANCH   1  22
ATOM     21  N   UNL     1      -2.539  -4.068   0.015  0.00  0.00    -0.277 N 
ATOM     22  C   UNL     1      -1.405  -4.788  -0.096  0.00  0.00    +0.268 C 
ATOM     23  O   UNL     1      -0.326  -4.227  -0.103  0.00  0.00    -0.268 OA
ATOM     24  H   UNL     1      -3.393  -4.519   0.102  0.00  0.00    +0.155 HD
BRANCH  21  29
ATOM     25  C   UNL     1      -1.367  -0.635  -0.613  0.00  0.00    +0.122 A 
ATOM     26  C   UNL     1      -2.376   0.102  -0.011  0.00  0.00    +0.049 A 
ATOM     27  C   UNL     1      -3.438  -0.542   0.597  0.00  0.00    +0.051 A 
ATOM     28  C   UNL     1      -3.495  -1.926   0.608  0.00  0.00    +0.141 A 
ATOM     29  C   UNL     1      -2.483  -2.669   0.005  0.00  0.00    +0.079 A 
ATOM     30  C   UNL     1      -1.422  -2.020  -0.609  0.00  0.00    +0.072 A 
BRANCH  25  32
ATOM     31  C   UNL     1      -0.331   1.431  -1.176  0.00  0.00    +0.277 C 
ATOM     32  O   UNL     1      -0.324   0.002  -1.210  0.00  0.00    -0.495 OA
ENDBRANCH  25  32
BRANCH  28  33
ATOM     33  O   UNL     1      -4.540  -2.559   1.207  0.00  0.00    -0.493 OA
ATOM     34  C   UNL     1      -5.542  -1.734   1.806  0.00  0.00    +0.277 C 
ENDBRANCH  28  33
ENDBRANCH  21  29
ENDBRANCH   1  22
BRANCH   6  35
ATOM     35  C   UNL     1      -4.225  -9.342   0.619  0.00  0.00    +0.412 C 
ATOM     36  F   UNL     1      -4.968  -8.200   0.303  0.00  0.00    -0.168 F 
ATOM     37  F   UNL     1      -5.056 -10.467   0.569  0.00  0.00    -0.168 F 
ATOM     38  F   UNL     1      -3.695  -9.211   1.907  0.00  0.00    -0.168 F 
ENDBRANCH   6  35
TORSDOF 8
