REMARK  Name = ZINC58021199
REMARK  4 active torsions:
REMARK  status: ('A' for Active; 'I' for Inactive)
REMARK    1  A    between atoms: C_1  and  C_2
REMARK    2  A    between atoms: C_5  and  N_22
REMARK    3  A    between atoms: C_7  and  C_8
REMARK    4  A    between atoms: C_13  and  C_16
REMARK                            x       y       z     vdW  Elec       q    Type
REMARK                         _______ _______ _______ _____ _____    ______ ____
ROOT
ATOM      1  C   UNL     1       0.150   0.047   2.476  0.00  0.00    +0.170 A 
ATOM      2  N   UNL     1       0.071   1.349   2.619  0.00  0.00    -0.128 NA
ATOM      3  N   UNL     1       0.062   1.654   3.869  0.00  0.00    -0.121 NA
ATOM      4  C   UNL     1       0.134   0.569   4.584  0.00  0.00    +0.201 A 
ATOM      5  N   UNL     1       0.189  -0.517   3.746  0.00  0.00    -0.269 N 
ATOM      6  C   UNL     1       0.264  -1.763   4.335  0.00  0.00    +0.064 A 
ATOM      7  C   UNL     1       0.277  -1.878   5.678  0.00  0.00    +0.075 A 
ATOM      8  S   UNL     1       0.192  -0.171   6.197  0.00  0.00    -0.055 S 
ENDROOT
BRANCH   1  15
ATOM      9  C   UNL     1       2.182   0.683   0.520  0.00  0.00    +0.044 C 
ATOM     10  C   UNL     1       1.162  -0.390   0.242  0.00  0.00    -0.040 A 
ATOM     11  C   UNL     1       1.196  -1.082  -0.952  0.00  0.00    +0.006 A 
ATOM     12  C   UNL     1       0.261  -2.067  -1.212  0.00  0.00    +0.023 A 
ATOM     13  C   UNL     1      -0.719  -2.368  -0.272  0.00  0.00    +0.025 A 
ATOM     14  C   UNL     1      -0.761  -1.679   0.930  0.00  0.00    +0.034 A 
ATOM     15  C   UNL     1       0.185  -0.688   1.194  0.00  0.00    +0.024 A 
BRANCH  13  16
ATOM     16  N   UNL     1      -1.661  -3.364  -0.540  0.00  0.00    -0.358 N 
ATOM     17  H   UNL     1      -1.681  -3.791  -1.411  0.00  0.00    +0.142 HD
ATOM     18  H   UNL     1      -2.295  -3.629   0.145  0.00  0.00    +0.142 HD
ENDBRANCH  13  16
ENDBRANCH   1  15
BRANCH   6  19
ATOM     19  C   UNL     1       0.329  -2.975   3.491  0.00  0.00    -0.001 A 
ATOM     20  C   UNL     1       1.454  -3.220   2.702  0.00  0.00    +0.010 A 
ATOM     21  C   UNL     1       1.508  -4.352   1.916  0.00  0.00    +0.001 A 
ATOM     22  C   UNL     1       0.451  -5.245   1.909  0.00  0.00    +0.000 A 
ATOM     23  C   UNL     1      -0.667  -5.008   2.689  0.00  0.00    +0.001 A 
ATOM     24  C   UNL     1      -0.732  -3.882   3.483  0.00  0.00    +0.010 A 
ENDBRANCH   6  19
TORSDOF 3
