REMARK  Name = ZINC61035912
REMARK  5 active torsions:
REMARK  status: ('A' for Active; 'I' for Inactive)
REMARK    1  A    between atoms: C_1  and  C_2
REMARK    2  A    between atoms: C_2  and  C_3
REMARK    3  A    between atoms: C_2  and  N_12
REMARK    4  A    between atoms: N_12  and  S_13
REMARK    5  A    between atoms: S_13  and  C_16
REMARK                            x       y       z     vdW  Elec       q    Type
REMARK                         _______ _______ _______ _____ _____    ______ ____
ROOT
ATOM      1  N   UNL     1      -1.372  -0.511   0.012  0.00  0.00    -0.180 NA
ATOM      2  H   UNL     1      -1.845  -0.615   0.853  0.00  0.00    +0.149 HD
ENDROOT
BRANCH   1   3
ATOM      3  S   UNL     1      -2.119  -0.907  -1.411  0.00  0.00    +0.060 S 
ATOM      4  O   UNL     1      -3.414  -1.386  -1.071  0.00  0.00    -0.153 OA
ATOM      5  O   UNL     1      -1.920   0.189  -2.293  0.00  0.00    -0.153 OA
BRANCH   3   6
ATOM      6  C   UNL     1      -1.242  -2.272  -2.098  0.00  0.00    +0.123 A 
ATOM      7  C   UNL     1      -0.172  -2.060  -2.954  0.00  0.00    +0.033 A 
ATOM      8  C   UNL     1       0.489  -3.163  -3.470  0.00  0.00    +0.042 A 
ATOM      9  C   UNL     1       0.062  -4.431  -3.117  0.00  0.00    +0.129 A 
ATOM     10  N   UNL     1      -0.960  -4.595  -2.300  0.00  0.00    -0.242 NA
ATOM     11  C   UNL     1      -1.608  -3.567  -1.786  0.00  0.00    +0.141 A 
ATOM     12 CL   UNL     1       0.881  -5.822  -3.758  0.00  0.00    -0.062 Cl
ENDBRANCH   3   6
ENDBRANCH   1   3
BRANCH   1  14
ATOM     13  C   UNL     1      -0.019   1.526   0.010  0.00  0.00    +0.034 C 
ATOM     14  C   UNL     1       0.002  -0.004   0.002  0.00  0.00    +0.139 C 
BRANCH  14  15
ATOM     15  C   UNL     1       0.731  -0.503   1.223  0.00  0.00    +0.124 A 
ATOM     16  C   UNL     1       2.005  -0.917   1.240  0.00  0.00    +0.055 A 
ATOM     17  C   UNL     1       2.290  -1.308   2.626  0.00  0.00    +0.020 A 
ATOM     18  C   UNL     1       3.410  -1.812   3.286  0.00  0.00    +0.011 A 
ATOM     19  C   UNL     1       3.343  -2.081   4.625  0.00  0.00    +0.001 A 
ATOM     20  C   UNL     1       2.169  -1.856   5.329  0.00  0.00    +0.004 A 
ATOM     21  C   UNL     1       1.052  -1.359   4.693  0.00  0.00    +0.047 A 
ATOM     22  C   UNL     1       1.098  -1.078   3.333  0.00  0.00    +0.135 A 
ATOM     23  O   UNL     1       0.199  -0.593   2.454  0.00  0.00    -0.458 OA
ENDBRANCH  14  15
ENDBRANCH   1  14
TORSDOF 4
