REMARK  Name = ZINC67586911
REMARK  6 active torsions:
REMARK  status: ('A' for Active; 'I' for Inactive)
REMARK    1  A    between atoms: C_1  and  C_2
REMARK    2  A    between atoms: C_5  and  C_8
REMARK    3  A    between atoms: C_8  and  C_10
REMARK    4  A    between atoms: C_8  and  N_11
REMARK    5  A    between atoms: N_11  and  C_12
REMARK    6  A    between atoms: C_19  and  C_21
REMARK                            x       y       z     vdW  Elec       q    Type
REMARK                         _______ _______ _______ _____ _____    ______ ____
ROOT
ATOM      1  N   UNL     1      -0.720  -4.780   1.112  0.00  0.00    -0.282 N 
ATOM      2  C   UNL     1      -0.402  -4.341   2.473  0.00  0.00    +0.134 C 
ATOM      3  C   UNL     1      -1.648  -5.737   0.911  0.00  0.00    +0.308 C 
ATOM      4  O   UNL     1      -1.912  -6.101  -0.218  0.00  0.00    -0.252 OA
ATOM      5  N   UNL     1      -2.284  -6.290   1.963  0.00  0.00    -0.247 N 
ATOM      6  C   UNL     1      -3.241  -7.277   1.756  0.00  0.00    +0.189 A 
ATOM      7  N   UNL     1      -3.659  -7.806   0.623  0.00  0.00    -0.125 NA
ATOM      8  N   UNL     1      -4.546  -8.705   0.593  0.00  0.00    -0.139 NA
ATOM      9  C   UNL     1      -5.069  -9.128   1.727  0.00  0.00    +0.169 A 
ATOM     10  S   UNL     1      -4.166  -8.115   2.890  0.00  0.00    -0.030 S 
ATOM     11  H   UNL     1      -2.073  -5.999   2.864  0.00  0.00    +0.158 HD
ENDROOT
BRANCH   9  12
ATOM     12  C   UNL     1      -6.126 -10.174   1.972  0.00  0.00    +0.398 C 
ATOM     13  F   UNL     1      -6.064 -11.145   0.967  0.00  0.00    -0.202 F 
ATOM     14  F   UNL     1      -5.907 -10.775   3.216  0.00  0.00    -0.202 F 
ENDBRANCH   9  12
BRANCH   1  15
ATOM     15  C   UNL     1      -0.029  -4.179  -0.032  0.00  0.00    +0.104 C 
ATOM     16  C   UNL     1       1.483  -4.290   0.170  0.00  0.00    +0.033 C 
BRANCH  15  21
ATOM     17  C   UNL     1      -1.512   1.390  -0.465  0.00  0.00    +0.044 C 
ATOM     18  C   UNL     1      -1.125  -0.062  -0.352  0.00  0.00    -0.050 A 
ATOM     19  C   UNL     1      -1.300  -0.910  -1.430  0.00  0.00    +0.004 A 
ATOM     20  C   UNL     1      -0.945  -2.242  -1.326  0.00  0.00    +0.006 A 
ATOM     21  C   UNL     1      -0.415  -2.726  -0.145  0.00  0.00    -0.027 A 
ATOM     22  C   UNL     1      -0.239  -1.879   0.933  0.00  0.00    +0.006 A 
ATOM     23  C   UNL     1      -0.590  -0.546   0.828  0.00  0.00    +0.004 A 
ENDBRANCH  15  21
ENDBRANCH   1  15
TORSDOF 3
