REMARK  Name = ZINC12473789
REMARK  14 active torsions:
REMARK  status: ('A' for Active; 'I' for Inactive)
REMARK    1  A    between atoms: C_1  and  C_2
REMARK    2  A    between atoms: C_7  and  N_8
REMARK    3  A    between atoms: N_8  and  C_9
REMARK    4  A    between atoms: C_9  and  C_11
REMARK    5  A    between atoms: C_9  and  C_18
REMARK    6  A    between atoms: C_14  and  O_17
REMARK    7  A    between atoms: N_20  and  C_21
REMARK    8  A    between atoms: C_21  and  C_22
REMARK    9  A    between atoms: C_22  and  C_23
REMARK   10  A    between atoms: C_23  and  C_24
REMARK   11  A    between atoms: C_23  and  C_25
REMARK   12  A    between atoms: C_26  and  C_28
REMARK   13  A    between atoms: C_29  and  N_36
REMARK   14  A    between atoms: C_30  and  C_33
REMARK                            x       y       z     vdW  Elec       q    Type
REMARK                         _______ _______ _______ _____ _____    ______ ____
ROOT
ATOM      1  N   UNL     1      -5.903   2.284   0.192  0.00  0.00    -0.251 N 
ATOM      2  C   UNL     1      -5.244   1.810  -0.884  0.00  0.00    +0.262 C 
ATOM      3  O   UNL     1      -5.865   1.421  -1.856  0.00  0.00    -0.269 OA
ENDROOT
BRANCH   1  10
ATOM      4  C   UNL     1      -5.321   0.410   2.253  0.00  0.00    +0.045 C 
ATOM      5  C   UNL     1      -4.884   1.850   2.338  0.00  0.00    -0.029 A 
ATOM      6  C   UNL     1      -4.175   2.294   3.437  0.00  0.00    +0.005 A 
ATOM      7  C   UNL     1      -3.779   3.616   3.518  0.00  0.00    +0.000 A 
ATOM      8  C   UNL     1      -4.085   4.497   2.497  0.00  0.00    +0.002 A 
ATOM      9  C   UNL     1      -4.790   4.059   1.393  0.00  0.00    +0.024 A 
ATOM     10  C   UNL     1      -5.189   2.731   1.308  0.00  0.00    +0.041 A 
ENDBRANCH   1  10
BRANCH   2  11
ATOM     11  C   UNL     1      -3.781   1.764  -0.884  0.00  0.00    +0.116 A 
ATOM     12  C   UNL     1      -2.909   1.323  -1.882  0.00  0.00    +0.076 A 
ATOM     13  C   UNL     1      -1.570   1.434  -1.508  0.00  0.00    +0.155 A 
ATOM     14  N   UNL     1      -1.270   1.922  -0.325  0.00  0.00    -0.203 NA
ATOM     15  S   UNL     1      -2.635   2.263   0.385  0.00  0.00    +0.019 S 
BRANCH  13  16
ATOM     16  C   UNL     1      -0.501   1.012  -2.432  0.00  0.00    +0.262 C 
ATOM     17  O   UNL     1      -0.785   0.562  -3.525  0.00  0.00    -0.269 OA
ATOM     18  N   UNL     1       0.791   1.132  -2.067  0.00  0.00    -0.324 N 
ATOM     19  H   UNL     1       1.494   0.858  -2.677  0.00  0.00    +0.145 HD
ATOM     20  H   UNL     1       1.018   1.491  -1.196  0.00  0.00    +0.145 HD
ENDBRANCH  13  16
BRANCH  12  21
ATOM     21  N   UNL     1      -3.329   0.827  -3.108  0.00  0.00    -0.355 N 
ATOM     22  H   UNL     1      -2.675   0.531  -3.761  0.00  0.00    +0.142 HD
ATOM     23  H   UNL     1      -4.276   0.774  -3.312  0.00  0.00    +0.142 HD
ENDBRANCH  12  21
ENDBRANCH   2  11
BRANCH   1  24
ATOM     24  C   UNL     1      -7.367   2.330   0.192  0.00  0.00    +0.197 C 
BRANCH  24  25
ATOM     25  C   UNL     1      -7.856   2.756   1.553  0.00  0.00    -0.018 A 
ATOM     26  C   UNL     1      -7.581   4.028   2.018  0.00  0.00    +0.009 A 
ATOM     27  C   UNL     1      -8.034   4.423   3.262  0.00  0.00    +0.046 A 
ATOM     28  C   UNL     1      -8.754   3.537   4.050  0.00  0.00    +0.117 A 
ATOM     29  C   UNL     1      -9.024   2.258   3.583  0.00  0.00    +0.046 A 
ATOM     30  C   UNL     1      -8.575   1.871   2.336  0.00  0.00    +0.009 A 
BRANCH  28  31
ATOM     31  O   UNL     1      -9.194   3.920   5.277  0.00  0.00    -0.507 OA
ATOM     32  H   UNL     1      -8.569   3.740   5.993  0.00  0.00    +0.292 HD
ENDBRANCH  28  31
ENDBRANCH  24  25
BRANCH  24  33
ATOM     33  C   UNL     1      -7.839   3.318  -0.843  0.00  0.00    +0.238 C 
ATOM     34  O   UNL     1      -7.031   3.925  -1.515  0.00  0.00    -0.273 OA
ATOM     35  N   UNL     1      -9.158   3.529  -1.022  0.00  0.00    -0.313 N 
ATOM     36  H   UNL     1      -9.804   3.044  -0.485  0.00  0.00    +0.149 HD
BRANCH  35  37
ATOM     37  C   UNL     1      -9.616   4.490  -2.029  0.00  0.00    +0.104 C 
BRANCH  37  38
ATOM     38  C   UNL     1     -11.146   4.538  -2.029  0.00  0.00    +0.022 C 
BRANCH  38  39
ATOM     39  C   UNL     1     -11.624   5.541  -3.080  0.00  0.00    -0.016 C 
ATOM     40  C   UNL     1     -13.151   5.499  -3.167  0.00  0.00    +0.007 C 
ATOM     41  C   UNL     1     -11.175   6.949  -2.683  0.00  0.00    +0.007 C 
ENDBRANCH  38  39
ENDBRANCH  37  38
ENDBRANCH  35  37
ENDBRANCH  24  33
ENDBRANCH   1  24
TORSDOF 11
