REMARK  Name = ZINC11819202
REMARK  9 active torsions:
REMARK  status: ('A' for Active; 'I' for Inactive)
REMARK    1  A    between atoms: C_1  and  C_2
REMARK    2  A    between atoms: C_8  and  C_9
REMARK    3  A    between atoms: C_8  and  N_62
REMARK    4  A    between atoms: C_12  and  S_18
REMARK    5  A    between atoms: N_13  and  C_14
REMARK    6  A    between atoms: C_14  and  C_15
REMARK    7  A    between atoms: C_15  and  O_16
REMARK    8  A    between atoms: O_16  and  C_17
REMARK    9  A    between atoms: S_18  and  C_21
REMARK                            x       y       z     vdW  Elec       q    Type
REMARK                         _______ _______ _______ _____ _____    ______ ____
ROOT
ATOM      1  C   UNL     1      -0.099  -0.787  -1.091  0.00  0.00    +0.023 A 
ATOM      2  C   UNL     1      -0.126  -2.047  -0.617  0.00  0.00    +0.133 A 
ATOM      3  N   UNL     1       0.040  -1.993   0.713  0.00  0.00    -0.220 NA
ATOM      4  C   UNL     1       0.175  -0.748   1.080  0.00  0.00    +0.252 A 
ATOM      5  N   UNL     1       0.098   0.037  -0.016  0.00  0.00    -0.313 N 
ENDROOT
BRANCH   4   6
ATOM      6  S   UNL     1       0.416  -0.185   2.732  0.00  0.00    +0.033 S 
ATOM      7  O   UNL     1       1.028  -1.278   3.403  0.00  0.00    -0.166 OA
ATOM      8  O   UNL     1       1.097   1.055   2.597  0.00  0.00    -0.166 OA
BRANCH   6   9
ATOM      9  C   UNL     1      -1.256   0.089   3.380  0.00  0.00    +0.139 C 
ATOM     10  C   UNL     1      -2.018   1.022   2.418  0.00  0.00    +0.027 C 
ATOM     11  C   UNL     1      -3.495   0.844   2.649  0.00  0.00    +0.002 C 
ATOM     12  C   UNL     1      -4.063   1.877   3.641  0.00  0.00    +0.000 C 
ATOM     13  C   UNL     1      -3.136   2.119   4.848  0.00  0.00    +0.000 C 
ATOM     14  C   UNL     1      -2.538   0.845   5.379  0.00  0.00    +0.002 C 
ATOM     15  C   UNL     1      -1.157   0.641   4.723  0.00  0.00    +0.027 C 
ENDBRANCH   6   9
ENDBRANCH   4   6
BRANCH   1  16
ATOM     16  C   UNL     1      -0.252  -0.365  -2.530  0.00  0.00    -0.023 C 
BRANCH  16  23
ATOM     17  C   UNL     1       2.244   0.748  -6.619  0.00  0.00    +0.005 C 
ATOM     18  C   UNL     1       2.356   0.435  -5.125  0.00  0.00    -0.031 C 
ATOM     19  C   UNL     1       3.267  -0.779  -4.924  0.00  0.00    -0.001 C 
ATOM     20  C   UNL     1       3.325  -1.121  -3.432  0.00  0.00    -0.018 C 
ATOM     21  C   UNL     1       1.908  -1.387  -2.919  0.00  0.00    -0.078 C 
ATOM     22  C   UNL     1       0.967   0.124  -4.563  0.00  0.00    -0.075 C 
ATOM     23  N   UNL     1       1.089  -0.173  -3.120  0.00  0.00    +0.384 N 
ATOM     24  H   UNL     1       1.548   0.619  -2.655  0.00  0.00    -0.081 HD
ENDBRANCH  16  23
ENDBRANCH   1  16
BRANCH   5  25
ATOM     25  C   UNL     1       0.200   1.498  -0.047  0.00  0.00    +0.152 C 
BRANCH  25  26
ATOM     26  C   UNL     1       1.645   1.902  -0.343  0.00  0.00    +0.181 C 
BRANCH  26  27
ATOM     27  O   UNL     1       1.745   3.328  -0.374  0.00  0.00    -0.381 OA
ATOM     28  C   UNL     1       3.062   3.813  -0.645  0.00  0.00    +0.194 C 
ENDBRANCH  26  27
ENDBRANCH  25  26
ENDBRANCH   5  25
TORSDOF 7
