REMARK  Name = ZINC11423681
REMARK  7 active torsions:
REMARK  status: ('A' for Active; 'I' for Inactive)
REMARK    1  A    between atoms: C_1  and  C_2
REMARK    2  A    between atoms: C_2  and  C_25
REMARK    3  A    between atoms: C_4  and  N_9
REMARK    4  A    between atoms: C_6  and  C_7
REMARK    5  A    between atoms: C_6  and  C_8
REMARK    6  A    between atoms: C_10  and  C_12
REMARK    7  A    between atoms: C_12  and  C_13
REMARK                            x       y       z     vdW  Elec       q    Type
REMARK                         _______ _______ _______ _____ _____    ______ ____
ROOT
ATOM      1  N   UNL     1       1.387   3.013   0.097  0.00  0.00    -0.313 N 
ATOM      2  C   UNL     1       2.449   3.645   0.636  0.00  0.00    +0.215 C 
ATOM      3  O   UNL     1       3.391   3.003   1.050  0.00  0.00    -0.276 OA
ATOM      4  H   UNL     1       0.634   3.527  -0.234  0.00  0.00    +0.149 HD
ENDROOT
BRANCH   1   8
ATOM      5  C   UNL     1       0.264  -1.113   1.167  0.00  0.00    -0.010 C 
ATOM      6  C   UNL     1      -0.124  -0.460  -0.160  0.00  0.00    -0.072 C 
ATOM      7  C   UNL     1      -0.077   1.062  -0.030  0.00  0.00    +0.009 C 
ATOM      8  C   UNL     1       1.371   1.547   0.009  0.00  0.00    +0.070 C 
ATOM      9  C   UNL     1       2.074   1.114  -1.277  0.00  0.00    +0.009 C 
ATOM     10  C   UNL     1       2.038  -0.408  -1.415  0.00  0.00    -0.072 C 
ATOM     11  C   UNL     1       3.021  -1.048  -0.434  0.00  0.00    -0.010 C 
ATOM     12  C   UNL     1       2.523  -0.752  -2.842  0.00  0.00    -0.010 C 
ATOM     13  C   UNL     1      -1.591  -0.852  -0.453  0.00  0.00    -0.010 C 
ATOM     14  N   UNL     1       0.668  -0.979  -1.308  0.00  0.00    +0.386 N 
ATOM     15  H   UNL     1       0.161  -0.762  -2.173  0.00  0.00    -0.084 HD
ATOM     16  H   UNL     1       0.751  -1.997  -1.206  0.00  0.00    -0.084 HD
ENDBRANCH   1   8
BRANCH   2  17
ATOM     17  C   UNL     1       2.465   5.149   0.726  0.00  0.00    +0.119 C 
BRANCH  17  18
ATOM     18  C   UNL     1       3.773   5.608   1.374  0.00  0.00    +0.146 C 
ATOM     19  C   UNL     1       3.836   7.113   1.377  0.00  0.00    +0.231 C 
ATOM     20  O   UNL     1       4.473   7.665   0.505  0.00  0.00    -0.274 OA
ATOM     21  N   UNL     1       3.228   7.865   2.289  0.00  0.00    -0.284 N 
ATOM     22  C   UNL     1       2.557   7.416   3.422  0.00  0.00    +0.047 A 
ATOM     23  C   UNL     1       1.683   8.277   4.078  0.00  0.00    +0.024 A 
ATOM     24  C   UNL     1       0.989   7.849   5.193  0.00  0.00    +0.002 A 
ATOM     25  C   UNL     1       1.154   6.561   5.670  0.00  0.00    +0.001 A 
ATOM     26  C   UNL     1       2.023   5.696   5.030  0.00  0.00    +0.016 A 
ATOM     27  C   UNL     1       2.723   6.122   3.913  0.00  0.00    +0.030 A 
ATOM     28  S   UNL     1       3.840   5.025   3.096  0.00  0.00    -0.110 S 
ATOM     29  H   UNL     1       3.256   8.825   2.151  0.00  0.00    +0.155 HD
ENDBRANCH  17  18
ENDBRANCH   2  17
TORSDOF 3
