REMARK  Name = ZINC10433722
REMARK  8 active torsions:
REMARK  status: ('A' for Active; 'I' for Inactive)
REMARK    1  A    between atoms: C_1  and  S_2
REMARK    2  A    between atoms: S_2  and  C_3
REMARK    3  A    between atoms: C_7  and  N_9
REMARK    4  A    between atoms: C_10  and  C_12
REMARK    5  A    between atoms: C_12  and  S_13
REMARK    6  A    between atoms: S_13  and  C_14
REMARK    7  A    between atoms: N_23  and  C_24
REMARK    8  A    between atoms: C_24  and  C_25
REMARK                            x       y       z     vdW  Elec       q    Type
REMARK                         _______ _______ _______ _____ _____    ______ ____
ROOT
ATOM      1  C   UNL     1       2.458   9.782   0.484  0.00  0.00    +0.173 A 
ATOM      2  N   UNL     1       1.219  10.194   0.476  0.00  0.00    -0.222 NA
ATOM      3  C   UNL     1       0.897  11.518   0.574  0.00  0.00    +0.086 A 
ATOM      4  C   UNL     1      -0.375  12.107   0.580  0.00  0.00    +0.036 A 
ATOM      5  C   UNL     1      -0.503  13.447   0.684  0.00  0.00    +0.048 A 
ATOM      6  S   UNL     1       1.192  13.998   0.786  0.00  0.00    -0.090 S 
ATOM      7  C   UNL     1       1.978  12.412   0.683  0.00  0.00    +0.102 A 
ATOM      8  C   UNL     1       3.297  11.964   0.691  0.00  0.00    +0.269 A 
ATOM      9  O   UNL     1       4.224  12.750   0.786  0.00  0.00    -0.266 OA
ATOM     10  N   UNL     1       3.522  10.632   0.595  0.00  0.00    -0.282 N 
ENDROOT
BRANCH   1  11
ATOM     11  S   UNL     1       2.772   8.053   0.354  0.00  0.00    -0.078 S 
BRANCH  11  12
ATOM     12  C   UNL     1       1.075   7.433   0.246  0.00  0.00    +0.173 C 
BRANCH  12  14
ATOM     13  N   UNL     1      -0.062   5.247   0.030  0.00  0.00    -0.285 N 
ATOM     14  C   UNL     1       1.095   5.931   0.125  0.00  0.00    +0.227 C 
ATOM     15  O   UNL     1       2.153   5.338   0.112  0.00  0.00    -0.275 OA
ATOM     16  H   UNL     1      -0.904   5.724  -0.036  0.00  0.00    +0.155 HD
BRANCH  13  21
ATOM     17  C   UNL     1      -0.971   1.758  -0.714  0.00  0.00    +0.009 A 
ATOM     18  C   UNL     1      -0.017   1.076   0.032  0.00  0.00    +0.015 A 
ATOM     19  C   UNL     1       0.918   1.778   0.766  0.00  0.00    +0.003 A 
ATOM     20  C   UNL     1       0.905   3.160   0.767  0.00  0.00    +0.023 A 
ATOM     21  C   UNL     1      -0.050   3.848   0.029  0.00  0.00    +0.034 A 
ATOM     22  C   UNL     1      -0.991   3.146  -0.711  0.00  0.00    +0.038 A 
BRANCH  17  24
ATOM     23  C   UNL     1      -1.746  -0.877  -1.346  0.00  0.00    +0.090 C 
ATOM     24  S   UNL     1      -2.159   0.861  -1.657  0.00  0.00    -0.129 S 
ENDBRANCH  17  24
ENDBRANCH  13  21
ENDBRANCH  12  14
ENDBRANCH  11  12
ENDBRANCH   1  11
BRANCH  10  25
ATOM     25  C   UNL     1       4.891  10.109   0.603  0.00  0.00    +0.162 C 
BRANCH  25  26
ATOM     26  C   UNL     1       5.413  10.046  -0.809  0.00  0.00    -0.024 A 
ATOM     27  C   UNL     1       6.078  11.132  -1.347  0.00  0.00    +0.009 A 
ATOM     28  C   UNL     1       6.560  11.079  -2.642  0.00  0.00    +0.050 A 
ATOM     29  C   UNL     1       6.377   9.937  -3.403  0.00  0.00    +0.166 A 
ATOM     30  C   UNL     1       5.708   8.842  -2.861  0.00  0.00    +0.167 A 
ATOM     31  C   UNL     1       5.232   8.900  -1.561  0.00  0.00    +0.055 A 
ATOM     32  O   UNL     1       5.658   7.853  -3.800  0.00  0.00    -0.453 OA
ATOM     33  C   UNL     1       6.658   8.198  -4.776  0.00  0.00    +0.466 C 
ATOM     34  O   UNL     1       6.747   9.632  -4.681  0.00  0.00    -0.453 OA
ENDBRANCH  25  26
ENDBRANCH  10  25
TORSDOF 7
