REMARK  Name = ZINC08407741
REMARK  9 active torsions:
REMARK  status: ('A' for Active; 'I' for Inactive)
REMARK    1  A    between atoms: C_1  and  O_2
REMARK    2  A    between atoms: O_2  and  C_3
REMARK    3  A    between atoms: C_3  and  C_5
REMARK    4  A    between atoms: C_8  and  N_11
REMARK    5  A    between atoms: C_15  and  S_19
REMARK    6  A    between atoms: S_19  and  C_20
REMARK    7  A    between atoms: N_21  and  C_22
REMARK    8  A    between atoms: N_28  and  C_29
REMARK    9  A    between atoms: C_29  and  C_30
REMARK                            x       y       z     vdW  Elec       q    Type
REMARK                         _______ _______ _______ _____ _____    ______ ____
ROOT
ATOM      1  C   UNL     1       1.066  -8.974  -4.863  0.00  0.00    +0.155 C 
ATOM      2  N   UNL     1       2.357  -8.732  -4.905  0.00  0.00    -0.226 NA
ATOM      3  N   UNL     1       0.375  -9.217  -6.025  0.00  0.00    -0.320 N 
ATOM      4  H   UNL     1       0.822  -9.135  -6.881  0.00  0.00    +0.148 HD
ENDROOT
BRANCH   2   5
ATOM      5  C   UNL     1       3.034  -8.834  -6.090  0.00  0.00    +0.066 A 
ATOM      6  C   UNL     1       2.989 -10.021  -6.824  0.00  0.00    +0.028 A 
ATOM      7  C   UNL     1       3.674 -10.116  -8.018  0.00  0.00    +0.002 A 
ATOM      8  C   UNL     1       4.404  -9.039  -8.488  0.00  0.00    +0.000 A 
ATOM      9  C   UNL     1       4.454  -7.860  -7.766  0.00  0.00    +0.002 A 
ATOM     10  C   UNL     1       3.769  -7.749  -6.573  0.00  0.00    +0.028 A 
ENDBRANCH   2   5
BRANCH   1  11
ATOM     11  S   UNL     1       0.221  -8.985  -3.317  0.00  0.00    -0.077 S 
BRANCH  11  16
ATOM     12  N   UNL     1       1.721  -6.551  -1.060  0.00  0.00    -0.209 N 
ATOM     13  C   UNL     1       1.158  -7.319  -0.120  0.00  0.00    +0.228 C 
ATOM     14  O   UNL     1       0.851  -6.954   0.994  0.00  0.00    -0.275 OA
ATOM     15  C   UNL     1       0.965  -8.716  -0.669  0.00  0.00    +0.120 C 
ATOM     16  C   UNL     1       1.520  -8.621  -2.104  0.00  0.00    +0.149 C 
ATOM     17  C   UNL     1       1.963  -7.178  -2.218  0.00  0.00    +0.240 C 
ATOM     18  O   UNL     1       2.462  -6.672  -3.200  0.00  0.00    -0.274 OA
BRANCH  12  22
ATOM     19  C   UNL     1       2.631  -2.530  -0.441  0.00  0.00    +0.059 A 
ATOM     20  C   UNL     1       1.622  -2.889  -1.339  0.00  0.00    +0.017 A 
ATOM     21  C   UNL     1       1.325  -4.219  -1.541  0.00  0.00    +0.025 A 
ATOM     22  C   UNL     1       2.026  -5.202  -0.853  0.00  0.00    +0.044 A 
ATOM     23  C   UNL     1       3.030  -4.848   0.042  0.00  0.00    +0.025 A 
ATOM     24  C   UNL     1       3.337  -3.522   0.245  0.00  0.00    +0.017 A 
BRANCH  19  25
ATOM     25  C   UNL     1       2.952  -1.107  -0.221  0.00  0.00    +0.339 C 
ATOM     26  O   UNL     1       3.832  -0.796   0.556  0.00  0.00    -0.245 OA
BRANCH  25  28
ATOM     27  C   UNL     1       2.634   1.205  -0.622  0.00  0.00    +0.280 C 
ATOM     28  O   UNL     1       2.270  -0.152  -0.883  0.00  0.00    -0.464 OA
ENDBRANCH  25  28
ENDBRANCH  19  25
ENDBRANCH  12  22
ENDBRANCH  11  16
ENDBRANCH   1  11
BRANCH   3  29
ATOM     29  C   UNL     1      -1.038  -9.601  -5.970  0.00  0.00    +0.139 C 
BRANCH  29  30
ATOM     30  C   UNL     1      -1.530  -9.905  -7.362  0.00  0.00    -0.027 A 
ATOM     31  C   UNL     1      -2.067  -8.896  -8.140  0.00  0.00    +0.009 A 
ATOM     32  C   UNL     1      -2.519  -9.171  -9.417  0.00  0.00    +0.050 A 
ATOM     33  C   UNL     1      -2.436 -10.459  -9.920  0.00  0.00    +0.166 A 
ATOM     34  C   UNL     1      -1.895 -11.475  -9.136  0.00  0.00    +0.167 A 
ATOM     35  C   UNL     1      -1.438 -11.192  -7.859  0.00  0.00    +0.054 A 
ATOM     36  O   UNL     1      -1.924 -12.639  -9.850  0.00  0.00    -0.453 OA
ATOM     37  C   UNL     1      -2.859 -12.410 -10.921  0.00  0.00    +0.466 C 
ATOM     38  O   UNL     1      -2.803 -10.986 -11.125  0.00  0.00    -0.453 OA
ENDBRANCH  29  30
ENDBRANCH   3  29
TORSDOF 8
