REMARK  Name = ZINC36156854
REMARK  11 active torsions:
REMARK  status: ('A' for Active; 'I' for Inactive)
REMARK    1  A    between atoms: C_3  and  C_6
REMARK    2  A    between atoms: C_6  and  N_7
REMARK    3  A    between atoms: N_7  and  C_8
REMARK    4  A    between atoms: N_7  and  C_24
REMARK    5  A    between atoms: C_8  and  C_9
REMARK    6  A    between atoms: C_24  and  C_25
REMARK    7  A    between atoms: C_25  and  C_27
REMARK    8  A    between atoms: C_25  and  O_35
REMARK    9  A    between atoms: C_27  and  O_28
REMARK   10  A    between atoms: O_28  and  C_29
REMARK   11  A    between atoms: C_29  and  C_30
REMARK                            x       y       z     vdW  Elec       q    Type
REMARK                         _______ _______ _______ _____ _____    ______ ____
ROOT
ATOM      1  N   UNL     1       4.136   1.061   1.593  0.00  0.00    +0.391 N 
ATOM      2  H   UNL     1       3.969   1.898   2.131  0.00  0.00    -0.080 HD
ENDROOT
BRANCH   1   3
ATOM      3  C   UNL     1       3.254   1.048   0.419  0.00  0.00    -0.002 C 
BRANCH   3   6
ATOM      4  C   UNL     1      -0.165   1.855   1.531  0.00  0.00    +0.041 A 
ATOM      5  C   UNL     1       1.140   2.247   1.154  0.00  0.00    +0.042 A 
ATOM      6  C   UNL     1       1.818   1.121   0.869  0.00  0.00    +0.089 A 
ATOM      7  O   UNL     1       0.998   0.074   1.052  0.00  0.00    -0.470 OA
ATOM      8  C   UNL     1      -0.206   0.513   1.454  0.00  0.00    +0.195 A 
ENDBRANCH   3   6
ENDBRANCH   1   3
BRANCH   1   9
ATOM      9  C   UNL     1       3.862  -0.119   2.425  0.00  0.00    -0.003 C 
BRANCH   9  10
ATOM     10  C   UNL     1       4.647  -0.023   3.707  0.00  0.00    +0.094 A 
ATOM     11  N   UNL     1       4.642  -1.070   4.572  0.00  0.00    -0.312 N 
ATOM     12  H   UNL     1       4.132  -1.865   4.352  0.00  0.00    +0.170 HD
ATOM     13  C   UNL     1       5.330  -1.026   5.729  0.00  0.00    +0.260 A 
ATOM     14  O   UNL     1       5.316  -1.975   6.494  0.00  0.00    -0.267 OA
ATOM     15  C   UNL     1       6.080   0.153   6.044  0.00  0.00    +0.075 A 
ATOM     16  C   UNL     1       6.893   0.423   7.230  0.00  0.00    -0.023 A 
ATOM     17  C   UNL     1       7.506   1.624   7.291  0.00  0.00    -0.004 A 
ATOM     18  S   UNL     1       7.045   2.453   5.794  0.00  0.00    -0.073 S 
ATOM     19  C   UNL     1       6.025   1.181   5.090  0.00  0.00    +0.116 A 
ATOM     20  N   UNL     1       5.326   1.063   3.965  0.00  0.00    -0.229 NA
ATOM     21  C   UNL     1       8.385   2.139   8.389  0.00  0.00    +0.043 C 
ATOM     22  C   UNL     1       8.193   1.245   9.623  0.00  0.00    +0.005 C 
ATOM     23  C   UNL     1       8.283  -0.220   9.186  0.00  0.00    +0.005 C 
ATOM     24  C   UNL     1       7.052  -0.592   8.358  0.00  0.00    +0.037 C 
ENDBRANCH   9  10
ENDBRANCH   1   9
BRANCH   1  25
ATOM     25  C   UNL     1       5.538   1.034   1.153  0.00  0.00    -0.044 C 
BRANCH  25  26
ATOM     26  C   UNL     1       5.877   2.351   0.453  0.00  0.00    +0.124 C 
BRANCH  26  27
ATOM     27  O   UNL     1       5.169   2.428  -0.786  0.00  0.00    -0.391 OA
ATOM     28  H   UNL     1       5.378   1.714  -1.404  0.00  0.00    +0.210 HD
ENDBRANCH  26  27
BRANCH  26  29
ATOM     29  C   UNL     1       7.382   2.413   0.184  0.00  0.00    +0.189 C 
BRANCH  29  30
ATOM     30  O   UNL     1       7.717   3.689  -0.364  0.00  0.00    -0.370 OA
BRANCH  30  31
ATOM     31  C   UNL     1       9.107   3.852  -0.653  0.00  0.00    +0.234 C 
BRANCH  31  32
ATOM     32  C   UNL     1       9.344   5.227  -1.224  0.00  0.00    +0.130 A 
ATOM     33  C   UNL     1       9.636   6.332  -0.515  0.00  0.00    +0.047 A 
ATOM     34  C   UNL     1       9.775   7.389  -1.445  0.00  0.00    +0.041 A 
ATOM     35  C   UNL     1       9.559   6.865  -2.665  0.00  0.00    +0.195 A 
ATOM     36  O   UNL     1       9.304   5.554  -2.525  0.00  0.00    -0.465 OA
ENDBRANCH  31  32
ENDBRANCH  30  31
ENDBRANCH  29  30
ENDBRANCH  26  29
ENDBRANCH  25  26
ENDBRANCH   1  25
TORSDOF 11
