REMARK  Name = ZINC05504862
REMARK  9 active torsions:
REMARK  status: ('A' for Active; 'I' for Inactive)
REMARK    1  A    between atoms: C_1  and  C_2
REMARK    2  A    between atoms: C_2  and  C_3
REMARK    3  A    between atoms: C_2  and  C_4
REMARK    4  A    between atoms: C_2  and  C_5
REMARK    5  A    between atoms: C_7  and  N_10
REMARK    6  A    between atoms: C_11  and  C_13
REMARK    7  A    between atoms: C_13  and  O_14
REMARK    8  A    between atoms: O_14  and  C_15
REMARK    9  A    between atoms: C_15  and  C_17
REMARK                            x       y       z     vdW  Elec       q    Type
REMARK                         _______ _______ _______ _____ _____    ______ ____
ROOT
ATOM      1  C   UNL     1       3.836  -3.111  -0.053  0.00  0.00    +0.328 C 
ENDROOT
BRANCH   1   3
ATOM      2  N   UNL     1       1.890  -1.584  -0.025  0.00  0.00    -0.251 N 
ATOM      3  C   UNL     1       3.229  -1.731  -0.039  0.00  0.00    +0.257 C 
ATOM      4  O   UNL     1       3.947  -0.753  -0.040  0.00  0.00    -0.272 OA
ATOM      5  H   UNL     1       1.316  -2.366  -0.025  0.00  0.00    +0.158 HD
BRANCH   2   8
ATOM      6  C   UNL     1      -0.017   1.405   0.010  0.00  0.00    +0.091 A 
ATOM      7  C   UNL     1       0.002  -0.004   0.002  0.00  0.00    +0.092 A 
ATOM      8  C   UNL     1       1.331  -0.314  -0.012  0.00  0.00    +0.224 A 
ATOM      9  O   UNL     1       1.990   0.855  -0.012  0.00  0.00    -0.339 OA
ATOM     10  N   UNL     1       1.227   1.793   0.000  0.00  0.00    -0.081 NA
BRANCH   6  12
ATOM     11  C   UNL     1      -1.862   2.280   1.417  0.00  0.00    +0.017 C 
ATOM     12  C   UNL     1      -1.237   2.290   0.021  0.00  0.00    +0.008 C 
ATOM     13  C   UNL     1      -0.834   3.719  -0.347  0.00  0.00    +0.017 C 
ATOM     14  C   UNL     1      -2.254   1.769  -0.997  0.00  0.00    +0.017 C 
ENDBRANCH   6  12
ENDBRANCH   2   8
ENDBRANCH   1   3
BRANCH   1  15
ATOM     15  O   UNL     1       5.284  -3.003  -0.066  0.00  0.00    -0.452 OA
BRANCH  15  16
ATOM     16  C   UNL     1       5.983  -4.154  -0.079  0.00  0.00    +0.340 C 
ATOM     17  O   UNL     1       5.399  -5.219  -0.080  0.00  0.00    -0.245 OA
BRANCH  16  18
ATOM     18  C   UNL     1       7.460  -4.121  -0.093  0.00  0.00    +0.059 A 
ATOM     19  C   UNL     1       8.137  -2.900  -0.098  0.00  0.00    +0.015 A 
ATOM     20  C   UNL     1       9.513  -2.885  -0.107  0.00  0.00    +0.005 A 
ATOM     21  C   UNL     1      10.237  -4.073  -0.124  0.00  0.00    -0.044 A 
ATOM     22  C   UNL     1       9.575  -5.282  -0.121  0.00  0.00    -0.043 A 
ATOM     23  C   UNL     1       8.189  -5.309  -0.107  0.00  0.00    +0.019 A 
ATOM     24  C   UNL     1      10.299  -6.603  -0.129  0.00  0.00    +0.035 C 
ATOM     25  C   UNL     1      11.748  -6.419  -0.574  0.00  0.00    +0.005 C 
ATOM     26  C   UNL     1      12.373  -5.300   0.268  0.00  0.00    +0.005 C 
ATOM     27  C   UNL     1      11.741  -3.974  -0.148  0.00  0.00    +0.035 C 
ENDBRANCH  16  18
ENDBRANCH  15  16
ENDBRANCH   1  15
TORSDOF 6
