REMARK  Name = ZINC02889398
REMARK  7 active torsions:
REMARK  status: ('A' for Active; 'I' for Inactive)
REMARK    1  A    between atoms: C_1  and  C_2
REMARK    2  A    between atoms: C_5  and  C_9
REMARK    3  A    between atoms: C_7  and  C_8
REMARK    4  A    between atoms: C_14  and  S_17
REMARK    5  A    between atoms: S_17  and  C_18
REMARK    6  A    between atoms: C_18  and  C_19
REMARK    7  A    between atoms: C_24  and  C_27
REMARK                            x       y       z     vdW  Elec       q    Type
REMARK                         _______ _______ _______ _____ _____    ______ ____
ROOT
ATOM      1  S   UNL     1      -5.075   0.858   0.198  0.00  0.00    -0.076 S 
ENDROOT
BRANCH   1   7
ATOM      2  C   UNL     1      -8.529   0.225   0.046  0.00  0.00    +0.065 A 
ATOM      3  C   UNL     1      -9.875   0.232  -0.005  0.00  0.00    +0.075 A 
ATOM      4  S   UNL     1     -10.241   1.980   0.032  0.00  0.00    -0.055 S 
ATOM      5  C   UNL     1      -8.571   2.577   0.114  0.00  0.00    +0.201 A 
ATOM      6  N   UNL     1      -7.829   1.417   0.108  0.00  0.00    -0.264 N 
ATOM      7  C   UNL     1      -6.520   1.867   0.172  0.00  0.00    +0.197 A 
ATOM      8  N   UNL     1      -6.549   3.174   0.216  0.00  0.00    -0.121 NA
ATOM      9  N   UNL     1      -7.766   3.591   0.176  0.00  0.00    -0.121 NA
BRANCH   2  14
ATOM     10  C   UNL     1      -5.682  -4.776   0.007  0.00  0.00    +0.044 C 
ATOM     11  C   UNL     1      -6.428  -3.466   0.017  0.00  0.00    -0.047 A 
ATOM     12  C   UNL     1      -5.918  -2.378  -0.669  0.00  0.00    +0.004 A 
ATOM     13  C   UNL     1      -6.598  -1.178  -0.668  0.00  0.00    +0.010 A 
ATOM     14  C   UNL     1      -7.798  -1.060   0.036  0.00  0.00    -0.000 A 
ATOM     15  C   UNL     1      -8.307  -2.161   0.725  0.00  0.00    +0.013 A 
ATOM     16  C   UNL     1      -7.619  -3.357   0.712  0.00  0.00    -0.047 A 
ATOM     17  C   UNL     1      -8.167  -4.548   1.456  0.00  0.00    +0.044 C 
ENDBRANCH   2  14
ENDBRANCH   1   7
BRANCH   1  18
ATOM     18  C   UNL     1      -3.710   2.050   0.287  0.00  0.00    +0.173 C 
BRANCH  18  19
ATOM     19  C   UNL     1      -2.398   1.309   0.315  0.00  0.00    +0.230 C 
ATOM     20  O   UNL     1      -2.385   0.097   0.279  0.00  0.00    -0.274 OA
ATOM     21  N   UNL     1      -1.239   1.994   0.380  0.00  0.00    -0.253 N 
ATOM     22  C   UNL     1      -0.022   1.307   0.407  0.00  0.00    +0.230 A 
ATOM     23  N   UNL     1       1.109   1.970   0.465  0.00  0.00    -0.205 NA
ATOM     24  C   UNL     1       2.248   1.286   0.484  0.00  0.00    +0.130 A 
ATOM     25  S   UNL     1       1.673  -0.350   0.415  0.00  0.00    +0.035 S 
ATOM     26  N   UNL     1      -0.004  -0.010   0.368  0.00  0.00    -0.174 NA
ATOM     27  H   UNL     1      -1.250   2.963   0.409  0.00  0.00    +0.158 HD
BRANCH  24  28
ATOM     28  C   UNL     1       3.638   1.787   0.546  0.00  0.00    +0.009 A 
ATOM     29  C   UNL     1       3.887   3.159   0.590  0.00  0.00    +0.012 A 
ATOM     30  C   UNL     1       5.185   3.620   0.654  0.00  0.00    +0.020 A 
ATOM     31  C   UNL     1       6.241   2.724   0.664  0.00  0.00    +0.041 A 
ATOM     32  C   UNL     1       6.000   1.362   0.615  0.00  0.00    +0.020 A 
ATOM     33  C   UNL     1       4.706   0.889   0.557  0.00  0.00    +0.012 A 
ATOM     34 CL   UNL     1       7.873   3.312   0.736  0.00  0.00    -0.084 Cl
ENDBRANCH  24  28
ENDBRANCH  18  19
ENDBRANCH   1  18
TORSDOF 5
