REMARK  Name = ZINC00301690
REMARK  8 active torsions:
REMARK  status: ('A' for Active; 'I' for Inactive)
REMARK    1  A    between atoms: C_1  and  C_2
REMARK    2  A    between atoms: C_2  and  O_3
REMARK    3  A    between atoms: O_3  and  P_4
REMARK    4  A    between atoms: P_4  and  C_6
REMARK    5  A    between atoms: P_4  and  C_12
REMARK    6  A    between atoms: C_12  and  C_14
REMARK    7  A    between atoms: C_12  and  O_23
REMARK    8  A    between atoms: C_17  and  N_20
REMARK                            x       y       z     vdW  Elec       q    Type
REMARK                         _______ _______ _______ _____ _____    ______ ____
ROOT
ATOM      1  C   UNL     1      -0.579  -2.897  -1.800  0.00  0.00    +0.235 C 
ENDROOT
BRANCH   1   2
ATOM      2  C   UNL     1      -1.177  -2.373  -3.081  0.00  0.00    -0.009 A 
ATOM      3  C   UNL     1      -2.128  -1.370  -3.040  0.00  0.00    +0.009 A 
ATOM      4  C   UNL     1      -2.676  -0.889  -4.214  0.00  0.00    +0.033 A 
ATOM      5  C   UNL     1      -2.273  -1.410  -5.429  0.00  0.00    +0.126 A 
ATOM      6  C   UNL     1      -1.321  -2.412  -5.470  0.00  0.00    +0.033 A 
ATOM      7  C   UNL     1      -0.770  -2.890  -4.296  0.00  0.00    +0.009 A 
BRANCH   5   8
ATOM      8  N   UNL     1      -2.861  -0.896  -6.687  0.00  0.00    +0.056 N 
ATOM      9  O   UNL     1      -3.693  -0.020  -6.651  0.00  0.00    -0.126 OA
ATOM     10  O   UNL     1      -2.508  -1.352  -7.749  0.00  0.00    -0.126 OA
ENDBRANCH   5   8
ENDBRANCH   1   2
BRANCH   1  11
ATOM     11  P   UNL     1       0.955  -1.986  -1.428  0.00  0.00    +0.265 P 
ATOM     12  O   UNL     1       1.600  -2.574  -0.233  0.00  0.00    -0.283 OA
BRANCH  11  13
ATOM     13  C   UNL     1       2.084  -2.098  -2.843  0.00  0.00    +0.039 A 
ATOM     14  C   UNL     1       2.039  -1.143  -3.841  0.00  0.00    +0.013 A 
ATOM     15  C   UNL     1       2.900  -1.229  -4.919  0.00  0.00    +0.001 A 
ATOM     16  C   UNL     1       3.806  -2.270  -4.999  0.00  0.00    +0.000 A 
ATOM     17  C   UNL     1       3.851  -3.225  -4.001  0.00  0.00    +0.001 A 
ATOM     18  C   UNL     1       2.994  -3.137  -2.920  0.00  0.00    +0.013 A 
ENDBRANCH  11  13
BRANCH  11  19
ATOM     19  O   UNL     1       0.605  -0.440  -1.142  0.00  0.00    -0.323 OA
BRANCH  19  21
ATOM     20  C   UNL     1      -0.212   1.517   0.017  0.00  0.00    +0.034 C 
ATOM     21  C   UNL     1      -0.173  -0.012  -0.022  0.00  0.00    +0.165 C 
ENDBRANCH  19  21
ENDBRANCH  11  19
ENDBRANCH   1  11
BRANCH   1  22
ATOM     22  O   UNL     1      -0.283  -4.287  -1.947  0.00  0.00    -0.377 OA
ATOM     23  H   UNL     1       0.344  -4.483  -2.656  0.00  0.00    +0.211 HD
ENDBRANCH   1  22
TORSDOF 7
