REMARK  Name = ZINC45766189
REMARK  8 active torsions:
REMARK  status: ('A' for Active; 'I' for Inactive)
REMARK    1  A    between atoms: C_1  and  C_2
REMARK    2  A    between atoms: C_3  and  C_13
REMARK    3  A    between atoms: C_5  and  C_7
REMARK    4  A    between atoms: C_13  and  S_14
REMARK    5  A    between atoms: S_14  and  C_15
REMARK    6  A    between atoms: C_18  and  C_27
REMARK    7  A    between atoms: N_19  and  C_20
REMARK    8  A    between atoms: C_20  and  C_21
REMARK                            x       y       z     vdW  Elec       q    Type
REMARK                         _______ _______ _______ _____ _____    ______ ____
ROOT
ATOM      1  C   UNL     1      -4.769   0.348  -1.524  0.00  0.00    +0.192 A 
ATOM      2  N   UNL     1      -5.418   0.469  -0.390  0.00  0.00    -0.122 NA
ATOM      3  N   UNL     1      -6.638   0.805  -0.613  0.00  0.00    -0.128 NA
ATOM      4  C   UNL     1      -6.843   0.920  -1.905  0.00  0.00    +0.167 A 
ATOM      5  N   UNL     1      -5.650   0.637  -2.529  0.00  0.00    -0.300 N 
ENDROOT
BRANCH   4   6
ATOM      6  C   UNL     1      -8.112   1.290  -2.563  0.00  0.00    +0.044 A 
ATOM      7  C   UNL     1      -8.275   2.199  -3.559  0.00  0.00    +0.095 A 
ATOM      8  N   UNL     1      -9.592   2.267  -3.910  0.00  0.00    -0.360 N 
ATOM      9  H   UNL     1      -9.954   2.846  -4.599  0.00  0.00    +0.165 HD
ATOM     10  C   UNL     1     -10.335   1.394  -3.143  0.00  0.00    +0.047 A 
ATOM     11  C   UNL     1      -9.447   0.740  -2.272  0.00  0.00    +0.010 A 
ATOM     12  C   UNL     1      -9.926  -0.213  -1.375  0.00  0.00    +0.011 A 
ATOM     13  C   UNL     1     -11.270  -0.512  -1.350  0.00  0.00    +0.001 A 
ATOM     14  C   UNL     1     -12.147   0.132  -2.212  0.00  0.00    +0.002 A 
ATOM     15  C   UNL     1     -11.690   1.082  -3.099  0.00  0.00    +0.026 A 
ENDBRANCH   4   6
BRANCH   1  16
ATOM     16  S   UNL     1      -3.074  -0.096  -1.715  0.00  0.00    -0.080 S 
BRANCH  16  17
ATOM     17  C   UNL     1      -2.490  -0.341  -0.015  0.00  0.00    +0.136 C 
BRANCH  17  20
ATOM     18  C   UNL     1      -0.056   1.618   0.087  0.00  0.00    +0.088 C 
ATOM     19  C   UNL     1       0.012   0.114   0.009  0.00  0.00    +0.127 A 
ATOM     20  C   UNL     1      -1.034  -0.730  -0.035  0.00  0.00    +0.093 A 
ATOM     21  N   UNL     1      -0.551  -1.980  -0.101  0.00  0.00    -0.213 NA
ATOM     22  C   UNL     1       0.760  -1.924  -0.097  0.00  0.00    +0.228 A 
ATOM     23  O   UNL     1       1.132  -0.634  -0.036  0.00  0.00    -0.440 OA
BRANCH  22  24
ATOM     24  C   UNL     1       1.673  -3.084  -0.157  0.00  0.00    +0.037 A 
ATOM     25  C   UNL     1       1.158  -4.379  -0.231  0.00  0.00    +0.013 A 
ATOM     26  C   UNL     1       2.016  -5.458  -0.287  0.00  0.00    +0.001 A 
ATOM     27  C   UNL     1       3.385  -5.258  -0.271  0.00  0.00    +0.000 A 
ATOM     28  C   UNL     1       3.903  -3.977  -0.198  0.00  0.00    +0.001 A 
ATOM     29  C   UNL     1       3.055  -2.889  -0.147  0.00  0.00    +0.013 A 
ENDBRANCH  22  24
ENDBRANCH  17  20
ENDBRANCH  16  17
ENDBRANCH   1  16
BRANCH   5  30
ATOM     30  C   UNL     1      -5.381   0.641  -3.969  0.00  0.00    +0.157 C 
BRANCH  30  31
ATOM     31  C   UNL     1      -5.783  -0.709  -4.567  0.00  0.00    +0.138 C 
ATOM     32  C   UNL     1      -5.592  -0.695  -6.104  0.00  0.00    +0.035 C 
ATOM     33  C   UNL     1      -5.412  -2.210  -6.393  0.00  0.00    +0.031 C 
ATOM     34  C   UNL     1      -4.667  -2.697  -5.132  0.00  0.00    +0.160 C 
ATOM     35  O   UNL     1      -4.913  -1.746  -4.088  0.00  0.00    -0.375 OA
ENDBRANCH  30  31
ENDBRANCH   5  30
TORSDOF 7
