REMARK  Name = ZINC08773268
REMARK  11 active torsions:
REMARK  status: ('A' for Active; 'I' for Inactive)
REMARK    1  A    between atoms: C_1  and  C_2
REMARK    2  A    between atoms: C_2  and  C_3
REMARK    3  A    between atoms: C_2  and  C_4
REMARK    4  A    between atoms: C_2  and  O_5
REMARK    5  A    between atoms: O_5  and  C_6
REMARK    6  A    between atoms: C_15  and  C_27
REMARK    7  A    between atoms: C_17  and  C_23
REMARK    8  A    between atoms: C_17  and  C_25
REMARK    9  A    between atoms: C_18  and  N_22
REMARK   10  A    between atoms: C_19  and  C_20
REMARK   11  A    between atoms: C_30  and  C_33
REMARK                            x       y       z     vdW  Elec       q    Type
REMARK                         _______ _______ _______ _____ _____    ______ ____
ROOT
ATOM      1  C   UNL     1      -0.134   1.940  -3.637  0.00  0.00    +0.404 C 
ATOM      2  O   UNL     1       1.069   1.989  -3.470  0.00  0.00    -0.226 OA
ATOM      3  N   UNL     1      -0.833   0.877  -3.191  0.00  0.00    -0.263 N 
ATOM      4  C   UNL     1      -2.293   0.786  -3.377  0.00  0.00    +0.138 C 
ATOM      5  C   UNL     1      -2.902   0.590  -2.012  0.00  0.00    -0.003 C 
ATOM      6  C   UNL     1      -2.219   0.040  -1.047  0.00  0.00    -0.026 C 
ATOM      7  C   UNL     1      -0.834  -0.521  -1.170  0.00  0.00    +0.048 C 
ATOM      8  C   UNL     1      -0.174  -0.236  -2.501  0.00  0.00    +0.120 C 
ATOM      9  C   UNL     1       0.002  -0.004   0.002  0.00  0.00    +0.068 C 
ATOM     10  C   UNL     1      -0.593  -0.532   1.308  0.00  0.00    +0.188 C 
ATOM     11  C   UNL     1      -2.070  -0.270   1.385  0.00  0.00    +0.054 C 
ATOM     12  C   UNL     1      -2.845  -0.014   0.302  0.00  0.00    +0.074 C 
ENDROOT
BRANCH   9  13
ATOM     13  C   UNL     1      -0.018   1.503   0.010  0.00  0.00    -0.041 A 
ATOM     14  C   UNL     1      -1.085   2.176   0.575  0.00  0.00    +0.004 A 
ATOM     15  C   UNL     1      -1.102   3.559   0.586  0.00  0.00    +0.012 A 
ATOM     16  C   UNL     1      -0.056   4.267   0.025  0.00  0.00    +0.055 A 
ATOM     17  C   UNL     1       1.009   3.594  -0.544  0.00  0.00    +0.012 A 
ATOM     18  C   UNL     1       1.027   2.211  -0.551  0.00  0.00    +0.004 A 
BRANCH  16  19
ATOM     19  C   UNL     1      -0.076   5.774   0.034  0.00  0.00    +0.417 C 
ATOM     20  F   UNL     1      -0.705   6.239  -1.126  0.00  0.00    -0.166 F 
ATOM     21  F   UNL     1      -0.778   6.224   1.157  0.00  0.00    -0.166 F 
ATOM     22  F   UNL     1       1.236   6.258   0.079  0.00  0.00    -0.166 F 
ENDBRANCH  16  19
ENDBRANCH   9  13
BRANCH  11  23
ATOM     23  N   UNL     1      -2.665  -0.291   2.615  0.00  0.00    -0.358 N 
ATOM     24  H   UNL     1      -3.745  -0.104   2.706  0.00  0.00    +0.142 HD
ATOM     25  H   UNL     1      -2.064  -0.495   3.513  0.00  0.00    +0.142 HD
ENDBRANCH  11  23
BRANCH  12  26
ATOM     26  C   UNL     1      -4.252   0.203   0.455  0.00  0.00    +0.101 C 
ATOM     27  N   UNL     1      -5.368   0.375   0.577  0.00  0.00    -0.191 NA
ENDBRANCH  12  26
BRANCH  10  28
ATOM     28  C   UNL     1      -0.357  -1.982   1.392  0.00  0.00    +0.091 C 
ATOM     29  N   UNL     1      -0.175  -3.102   1.457  0.00  0.00    -0.194 NA
ENDBRANCH  10  28
BRANCH  10  30
ATOM     30  C   UNL     1       0.075   0.129   2.442  0.00  0.00    +0.091 C 
ATOM     31  N   UNL     1       0.591   0.638   3.316  0.00  0.00    -0.194 NA
ENDBRANCH  10  30
BRANCH   1  32
ATOM     32  O   UNL     1      -0.767   2.947  -4.267  0.00  0.00    -0.445 OA
BRANCH  32  34
ATOM     33  C   UNL     1       1.099   3.550  -5.710  0.00  0.00    +0.055 C 
ATOM     34  C   UNL     1       0.049   4.059  -4.720  0.00  0.00    +0.107 C 
ATOM     35  C   UNL     1      -0.839   5.097  -5.408  0.00  0.00    +0.055 C 
ATOM     36  C   UNL     1       0.748   4.700  -3.520  0.00  0.00    +0.055 C 
ENDBRANCH  32  34
ENDBRANCH   1  32
TORSDOF 8
