REMARK  Name = ZINC18357146
REMARK  10 active torsions:
REMARK  status: ('A' for Active; 'I' for Inactive)
REMARK    1  A    between atoms: C_1  and  C_2
REMARK    2  A    between atoms: C_2  and  C_3
REMARK    3  A    between atoms: C_2  and  C_4
REMARK    4  A    between atoms: C_4  and  N_5
REMARK    5  A    between atoms: C_6  and  C_27
REMARK    6  A    between atoms: C_9  and  S_10
REMARK    7  A    between atoms: S_10  and  C_11
REMARK    8  A    between atoms: C_11  and  C_12
REMARK    9  A    between atoms: N_14  and  C_15
REMARK   10  A    between atoms: C_16  and  C_24
REMARK                            x       y       z     vdW  Elec       q    Type
REMARK                         _______ _______ _______ _____ _____    ______ ____
ROOT
ATOM      1  C   UNL     1      -1.854  -2.803   3.336  0.00  0.00    +0.173 C 
ENDROOT
BRANCH   1   2
ATOM      2  C   UNL     1      -2.830  -3.864   2.897  0.00  0.00    +0.228 C 
ATOM      3  O   UNL     1      -3.487  -3.703   1.890  0.00  0.00    -0.275 OA
ATOM      4  N   UNL     1      -2.972  -4.991   3.622  0.00  0.00    -0.279 N 
ATOM      5  H   UNL     1      -2.446  -5.119   4.427  0.00  0.00    +0.155 HD
BRANCH   4   6
ATOM      6  C   UNL     1      -3.870  -5.967   3.217  0.00  0.00    +0.084 A 
ATOM      7  C   UNL     1      -4.150  -7.184   3.822  0.00  0.00    +0.068 A 
ATOM      8  C   UNL     1      -5.147  -8.033   3.191  0.00  0.00    -0.023 A 
ATOM      9  C   UNL     1      -5.693  -7.537   2.060  0.00  0.00    -0.004 A 
ATOM     10  S   UNL     1      -4.909  -5.966   1.831  0.00  0.00    -0.077 S 
ATOM     11  C   UNL     1      -6.732  -8.186   1.198  0.00  0.00    +0.043 C 
ATOM     12  C   UNL     1      -6.821  -9.670   1.582  0.00  0.00    +0.005 C 
ATOM     13  C   UNL     1      -6.908  -9.780   3.107  0.00  0.00    +0.005 C 
ATOM     14  C   UNL     1      -5.567  -9.393   3.734  0.00  0.00    +0.037 C 
BRANCH   7  15
ATOM     15  C   UNL     1      -3.469  -7.597   5.053  0.00  0.00    +0.244 C 
ATOM     16  O   UNL     1      -3.943  -7.310   6.136  0.00  0.00    -0.270 OA
ATOM     17  N   UNL     1      -2.317  -8.293   4.984  0.00  0.00    -0.325 N 
ATOM     18  H   UNL     1      -1.939  -8.522   4.121  0.00  0.00    +0.145 HD
ATOM     19  H   UNL     1      -1.866  -8.566   5.799  0.00  0.00    +0.145 HD
ENDBRANCH   7  15
ENDBRANCH   4   6
ENDBRANCH   1   2
BRANCH   1  20
ATOM     20  S   UNL     1      -1.894  -1.424   2.164  0.00  0.00    -0.077 S 
BRANCH  20  25
ATOM     21  N   UNL     1      -0.300   0.860   2.435  0.00  0.00    -0.302 N 
ATOM     22  C   UNL     1       0.639   1.313   3.332  0.00  0.00    +0.168 A 
ATOM     23  N   UNL     1       0.770   0.387   4.253  0.00  0.00    -0.128 NA
ATOM     24  N   UNL     1      -0.013  -0.600   3.998  0.00  0.00    -0.122 NA
ATOM     25  C   UNL     1      -0.695  -0.362   2.900  0.00  0.00    +0.192 A 
BRANCH  22  26
ATOM     26  C   UNL     1       1.365   2.599   3.270  0.00  0.00    +0.054 A 
ATOM     27  C   UNL     1       1.981   3.000   2.083  0.00  0.00    +0.014 A 
ATOM     28  C   UNL     1       2.657   4.201   2.032  0.00  0.00    +0.001 A 
ATOM     29  C   UNL     1       2.724   5.010   3.153  0.00  0.00    +0.003 A 
ATOM     30  C   UNL     1       2.117   4.621   4.332  0.00  0.00    +0.039 A 
ATOM     31  C   UNL     1       1.432   3.422   4.397  0.00  0.00    +0.134 A 
ATOM     32  F   UNL     1       0.834   3.045   5.548  0.00  0.00    -0.205 F 
ENDBRANCH  22  26
BRANCH  21  33
ATOM     33  C   UNL     1      -0.782   1.548   1.234  0.00  0.00    +0.129 C 
BRANCH  33  35
ATOM     34  C   UNL     1      -3.109   1.726   2.125  0.00  0.00    +0.009 C 
ATOM     35  C   UNL     1      -1.902   2.517   1.617  0.00  0.00    +0.003 C 
ATOM     36  C   UNL     1      -2.309   3.336   0.390  0.00  0.00    +0.009 C 
ENDBRANCH  33  35
ENDBRANCH  21  33
ENDBRANCH  20  25
ENDBRANCH   1  20
TORSDOF 8
