REMARK  Name = ZINC36249516
REMARK  14 active torsions:
REMARK  status: ('A' for Active; 'I' for Inactive)
REMARK    1  A    between atoms: C_1  and  C_2
REMARK    2  A    between atoms: C_2  and  N_3
REMARK    3  A    between atoms: N_3  and  C_4
REMARK    4  A    between atoms: N_3  and  C_6
REMARK    5  A    between atoms: C_4  and  C_5
REMARK    6  A    between atoms: C_7  and  C_17
REMARK    7  A    between atoms: C_8  and  C_11
REMARK    8  A    between atoms: C_17  and  N_18
REMARK    9  A    between atoms: N_18  and  C_19
REMARK   10  A    between atoms: C_19  and  C_20
REMARK   11  A    between atoms: C_20  and  N_21
REMARK   12  A    between atoms: N_21  and  C_22
REMARK   13  A    between atoms: N_21  and  C_23
REMARK   14  A    between atoms: C_24  and  C_26
REMARK                            x       y       z     vdW  Elec       q    Type
REMARK                         _______ _______ _______ _____ _____    ______ ____
ROOT
ATOM      1  C   UNL     1      -0.834  -2.853   0.854  0.00  0.00    +0.226 A 
ATOM      2  C   UNL     1      -2.044  -2.307   1.139  0.00  0.00    +0.059 A 
ATOM      3  C   UNL     1      -1.937  -1.634   2.374  0.00  0.00    +0.120 A 
ATOM      4  N   UNL     1      -0.706  -1.776   2.807  0.00  0.00    -0.076 NA
ATOM      5  O   UNL     1       0.005  -2.550   1.858  0.00  0.00    -0.339 OA
ENDROOT
BRANCH   3   6
ATOM      6  C   UNL     1      -3.025  -0.895   3.062  0.00  0.00    +0.004 A 
ATOM      7  C   UNL     1      -3.896  -0.090   2.330  0.00  0.00    +0.010 A 
ATOM      8  C   UNL     1      -4.906   0.594   2.975  0.00  0.00    +0.001 A 
ATOM      9  C   UNL     1      -5.055   0.482   4.346  0.00  0.00    +0.000 A 
ATOM     10  C   UNL     1      -4.194  -0.316   5.077  0.00  0.00    +0.001 A 
ATOM     11  C   UNL     1      -3.183  -1.009   4.442  0.00  0.00    +0.010 A 
ENDBRANCH   3   6
BRANCH   1  12
ATOM     12  N   UNL     1      -0.522  -3.595  -0.271  0.00  0.00    -0.300 N 
BRANCH  12  14
ATOM     13  C   UNL     1      -1.091  -2.373  -2.311  0.00  0.00    +0.024 C 
ATOM     14  C   UNL     1       0.042  -2.936  -1.451  0.00  0.00    +0.104 C 
ENDBRANCH  12  14
BRANCH  12  15
ATOM     15  C   UNL     1      -0.756  -5.042  -0.281  0.00  0.00    +0.104 C 
ATOM     16  C   UNL     1       0.442  -5.756   0.347  0.00  0.00    +0.024 C 
ENDBRANCH  12  15
ENDBRANCH   1  12
BRANCH   2  17
ATOM     17  C   UNL     1      -3.282  -2.403   0.285  0.00  0.00    +0.150 C 
BRANCH  17  18
ATOM     18  N   UNL     1      -4.054  -3.585   0.676  0.00  0.00    -0.298 N 
ATOM     19  C   UNL     1      -4.122  -4.648  -0.150  0.00  0.00    +0.219 C 
ATOM     20  O   UNL     1      -4.783  -5.616   0.161  0.00  0.00    -0.275 OA
BRANCH  19  21
ATOM     21  C   UNL     1      -3.378  -4.633  -1.461  0.00  0.00    +0.075 C 
ATOM     22  C   UNL     1      -4.207  -3.894  -2.531  0.00  0.00    +0.013 C 
ATOM     23  C   UNL     1      -3.943  -4.689  -3.833  0.00  0.00    +0.001 C 
ATOM     24  C   UNL     1      -3.900  -6.155  -3.335  0.00  0.00    +0.001 C 
ATOM     25  C   UNL     1      -3.183  -6.071  -1.972  0.00  0.00    +0.013 C 
ENDBRANCH  19  21
BRANCH  18  26
ATOM     26  C   UNL     1      -4.751  -3.613   1.964  0.00  0.00    +0.089 C 
BRANCH  26  27
ATOM     27  C   UNL     1      -6.189  -3.127   1.776  0.00  0.00    -0.060 C 
BRANCH  27  28
ATOM     28  N   UNL     1      -6.912  -3.232   3.051  0.00  0.00    +0.377 N 
ATOM     29  C   UNL     1      -6.337  -2.289   4.019  0.00  0.00    -0.097 C 
ATOM     30  C   UNL     1      -8.330  -2.911   2.838  0.00  0.00    -0.097 C 
ATOM     31  H   UNL     1      -6.830  -4.173   3.408  0.00  0.00    -0.083 HD
ENDBRANCH  27  28
ENDBRANCH  26  27
ENDBRANCH  18  26
ENDBRANCH  17  18
ENDBRANCH   2  17
TORSDOF 10
