REMARK  Name = ZINC46309385
REMARK  7 active torsions:
REMARK  status: ('A' for Active; 'I' for Inactive)
REMARK    1  A    between atoms: C_1  and  C_2
REMARK    2  A    between atoms: C_2  and  C_3
REMARK    3  A    between atoms: C_3  and  C_5
REMARK    4  A    between atoms: C_3  and  N_20
REMARK    5  A    between atoms: C_5  and  N_6
REMARK    6  A    between atoms: N_9  and  N_10
REMARK    7  A    between atoms: N_13  and  C_14
REMARK                            x       y       z     vdW  Elec       q    Type
REMARK                         _______ _______ _______ _____ _____    ______ ____
ROOT
ATOM      1  N   UNL     1      -2.370  -2.631  -0.502  0.00  0.00    -0.300 N 
ATOM      2  C   UNL     1      -2.403  -3.960  -0.727  0.00  0.00    +0.316 C 
ATOM      3  O   UNL     1      -1.377  -4.610  -0.683  0.00  0.00    -0.251 OA
ATOM      4  N   UNL     1      -3.575  -4.567  -1.002  0.00  0.00    -0.217 N 
ATOM      5  H   UNL     1      -3.189  -2.113  -0.537  0.00  0.00    +0.150 HD
ATOM      6  H   UNL     1      -3.599  -5.524  -1.164  0.00  0.00    +0.174 HD
ENDROOT
BRANCH   4   7
ATOM      7  N   UNL     1      -4.757  -3.818  -1.053  0.00  0.00    -0.217 N 
ATOM      8  C   UNL     1      -5.929  -4.426  -1.327  0.00  0.00    +0.320 C 
ATOM      9  O   UNL     1      -6.955  -3.776  -1.371  0.00  0.00    -0.251 OA
ATOM     10  N   UNL     1      -5.962  -5.754  -1.552  0.00  0.00    -0.268 N 
ATOM     11  H   UNL     1      -4.733  -2.862  -0.890  0.00  0.00    +0.174 HD
ATOM     12  H   UNL     1      -5.157  -6.284  -1.448  0.00  0.00    +0.156 HD
BRANCH  10  13
ATOM     13  C   UNL     1      -7.160  -6.369  -1.936  0.00  0.00    +0.035 A 
ATOM     14  C   UNL     1      -7.448  -7.658  -1.509  0.00  0.00    +0.023 A 
ATOM     15  C   UNL     1      -8.630  -8.262  -1.889  0.00  0.00    +0.002 A 
ATOM     16  C   UNL     1      -9.526  -7.584  -2.696  0.00  0.00    +0.000 A 
ATOM     17  C   UNL     1      -9.242  -6.300  -3.123  0.00  0.00    +0.002 A 
ATOM     18  C   UNL     1      -8.064  -5.688  -2.741  0.00  0.00    +0.023 A 
ENDBRANCH  10  13
ENDBRANCH   4   7
BRANCH   1  19
ATOM     19  C   UNL     1      -1.097  -1.971  -0.204  0.00  0.00    +0.090 C 
BRANCH  19  20
ATOM     20  C   UNL     1      -1.353  -0.504   0.147  0.00  0.00    -0.051 C 
BRANCH  20  21
ATOM     21  N   UNL     1      -1.936  -0.418   1.493  0.00  0.00    +0.385 N 
ATOM     22  C   UNL     1      -1.074  -1.129   2.449  0.00  0.00    -0.073 C 
ATOM     23  C   UNL     1      -1.522  -0.774   3.868  0.00  0.00    +0.017 C 
ATOM     24  C   UNL     1      -3.009  -0.981   4.000  0.00  0.00    -0.048 A 
ATOM     25  C   UNL     1      -3.560  -1.051   5.270  0.00  0.00    +0.004 A 
ATOM     26  C   UNL     1      -4.918  -1.237   5.431  0.00  0.00    +0.000 A 
ATOM     27  C   UNL     1      -5.733  -1.352   4.319  0.00  0.00    +0.000 A 
ATOM     28  C   UNL     1      -5.185  -1.284   3.055  0.00  0.00    +0.002 A 
ATOM     29  C   UNL     1      -3.820  -1.099   2.892  0.00  0.00    -0.061 A 
ATOM     30  C   UNL     1      -3.264  -1.038   1.493  0.00  0.00    -0.042 C 
ATOM     31  H   UNL     1      -2.015   0.551   1.765  0.00  0.00    -0.081 HD
ENDBRANCH  20  21
BRANCH  20  33
ATOM     32  C   UNL     1      -0.297   1.746   0.400  0.00  0.00    +0.002 C 
ATOM     33  C   UNL     1      -0.032   0.267   0.113  0.00  0.00    -0.017 C 
ENDBRANCH  20  33
ENDBRANCH  19  20
ENDBRANCH   1  19
TORSDOF 6
