REMARK  Name = ZINC07615738
REMARK  5 active torsions:
REMARK  status: ('A' for Active; 'I' for Inactive)
REMARK    1  A    between atoms: C_1  and  C_2
REMARK    2  A    between atoms: C_5  and  N_8
REMARK    3  A    between atoms: C_9  and  C_25
REMARK    4  A    between atoms: C_10  and  C_13
REMARK    5  A    between atoms: C_15  and  C_18
REMARK                            x       y       z     vdW  Elec       q    Type
REMARK                         _______ _______ _______ _____ _____    ______ ____
ROOT
ATOM      1  N   UNL     1      -8.161   0.654  -0.146  0.00  0.00    -0.216 N 
ATOM      2  C   UNL     1      -6.913   0.134  -0.105  0.00  0.00    +0.074 A 
ATOM      3  C   UNL     1      -6.062   1.172   0.148  0.00  0.00    +0.173 A 
ATOM      4  N   UNL     1      -6.784   2.300   0.248  0.00  0.00    -0.124 NA
ATOM      5  N   UNL     1      -8.032   2.032   0.080  0.00  0.00    -0.060 NA
ATOM      6  C   UNL     1      -6.534  -1.312  -0.297  0.00  0.00    +0.068 C 
ENDROOT
BRANCH   1  11
ATOM      7  C   UNL     1     -12.985  -2.188  -1.077  0.00  0.00    +0.044 C 
ATOM      8  C   UNL     1     -11.704  -1.434  -0.830  0.00  0.00    -0.050 A 
ATOM      9  C   UNL     1     -10.735  -1.972  -0.004  0.00  0.00    +0.005 A 
ATOM     10  C   UNL     1      -9.560  -1.283   0.224  0.00  0.00    +0.028 A 
ATOM     11  C   UNL     1      -9.353  -0.048  -0.377  0.00  0.00    +0.067 A 
ATOM     12  C   UNL     1     -10.330   0.492  -1.202  0.00  0.00    +0.028 A 
ATOM     13  C   UNL     1     -11.501  -0.205  -1.430  0.00  0.00    +0.005 A 
ENDBRANCH   1  11
BRANCH   3  14
ATOM     14  C   UNL     1      -4.595   1.072   0.281  0.00  0.00    +0.281 A 
ATOM     15  N   UNL     1      -3.757   2.064   0.519  0.00  0.00    -0.186 NA
ATOM     16  C   UNL     1      -2.531   1.500   0.556  0.00  0.00    +0.204 A 
ATOM     17  N   UNL     1      -2.684   0.219   0.337  0.00  0.00    -0.056 NA
ATOM     18  O   UNL     1      -3.857  -0.046   0.183  0.00  0.00    -0.331 OA
BRANCH  16  19
ATOM     19  C   UNL     1      -1.247   2.204   0.795  0.00  0.00    +0.041 A 
ATOM     20  C   UNL     1      -1.234   3.580   1.013  0.00  0.00    +0.013 A 
ATOM     21  C   UNL     1      -0.036   4.231   1.228  0.00  0.00    +0.001 A 
ATOM     22  C   UNL     1       1.151   3.519   1.233  0.00  0.00    +0.001 A 
ATOM     23  C   UNL     1       1.144   2.153   1.023  0.00  0.00    +0.021 A 
ATOM     24  C   UNL     1      -0.049   1.490   0.806  0.00  0.00    +0.052 A 
ATOM     25 CL   UNL     1      -0.057  -0.225   0.541  0.00  0.00    -0.083 Cl
ENDBRANCH  16  19
ENDBRANCH   3  14
TORSDOF 3
