REMARK  Name = ZINC03632479
REMARK  10 active torsions:
REMARK  status: ('A' for Active; 'I' for Inactive)
REMARK    1  A    between atoms: C_1  and  O_2
REMARK    2  A    between atoms: O_2  and  C_3
REMARK    3  A    between atoms: C_8  and  N_9
REMARK    4  A    between atoms: C_10  and  C_26
REMARK    5  A    between atoms: C_13  and  S_14
REMARK    6  A    between atoms: S_14  and  C_15
REMARK    7  A    between atoms: C_15  and  C_16
REMARK    8  A    between atoms: N_18  and  C_19
REMARK    9  A    between atoms: C_26  and  N_27
REMARK   10  A    between atoms: C_28  and  C_30
REMARK                            x       y       z     vdW  Elec       q    Type
REMARK                         _______ _______ _______ _____ _____    ______ ____
ROOT
ATOM      1  N   UNL     1      -5.525  -0.242  -1.048  0.00  0.00    -0.269 N 
ATOM      2  C   UNL     1      -4.822  -0.670   0.046  0.00  0.00    +0.156 A 
ATOM      3  N   UNL     1      -5.481  -0.290   1.104  0.00  0.00    -0.132 NA
ATOM      4  N   UNL     1      -6.540   0.352   0.758  0.00  0.00    -0.122 NA
ATOM      5  C   UNL     1      -6.620   0.409  -0.551  0.00  0.00    +0.197 A 
ENDROOT
BRANCH   1  11
ATOM      6  C   UNL     1      -4.412   0.511  -3.064  0.00  0.00    +0.144 A 
ATOM      7  C   UNL     1      -4.082   0.315  -4.396  0.00  0.00    +0.048 A 
ATOM      8  C   UNL     1      -4.534  -0.807  -5.063  0.00  0.00    +0.004 A 
ATOM      9  C   UNL     1      -5.313  -1.741  -4.404  0.00  0.00    +0.002 A 
ATOM     10  C   UNL     1      -5.642  -1.556  -3.075  0.00  0.00    +0.030 A 
ATOM     11  C   UNL     1      -5.191  -0.432  -2.399  0.00  0.00    +0.092 A 
BRANCH   6  13
ATOM     12  C   UNL     1      -3.178   2.541  -3.155  0.00  0.00    +0.277 C 
ATOM     13  O   UNL     1      -3.972   1.617  -2.408  0.00  0.00    -0.493 OA
ENDBRANCH   6  13
ENDBRANCH   1  11
BRANCH   5  14
ATOM     14  S   UNL     1      -7.897   1.180  -1.490  0.00  0.00    -0.076 S 
BRANCH  14  15
ATOM     15  C   UNL     1      -8.944   1.796  -0.149  0.00  0.00    +0.173 C 
BRANCH  15  16
ATOM     16  C   UNL     1     -10.136   2.513  -0.731  0.00  0.00    +0.227 C 
ATOM     17  O   UNL     1     -10.263   2.599  -1.934  0.00  0.00    -0.275 OA
ATOM     18  N   UNL     1     -11.059   3.059   0.085  0.00  0.00    -0.285 N 
ATOM     19  H   UNL     1     -10.992   2.933   1.045  0.00  0.00    +0.155 HD
BRANCH  18  20
ATOM     20  C   UNL     1     -12.113   3.808  -0.452  0.00  0.00    +0.034 A 
ATOM     21  C   UNL     1     -12.608   4.905   0.239  0.00  0.00    +0.026 A 
ATOM     22  C   UNL     1     -13.645   5.646  -0.295  0.00  0.00    +0.040 A 
ATOM     23  C   UNL     1     -14.197   5.287  -1.513  0.00  0.00    +0.124 A 
ATOM     24  C   UNL     1     -13.709   4.189  -2.201  0.00  0.00    +0.040 A 
ATOM     25  C   UNL     1     -12.668   3.449  -1.673  0.00  0.00    +0.026 A 
ATOM     26  F   UNL     1     -15.214   6.010  -2.031  0.00  0.00    -0.205 F 
ENDBRANCH  18  20
ENDBRANCH  15  16
ENDBRANCH  14  15
ENDBRANCH   5  14
BRANCH   2  27
ATOM     27  C   UNL     1      -3.528  -1.443   0.030  0.00  0.00    +0.181 C 
BRANCH  27  28
ATOM     28  N   UNL     1      -2.400  -0.508   0.033  0.00  0.00    -0.304 N 
ATOM     29  C   UNL     1      -1.137  -0.977   0.020  0.00  0.00    +0.251 C 
ATOM     30  O   UNL     1      -0.932  -2.176   0.006  0.00  0.00    -0.270 OA
ATOM     31  H   UNL     1      -2.563   0.448   0.044  0.00  0.00    +0.149 HD
BRANCH  29  32
ATOM     32  C   UNL     1      -0.008  -0.041   0.023  0.00  0.00    +0.074 A 
ATOM     33  C   UNL     1       1.351  -0.312   0.012  0.00  0.00    +0.021 A 
ATOM     34  C   UNL     1       2.203   0.764   0.019  0.00  0.00    +0.008 A 
ATOM     35  C   UNL     1       1.685   2.020   0.036  0.00  0.00    +0.046 A 
ATOM     36  S   UNL     1      -0.026   1.743   0.043  0.00  0.00    -0.092 S 
ENDBRANCH  29  32
ENDBRANCH  27  28
ENDBRANCH   2  27
TORSDOF 9
