REMARK  Name = ZINC40824882
REMARK  4 active torsions:
REMARK  status: ('A' for Active; 'I' for Inactive)
REMARK    1  A    between atoms: C_1  and  C_2
REMARK    2  A    between atoms: C_6  and  C_7
REMARK    3  A    between atoms: N_9  and  C_10
REMARK    4  A    between atoms: N_22  and  N_23
REMARK                            x       y       z     vdW  Elec       q    Type
REMARK                         _______ _______ _______ _____ _____    ______ ____
ROOT
ATOM      1  C   UNL     1      -0.005   1.502   0.010  0.00  0.00    +0.048 C 
ATOM      2  C   UNL     1       0.021  -0.004   0.002  0.00  0.00    +0.009 A 
ATOM      3  C   UNL     1       0.039  -0.839  -1.123  0.00  0.00    +0.042 A 
ATOM      4  C   UNL     1       0.060  -2.138  -0.673  0.00  0.00    +0.115 A 
ATOM      5  O   UNL     1       0.059  -2.112   0.658  0.00  0.00    -0.454 OA
ATOM      6  C   UNL     1       0.039  -0.831   1.091  0.00  0.00    +0.193 A 
ATOM      7  C   UNL     1       0.077  -3.327  -1.600  0.00  0.00    +0.075 C 
ATOM      8  C   UNL     1      -0.440  -2.905  -2.978  0.00  0.00    +0.014 C 
ATOM      9  C   UNL     1       0.329  -1.684  -3.493  0.00  0.00    +0.058 C 
ATOM     10  C   UNL     1       0.040  -0.512  -2.567  0.00  0.00    +0.072 C 
ATOM     11  N   UNL     1      -0.190   0.685  -3.010  0.00  0.00    -0.175 NA
ENDROOT
BRANCH  11  12
ATOM     12  N   UNL     1      -0.177   0.936  -4.388  0.00  0.00    -0.248 N 
ATOM     13  C   UNL     1      -0.420   2.200  -4.855  0.00  0.00    +0.187 C 
ATOM     14  N   UNL     1      -0.408   2.439  -6.166  0.00  0.00    -0.370 N 
ATOM     15  N   UNL     1      -0.669   3.191  -3.999  0.00  0.00    -0.370 N 
ATOM     16  H   UNL     1       0.004   0.215  -5.011  0.00  0.00    +0.192 HD
ATOM     17  H   UNL     1      -0.227   1.718  -6.789  0.00  0.00    +0.159 HD
ATOM     18  H   UNL     1      -0.678   3.016  -3.045  0.00  0.00    +0.159 HD
ATOM     19  H   UNL     1      -0.841   4.086  -4.331  0.00  0.00    +0.159 HD
ATOM     20  H   UNL     1      -0.580   3.334  -6.497  0.00  0.00    +0.159 HD
ENDBRANCH  11  12
BRANCH   6  21
ATOM     21  C   UNL     1       0.034  -0.400   2.493  0.00  0.00    +0.284 C 
ATOM     22  O   UNL     1       0.013   0.786   2.765  0.00  0.00    -0.266 OA
ATOM     23  N   UNL     1       0.053  -1.318   3.480  0.00  0.00    -0.278 N 
ATOM     24  H   UNL     1      -0.011  -2.262   3.266  0.00  0.00    +0.155 HD
BRANCH  23  25
ATOM     25  C   UNL     1       0.165  -0.909   4.813  0.00  0.00    +0.054 A 
ATOM     26  C   UNL     1       0.757   0.310   5.120  0.00  0.00    +0.025 A 
ATOM     27  C   UNL     1       0.866   0.711   6.437  0.00  0.00    +0.003 A 
ATOM     28  C   UNL     1       0.388  -0.098   7.451  0.00  0.00    +0.021 A 
ATOM     29  C   UNL     1      -0.203  -1.313   7.150  0.00  0.00    +0.061 A 
ATOM     30  C   UNL     1      -0.320  -1.719   5.833  0.00  0.00    +0.080 A 
ATOM     31 CL   UNL     1      -1.066  -3.240   5.454  0.00  0.00    -0.080 Cl
ATOM     32 CL   UNL     1      -0.801  -2.326   8.426  0.00  0.00    -0.082 Cl
ENDBRANCH  23  25
ENDBRANCH   6  21
TORSDOF 3
