REMARK  Name = ZINC63993514
REMARK  13 active torsions:
REMARK  status: ('A' for Active; 'I' for Inactive)
REMARK    1  A    between atoms: C_1  and  C_2
REMARK    2  A    between atoms: C_2  and  C_3
REMARK    3  A    between atoms: C_3  and  C_5
REMARK    4  A    between atoms: C_3  and  N_6
REMARK    5  A    between atoms: N_6  and  C_7
REMARK    6  A    between atoms: N_13  and  C_26
REMARK    7  A    between atoms: C_14  and  C_22
REMARK    8  A    between atoms: C_16  and  N_18
REMARK    9  A    between atoms: C_19  and  C_21
REMARK   10  A    between atoms: C_22  and  O_24
REMARK   11  A    between atoms: O_24  and  C_25
REMARK   12  A    between atoms: C_26  and  C_27
REMARK   13  A    between atoms: C_27  and  C_28
REMARK                            x       y       z     vdW  Elec       q    Type
REMARK                         _______ _______ _______ _____ _____    ______ ____
ROOT
ATOM      1  C   UNL     1       2.897   0.032   2.347  0.00  0.00    +0.044 A 
ATOM      2  C   UNL     1       4.234   0.424   2.296  0.00  0.00    +0.033 A 
ATOM      3  C   UNL     1       4.931   0.543   3.483  0.00  0.00    +0.015 A 
ATOM      4  C   UNL     1       4.300   0.275   4.690  0.00  0.00    +0.105 A 
ATOM      5  N   UNL     1       3.020  -0.097   4.693  0.00  0.00    -0.348 N 
ATOM      6  C   UNL     1       2.321  -0.216   3.584  0.00  0.00    +0.107 A 
ATOM      7  N   UNL     1       5.164   0.451   5.768  0.00  0.00    -0.301 N 
ATOM      8  C   UNL     1       6.486   0.869   5.294  0.00  0.00    +0.208 C 
ATOM      9  C   UNL     1       6.362   0.940   3.763  0.00  0.00    +0.138 C 
ATOM     10  H   UNL     1       2.588  -0.282   5.542  0.00  0.00    +0.167 HD
ENDROOT
BRANCH   9  11
ATOM     11  N   UNL     1       6.616   2.303   3.292  0.00  0.00    -0.306 N 
ATOM     12  C   UNL     1       6.985   2.516   2.013  0.00  0.00    +0.210 C 
ATOM     13  O   UNL     1       7.105   1.579   1.252  0.00  0.00    -0.276 OA
ATOM     14  C   UNL     1       7.247   3.918   1.528  0.00  0.00    +0.109 C 
ATOM     15  H   UNL     1       6.520   3.053   3.900  0.00  0.00    +0.149 HD
ENDBRANCH   9  11
BRANCH   1  16
ATOM     16  N   UNL     1       2.148  -0.104   1.172  0.00  0.00    -0.340 N 
ATOM     17  H   UNL     1       2.559   0.072   0.311  0.00  0.00    +0.146 HD
BRANCH  16  18
ATOM     18  C   UNL     1       0.742  -0.511   1.242  0.00  0.00    +0.067 C 
ATOM     19  C   UNL     1       0.655  -2.037   1.299  0.00  0.00    +0.028 C 
BRANCH  18  21
ATOM     20  C   UNL     1      -0.019   1.526   0.010  0.00  0.00    +0.005 C 
ATOM     21  C   UNL     1       0.002  -0.004   0.002  0.00  0.00    +0.018 C 
ENDBRANCH  18  21
ENDBRANCH  16  18
ENDBRANCH   1  16
BRANCH   8  22
ATOM     22  C   UNL     1       6.839   2.222   5.855  0.00  0.00    +0.330 C 
ATOM     23  O   UNL     1       5.972   2.939   6.295  0.00  0.00    -0.249 OA
BRANCH  22  24
ATOM     24  O   UNL     1       8.118   2.631   5.866  0.00  0.00    -0.467 OA
ATOM     25  C   UNL     1       8.380   3.925   6.413  0.00  0.00    +0.280 C 
ENDBRANCH  22  24
ENDBRANCH   8  22
BRANCH   7  26
ATOM     26  C   UNL     1       4.803   0.249   7.173  0.00  0.00    +0.112 C 
BRANCH  26  27
ATOM     27  C   UNL     1       5.079  -1.204   7.567  0.00  0.00    +0.052 C 
BRANCH  27  28
ATOM     28  C   UNL     1       4.708  -1.412   9.012  0.00  0.00    -0.040 C 
ATOM     29  C   UNL     1       3.536  -1.890   9.490  0.00  0.00    -0.001 A 
ATOM     30  C   UNL     1       2.303  -2.340   8.832  0.00  0.00    +0.010 A 
ATOM     31  C   UNL     1       1.274  -2.774   9.595  0.00  0.00    +0.001 A 
ATOM     32  C   UNL     1       1.354  -2.805  10.994  0.00  0.00    +0.002 A 
ATOM     33  C   UNL     1       2.453  -2.407  11.670  0.00  0.00    +0.026 A 
ATOM     34  C   UNL     1       3.596  -1.932  10.969  0.00  0.00    +0.043 A 
ATOM     35  N   UNL     1       4.759  -1.498  11.389  0.00  0.00    -0.380 N 
ATOM     36  C   UNL     1       5.572  -1.136  10.222  0.00  0.00    +0.144 C 
ATOM     37  H   UNL     1       5.037  -1.430  12.315  0.00  0.00    +0.160 HD
ENDBRANCH  27  28
ENDBRANCH  26  27
ENDBRANCH   7  26
TORSDOF 9
