REMARK  Name = ZINC01573753
REMARK  6 active torsions:
REMARK  status: ('A' for Active; 'I' for Inactive)
REMARK    1  A    between atoms: C_1  and  S_2
REMARK    2  A    between atoms: S_2  and  C_3
REMARK    3  A    between atoms: C_3  and  S_17
REMARK    4  A    between atoms: N_4  and  C_5
REMARK    5  A    between atoms: C_10  and  N_14
REMARK    6  A    between atoms: S_17  and  C_18
REMARK                            x       y       z     vdW  Elec       q    Type
REMARK                         _______ _______ _______ _____ _____    ______ ____
ROOT
ATOM      1  C   UNL     1       0.003  -0.005   0.021  0.00  0.00    +0.195 A 
ATOM      2  N   UNL     1      -0.014   1.315   0.039  0.00  0.00    -0.221 NA
ATOM      3  C   UNL     1       1.118   2.050   0.050  0.00  0.00    +0.081 A 
ATOM      4  C   UNL     1       1.242   3.459   0.069  0.00  0.00    +0.031 A 
ATOM      5  C   UNL     1       2.477   4.054   0.078  0.00  0.00    +0.035 A 
ATOM      6  C   UNL     1       3.643   3.303   0.069  0.00  0.00    +0.127 A 
ATOM      7  C   UNL     1       3.559   1.922   0.052  0.00  0.00    +0.050 A 
ATOM      8  C   UNL     1       2.327   1.317   0.042  0.00  0.00    +0.043 A 
ATOM      9  S   UNL     1       1.754  -0.364   0.019  0.00  0.00    -0.048 S 
ENDROOT
BRANCH   6  10
ATOM     10  N   UNL     1       4.963   3.971   0.079  0.00  0.00    +0.056 N 
ATOM     11  O   UNL     1       5.030   5.188   0.094  0.00  0.00    -0.126 OA
ATOM     12  O   UNL     1       5.983   3.306   0.071  0.00  0.00    -0.126 OA
ENDBRANCH   6  10
BRANCH   1  14
ATOM     13  C   UNL     1      -2.271  -0.409   0.118  0.00  0.00    +0.133 C 
ATOM     14  N   UNL     1      -1.037  -0.865   0.008  0.00  0.00    -0.208 NA
BRANCH  13  16
ATOM     15  C   UNL     1      -4.352   1.335   0.460  0.00  0.00    +0.092 C 
ATOM     16  S   UNL     1      -2.571   1.327   0.134  0.00  0.00    -0.102 S 
ENDBRANCH  13  16
BRANCH  13  17
ATOM     17  S   UNL     1      -3.618  -1.538   0.250  0.00  0.00    -0.102 S 
ATOM     18  C   UNL     1      -2.721  -3.108   0.178  0.00  0.00    +0.092 C 
ENDBRANCH  13  17
ENDBRANCH   1  14
TORSDOF 4
