REMARK  Name = ZINC20798088
REMARK  3 active torsions:
REMARK  status: ('A' for Active; 'I' for Inactive)
REMARK    1  A    between atoms: C_1  and  S_2
REMARK    2  A    between atoms: S_2  and  C_3
REMARK    3  A    between atoms: C_6  and  C_9
REMARK                            x       y       z     vdW  Elec       q    Type
REMARK                         _______ _______ _______ _____ _____    ______ ____
ROOT
ATOM      1  C   UNL     1      -2.716   6.504   0.063  0.00  0.00    +0.087 A 
ATOM      2  C   UNL     1      -1.833   5.412   0.049  0.00  0.00    +0.074 A 
ATOM      3  C   UNL     1      -2.371   4.109   0.047  0.00  0.00    +0.088 A 
ATOM      4  N   UNL     1      -3.688   3.963   0.059  0.00  0.00    -0.214 NA
ATOM      5  C   UNL     1      -4.490   5.023   0.073  0.00  0.00    +0.214 A 
ATOM      6  N   UNL     1      -4.028   6.263   0.075  0.00  0.00    -0.214 NA
ATOM      7  N   UNL     1      -5.855   4.822   0.085  0.00  0.00    -0.327 N 
ATOM      8  C   UNL     1      -1.250   3.136   0.031  0.00  0.00    +0.012 A 
ATOM      9  C   UNL     1      -1.225   1.748   0.017  0.00  0.00    +0.011 A 
ATOM     10  C   UNL     1      -0.013   1.076   0.008  0.00  0.00    +0.001 A 
ATOM     11  C   UNL     1       1.176   1.778   0.000  0.00  0.00    +0.001 A 
ATOM     12  C   UNL     1       1.168   3.164   0.008  0.00  0.00    +0.012 A 
ATOM     13  C   UNL     1      -0.040   3.849   0.023  0.00  0.00    +0.032 A 
ATOM     14  C   UNL     1      -0.366   5.298   0.034  0.00  0.00    +0.198 C 
ATOM     15  O   UNL     1       0.429   6.217   0.031  0.00  0.00    -0.286 OA
ATOM     16  H   UNL     1      -6.538   5.685   0.096  0.00  0.00    +0.145 HD
ATOM     17  H   UNL     1      -6.261   3.800   0.083  0.00  0.00    +0.145 HD
ENDROOT
BRANCH   1  21
ATOM     18  C   UNL     1      -1.241  10.490   0.072  0.00  0.00    +0.008 A 
ATOM     19  C   UNL     1      -2.415  10.185  -0.610  0.00  0.00    +0.015 A 
ATOM     20  C   UNL     1      -2.895   8.895  -0.615  0.00  0.00    +0.011 A 
ATOM     21  C   UNL     1      -2.203   7.891   0.066  0.00  0.00    +0.001 A 
ATOM     22  C   UNL     1      -1.028   8.200   0.755  0.00  0.00    +0.011 A 
ATOM     23  C   UNL     1      -0.549   9.491   0.752  0.00  0.00    +0.015 A 
BRANCH  18  25
ATOM     24  C   UNL     1       0.885  12.047   1.071  0.00  0.00    +0.090 C 
ATOM     25  S   UNL     1      -0.629  12.142   0.077  0.00  0.00    -0.129 S 
ENDBRANCH  18  25
ENDBRANCH   1  21
TORSDOF 2
