REMARK  Name = ZINC09581477
REMARK  10 active torsions:
REMARK  status: ('A' for Active; 'I' for Inactive)
REMARK    1  A    between atoms: C_1  and  O_2
REMARK    2  A    between atoms: O_2  and  C_3
REMARK    3  A    between atoms: C_3  and  C_5
REMARK    4  A    between atoms: C_5  and  C_6
REMARK    5  A    between atoms: C_6  and  N_7
REMARK    6  A    between atoms: C_11  and  S_28
REMARK    7  A    between atoms: N_16  and  C_17
REMARK    8  A    between atoms: C_17  and  C_19
REMARK    9  A    between atoms: C_20  and  C_21
REMARK   10  A    between atoms: S_28  and  N_31
REMARK                            x       y       z     vdW  Elec       q    Type
REMARK                         _______ _______ _______ _____ _____    ______ ____
ROOT
ATOM      1  N   UNL     1      -4.868   1.245   0.032  0.00  0.00    -0.321 N 
ATOM      2  C   UNL     1      -5.962   2.091   0.042  0.00  0.00    +0.058 A 
ATOM      3  C   UNL     1      -7.321   1.733   0.046  0.00  0.00    +0.029 A 
ATOM      4  C   UNL     1      -8.304   2.694   0.057  0.00  0.00    +0.030 A 
ATOM      5  C   UNL     1      -7.990   4.043   0.064  0.00  0.00    +0.106 A 
ATOM      6  C   UNL     1      -6.660   4.425   0.059  0.00  0.00    +0.045 A 
ATOM      7  C   UNL     1      -5.677   3.464   0.049  0.00  0.00    +0.041 A 
ATOM      8  S   UNL     1      -3.901   3.515   0.048  0.00  0.00    -0.052 S 
ATOM      9  C   UNL     1      -3.604   1.755   0.029  0.00  0.00    +0.167 A 
ATOM     10  N   UNL     1      -2.446   1.107   0.020  0.00  0.00    -0.153 NA
ENDROOT
BRANCH   5  11
ATOM     11  S   UNL     1      -9.267   5.256   0.077  0.00  0.00    +0.056 S 
ATOM     12  O   UNL     1      -8.706   6.442  -0.469  0.00  0.00    -0.153 OA
ATOM     13  O   UNL     1     -10.422   4.636  -0.472  0.00  0.00    -0.153 OA
BRANCH  11  14
ATOM     14  N   UNL     1      -9.615   5.584   1.663  0.00  0.00    -0.204 NA
ATOM     15  H   UNL     1      -9.932   6.465   1.917  0.00  0.00    +0.144 HD
ATOM     16  H   UNL     1      -9.501   4.896   2.336  0.00  0.00    +0.144 HD
ENDBRANCH  11  14
ENDBRANCH   5  11
BRANCH  10  17
ATOM     17  C   UNL     1      -1.294   1.793   0.018  0.00  0.00    +0.262 C 
ATOM     18  O   UNL     1      -1.311   3.013   0.025  0.00  0.00    -0.269 OA
BRANCH  17  19
ATOM     19  C   UNL     1      -0.013   1.076   0.008  0.00  0.00    +0.070 C 
ATOM     20  C   UNL     1       1.144   1.765   0.001  0.00  0.00    +0.014 C 
BRANCH  20  21
ATOM     21  C   UNL     1       2.429   1.046  -0.015  0.00  0.00    -0.007 A 
ATOM     22  C   UNL     1       2.452  -0.352  -0.023  0.00  0.00    +0.009 A 
ATOM     23  C   UNL     1       3.659  -1.018  -0.039  0.00  0.00    +0.001 A 
ATOM     24  C   UNL     1       4.847  -0.307  -0.047  0.00  0.00    +0.001 A 
ATOM     25  C   UNL     1       4.834   1.077  -0.040  0.00  0.00    +0.020 A 
ATOM     26  C   UNL     1       3.633   1.759  -0.029  0.00  0.00    +0.048 A 
ATOM     27 CL   UNL     1       3.618   3.494  -0.026  0.00  0.00    -0.083 Cl
ENDBRANCH  20  21
ENDBRANCH  17  19
ENDBRANCH  10  17
BRANCH   1  28
ATOM     28  C   UNL     1      -5.069  -0.207   0.024  0.00  0.00    +0.135 C 
BRANCH  28  29
ATOM     29  C   UNL     1      -5.132  -0.720   1.464  0.00  0.00    +0.142 C 
BRANCH  29  30
ATOM     30  C   UNL     1      -5.339  -2.213   1.456  0.00  0.00    +0.309 C 
ATOM     31  O   UNL     1      -5.426  -2.805   0.406  0.00  0.00    -0.251 OA
BRANCH  30  33
ATOM     32  C   UNL     1      -5.624  -4.321   2.531  0.00  0.00    +0.280 C 
ATOM     33  O   UNL     1      -5.425  -2.885   2.615  0.00  0.00    -0.468 OA
ENDBRANCH  30  33
ENDBRANCH  29  30
ENDBRANCH  28  29
ENDBRANCH   1  28
TORSDOF 9
