REMARK  Name = ZINC53620317
REMARK  4 active torsions:
REMARK  status: ('A' for Active; 'I' for Inactive)
REMARK    1  A    between atoms: C_1  and  C_2
REMARK    2  A    between atoms: C_6  and  C_8
REMARK    3  A    between atoms: C_15  and  C_17
REMARK    4  A    between atoms: C_20  and  C_24
REMARK                            x       y       z     vdW  Elec       q    Type
REMARK                         _______ _______ _______ _____ _____    ______ ____
ROOT
ATOM      1  C   UNL     1      -0.013   1.086   0.008  0.00  0.00    +0.066 C 
ATOM      2  C   UNL     1      -0.742   1.585  -1.213  0.00  0.00    +0.054 A 
ATOM      3  N   UNL     1      -2.045   1.798  -1.199  0.00  0.00    -0.229 NA
ATOM      4  C   UNL     1      -2.674   2.233  -2.269  0.00  0.00    +0.165 A 
ATOM      5  N   UNL     1      -4.026   2.507  -2.424  0.00  0.00    -0.258 N 
ATOM      6  C   UNL     1      -4.872   2.328  -1.390  0.00  0.00    +0.285 C 
ATOM      7  O   UNL     1      -4.451   1.927  -0.321  0.00  0.00    -0.266 OA
ATOM      8  S   UNL     1      -1.440   2.380  -3.405  0.00  0.00    -0.053 S 
ATOM      9  C   UNL     1      -0.088   1.841  -2.372  0.00  0.00    +0.059 A 
ATOM     10  H   UNL     1      -4.362   2.827  -3.276  0.00  0.00    +0.157 HD
ENDROOT
BRANCH   9  11
ATOM     11  C   UNL     1       1.377   1.707  -2.700  0.00  0.00    +0.250 C 
ATOM     12  N   UNL     1       1.545   1.382  -4.134  0.00  0.00    -0.265 NA
ATOM     13  C   UNL     1       2.685   0.427  -4.158  0.00  0.00    +0.180 C 
ATOM     14  N   UNL     1       2.461  -0.361  -2.917  0.00  0.00    -0.177 NA
ATOM     15  O   UNL     1       1.949   0.627  -1.946  0.00  0.00    -0.274 OA
ATOM     16  H   UNL     1       0.710   0.958  -4.509  0.00  0.00    +0.127 HD
ATOM     17  H   UNL     1       1.790  -1.099  -3.072  0.00  0.00    +0.156 HD
BRANCH  13  18
ATOM     18  C   UNL     1       2.620  -0.455  -5.378  0.00  0.00    -0.014 A 
ATOM     19  C   UNL     1       2.055   0.022  -6.546  0.00  0.00    +0.009 A 
ATOM     20  C   UNL     1       1.995  -0.786  -7.665  0.00  0.00    +0.039 A 
ATOM     21  C   UNL     1       2.502  -2.074  -7.617  0.00  0.00    +0.123 A 
ATOM     22  C   UNL     1       3.067  -2.551  -6.446  0.00  0.00    +0.039 A 
ATOM     23  C   UNL     1       3.131  -1.739  -5.330  0.00  0.00    +0.009 A 
ATOM     24  F   UNL     1       2.444  -2.865  -8.710  0.00  0.00    -0.205 F 
ENDBRANCH  13  18
ENDBRANCH   9  11
BRANCH   6  25
ATOM     25  C   UNL     1      -6.299   2.617  -1.553  0.00  0.00    +0.191 A 
ATOM     26  C   UNL     1      -7.260   2.485  -0.591  0.00  0.00    +0.056 A 
ATOM     27  C   UNL     1      -8.475   2.868  -1.178  0.00  0.00    +0.058 A 
ATOM     28  C   UNL     1      -8.207   3.213  -2.458  0.00  0.00    +0.171 A 
ATOM     29  O   UNL     1      -6.894   3.065  -2.679  0.00  0.00    -0.444 OA
ATOM     30 BR   UNL     1      -9.476   3.812  -3.726  0.00  0.00    -0.008 Br
ENDBRANCH   6  25
TORSDOF 3
