REMARK  Name = ZINC39664005
REMARK  11 active torsions:
REMARK  status: ('A' for Active; 'I' for Inactive)
REMARK    1  A    between atoms: C_1  and  C_2
REMARK    2  A    between atoms: C_2  and  C_3
REMARK    3  A    between atoms: C_3  and  C_4
REMARK    4  A    between atoms: C_4  and  C_5
REMARK    5  A    between atoms: C_9  and  C_18
REMARK    6  A    between atoms: N_20  and  C_21
REMARK    7  A    between atoms: C_21  and  C_22
REMARK    8  A    between atoms: C_22  and  C_24
REMARK    9  A    between atoms: C_22  and  N_32
REMARK   10  A    between atoms: C_27  and  O_30
REMARK   11  A    between atoms: O_30  and  C_31
REMARK                            x       y       z     vdW  Elec       q    Type
REMARK                         _______ _______ _______ _____ _____    ______ ____
ROOT
ATOM      1  C   UNL     1       1.828  -7.470   2.061  0.00  0.00    +0.218 C 
ATOM      2  O   UNL     1       0.760  -7.686   2.593  0.00  0.00    -0.275 OA
ATOM      3  N   UNL     1       2.452  -8.449   1.378  0.00  0.00    -0.316 N 
ATOM      4  H   UNL     1       3.307  -8.276   0.953  0.00  0.00    +0.149 HD
ENDROOT
BRANCH   1   9
ATOM      5  C   UNL     1       1.831  -2.674   3.142  0.00  0.00    +0.216 C 
ATOM      6  O   UNL     1       2.346  -1.987   3.998  0.00  0.00    -0.276 OA
ATOM      7  N   UNL     1       1.921  -4.017   3.211  0.00  0.00    -0.300 N 
ATOM      8  C   UNL     1       1.368  -5.015   2.265  0.00  0.00    +0.121 C 
ATOM      9  C   UNL     1       2.458  -6.104   2.165  0.00  0.00    +0.100 C 
ATOM     10  C   UNL     1       3.259  -5.979   3.472  0.00  0.00    -0.004 C 
ATOM     11  C   UNL     1       2.601  -4.830   4.248  0.00  0.00    +0.115 C 
ATOM     12  C   UNL     1       4.715  -5.638   3.169  0.00  0.00    -0.010 C 
ATOM     13  C   UNL     1       5.503  -5.575   4.481  0.00  0.00    -0.082 C 
ATOM     14  N   UNL     1       5.416  -6.869   5.168  0.00  0.00    +0.379 N 
ATOM     15  C   UNL     1       4.023  -7.147   5.538  0.00  0.00    -0.082 C 
ATOM     16  C   UNL     1       3.172  -7.276   4.271  0.00  0.00    -0.010 C 
ATOM     17  H   UNL     1       5.752  -7.597   4.555  0.00  0.00    -0.086 HD
ATOM     18  H   UNL     1       5.985  -6.845   6.001  0.00  0.00    -0.086 HD
BRANCH   5  19
ATOM     19  C   UNL     1       1.091  -2.026   2.000  0.00  0.00    +0.096 C 
BRANCH  19  20
ATOM     20  C   UNL     1       1.139  -0.505   2.158  0.00  0.00    +0.009 C 
BRANCH  20  22
ATOM     21  C   UNL     1       0.435   1.673   1.158  0.00  0.00    +0.004 C 
ATOM     22  C   UNL     1       0.388   0.152   0.999  0.00  0.00    -0.003 C 
ENDBRANCH  20  22
ENDBRANCH  19  20
ENDBRANCH   5  19
ENDBRANCH   1   9
BRANCH   3  23
ATOM     23  C   UNL     1       1.840  -9.776   1.277  0.00  0.00    +0.093 C 
BRANCH  23  24
ATOM     24  C   UNL     1       2.791 -10.723   0.541  0.00  0.00    -0.020 C 
BRANCH  24  25
ATOM     25  C   UNL     1       2.955 -10.261  -0.884  0.00  0.00    -0.059 A 
ATOM     26  C   UNL     1       1.982 -10.557  -1.821  0.00  0.00    +0.005 A 
ATOM     27  C   UNL     1       2.130 -10.136  -3.129  0.00  0.00    +0.046 A 
ATOM     28  C   UNL     1       3.256  -9.415  -3.501  0.00  0.00    +0.120 A 
ATOM     29  C   UNL     1       4.230  -9.120  -2.559  0.00  0.00    +0.046 A 
ATOM     30  C   UNL     1       4.075  -9.539  -1.251  0.00  0.00    +0.005 A 
BRANCH  28  31
ATOM     31  O   UNL     1       3.404  -9.001  -4.787  0.00  0.00    -0.495 OA
ATOM     32  C   UNL     1       4.588  -8.264  -5.098  0.00  0.00    +0.277 C 
ENDBRANCH  28  31
ENDBRANCH  24  25
BRANCH  24  33
ATOM     33  N   UNL     1       2.236 -12.083   0.555  0.00  0.00    +0.385 N 
ATOM     34  C   UNL     1       3.158 -13.019  -0.138  0.00  0.00    -0.078 C 
ATOM     35  C   UNL     1       2.755 -14.401   0.434  0.00  0.00    -0.020 C 
ATOM     36  C   UNL     1       2.440 -14.084   1.914  0.00  0.00    -0.020 C 
ATOM     37  C   UNL     1       2.130 -12.576   1.945  0.00  0.00    -0.078 C 
ATOM     38  H   UNL     1       1.329 -12.094   0.112  0.00  0.00    -0.081 HD
ENDBRANCH  24  33
ENDBRANCH  23  24
ENDBRANCH   3  23
TORSDOF 9
