REMARK  Name = ZINC41178269
REMARK  9 active torsions:
REMARK  status: ('A' for Active; 'I' for Inactive)
REMARK    1  A    between atoms: C_1  and  C_2
REMARK    2  A    between atoms: C_6  and  S_8
REMARK    3  A    between atoms: S_8  and  N_11
REMARK    4  A    between atoms: N_11  and  C_12
REMARK    5  A    between atoms: C_12  and  C_13
REMARK    6  A    between atoms: N_16  and  C_20
REMARK    7  A    between atoms: C_23  and  C_26
REMARK    8  A    between atoms: C_26  and  C_27
REMARK    9  A    between atoms: C_26  and  C_28
REMARK                            x       y       z     vdW  Elec       q    Type
REMARK                         _______ _______ _______ _____ _____    ______ ____
ROOT
ATOM      1  C   UNL     1       3.763  -2.527   4.141  0.00  0.00    +0.211 C 
ATOM      2  C   UNL     1       4.647  -1.329   4.562  0.00  0.00    +0.163 C 
ATOM      3  N   UNL     1       5.181  -1.777   5.864  0.00  0.00    -0.234 N 
ATOM      4  C   UNL     1       4.448  -2.831   6.267  0.00  0.00    +0.408 C 
ATOM      5  O   UNL     1       4.658  -3.443   7.296  0.00  0.00    -0.226 OA
ATOM      6  O   UNL     1       3.457  -3.135   5.411  0.00  0.00    -0.444 OA
ENDROOT
BRANCH   3   7
ATOM      7  C   UNL     1       6.258  -1.208   6.554  0.00  0.00    +0.040 A 
ATOM      8  C   UNL     1       6.926  -0.114   6.021  0.00  0.00    +0.024 A 
ATOM      9  C   UNL     1       7.988   0.445   6.704  0.00  0.00    +0.006 A 
ATOM     10  C   UNL     1       8.386  -0.084   7.918  0.00  0.00    -0.045 A 
ATOM     11  C   UNL     1       7.723  -1.174   8.452  0.00  0.00    +0.006 A 
ATOM     12  C   UNL     1       6.657  -1.734   7.776  0.00  0.00    +0.024 A 
BRANCH  10  13
ATOM     13  C   UNL     1       9.545   0.529   8.662  0.00  0.00    +0.013 C 
ATOM     14  C   UNL     1       9.071   1.018  10.032  0.00  0.00    +0.012 C 
ATOM     15  C   UNL     1      10.643  -0.519   8.847  0.00  0.00    +0.012 C 
ENDBRANCH  10  13
ENDBRANCH   3   7
BRANCH   1  16
ATOM     16  C   UNL     1       2.489  -2.047   3.444  0.00  0.00    +0.152 C 
BRANCH  16  17
ATOM     17  N   UNL     1       1.644  -3.200   3.123  0.00  0.00    -0.186 NA
ATOM     18  H   UNL     1       2.014  -4.096   3.154  0.00  0.00    +0.148 HD
BRANCH  17  19
ATOM     19  S   UNL     1       0.057  -2.973   2.709  0.00  0.00    +0.059 S 
ATOM     20  O   UNL     1      -0.500  -2.110   3.691  0.00  0.00    -0.153 OA
ATOM     21  O   UNL     1      -0.479  -4.260   2.433  0.00  0.00    -0.153 OA
BRANCH  19  27
ATOM     22  C   UNL     1      -0.018   1.503   0.010  0.00  0.00    +0.044 C 
ATOM     23  C   UNL     1       0.002  -0.004   0.002  0.00  0.00    -0.049 A 
ATOM     24  C   UNL     1       0.006  -0.689  -1.199  0.00  0.00    +0.003 A 
ATOM     25  C   UNL     1       0.025  -2.071  -1.207  0.00  0.00    +0.002 A 
ATOM     26  C   UNL     1       0.040  -2.768  -0.013  0.00  0.00    +0.028 A 
ATOM     27  C   UNL     1       0.037  -2.084   1.188  0.00  0.00    +0.105 A 
ATOM     28  C   UNL     1       0.023  -0.702   1.195  0.00  0.00    +0.032 A 
ENDBRANCH  19  27
ENDBRANCH  17  19
ENDBRANCH  16  17
ENDBRANCH   1  16
TORSDOF 6
