REMARK  Name = ZINC66239105
REMARK  10 active torsions:
REMARK  status: ('A' for Active; 'I' for Inactive)
REMARK    1  A    between atoms: C_10  and  C_11
REMARK    2  A    between atoms: C_11  and  S_12
REMARK    3  A    between atoms: S_12  and  C_13
REMARK    4  A    between atoms: C_16  and  S_18
REMARK    5  A    between atoms: S_18  and  C_19
REMARK    6  A    between atoms: C_19  and  C_20
REMARK    7  A    between atoms: C_20  and  C_22
REMARK    8  A    between atoms: C_20  and  C_26
REMARK    9  A    between atoms: C_22  and  C_23
REMARK   10  A    between atoms: C_23  and  C_24
REMARK                            x       y       z     vdW  Elec       q    Type
REMARK                         _______ _______ _______ _____ _____    ______ ____
ROOT
ATOM      1  C   UNL     1       6.998   1.367   1.482  0.00  0.00    +0.160 A 
ATOM      2  N   UNL     1       7.614   1.755   0.382  0.00  0.00    -0.134 NA
ATOM      3  N   UNL     1       8.793   2.460   0.470  0.00  0.00    -0.134 NA
ATOM      4  C   UNL     1       9.300   2.744   1.654  0.00  0.00    +0.159 A 
ATOM      5  S   UNL     1       8.090   2.008   2.742  0.00  0.00    -0.033 S 
ENDROOT
BRANCH   1   6
ATOM      6  S   UNL     1       5.496   0.464   1.661  0.00  0.00    -0.092 S 
BRANCH   6   7
ATOM      7  C   UNL     1       4.960   0.161  -0.046  0.00  0.00    +0.112 C 
BRANCH   7  17
ATOM      8  C   UNL     1      -0.016   1.357   0.009  0.00  0.00    +0.001 A 
ATOM      9  C   UNL     1       1.169   2.091   0.002  0.00  0.00    +0.001 A 
ATOM     10  C   UNL     1       2.378   1.468  -0.013  0.00  0.00    +0.009 A 
ATOM     11  C   UNL     1       2.438   0.064  -0.021  0.00  0.00    -0.014 A 
ATOM     12  C   UNL     1       1.233  -0.683  -0.013  0.00  0.00    -0.018 A 
ATOM     13  C   UNL     1       0.002  -0.004   0.002  0.00  0.00    +0.008 A 
ATOM     14  C   UNL     1       1.292  -2.087  -0.021  0.00  0.00    +0.008 A 
ATOM     15  C   UNL     1       2.502  -2.709  -0.036  0.00  0.00    +0.001 A 
ATOM     16  C   UNL     1       3.687  -1.976  -0.043  0.00  0.00    +0.005 A 
ATOM     17  C   UNL     1       3.668  -0.615  -0.037  0.00  0.00    -0.029 A 
ENDBRANCH   7  17
ENDBRANCH   6   7
ENDBRANCH   1   6
BRANCH   4  18
ATOM     18  S   UNL     1      10.775   3.622   2.055  0.00  0.00    -0.096 S 
BRANCH  18  19
ATOM     19  C   UNL     1      11.472   4.069   0.441  0.00  0.00    +0.094 C 
BRANCH  19  20
ATOM     20  C   UNL     1      12.774   4.846   0.645  0.00  0.00    +0.103 C 
BRANCH  20  21
ATOM     21  C   UNL     1      12.482   6.126   1.311  0.00  0.00    +0.067 C 
ATOM     22  N   UNL     1      12.256   7.114   1.824  0.00  0.00    -0.196 NA
ENDBRANCH  20  21
BRANCH  20  23
ATOM     23  C   UNL     1      13.426   5.114  -0.713  0.00  0.00    +0.034 C 
BRANCH  23  24
ATOM     24  C   UNL     1      14.787   5.781  -0.501  0.00  0.00    +0.120 C 
BRANCH  24  25
ATOM     25  C   UNL     1      15.415   6.039  -1.808  0.00  0.00    +0.063 C 
ATOM     26  N   UNL     1      15.899   6.238  -2.816  0.00  0.00    -0.197 NA
ENDBRANCH  24  25
ENDBRANCH  23  24
ENDBRANCH  20  23
ENDBRANCH  19  20
ENDBRANCH  18  19
ENDBRANCH   4  18
TORSDOF 10
