REMARK  Name = ZINC39482459
REMARK  7 active torsions:
REMARK  status: ('A' for Active; 'I' for Inactive)
REMARK    1  A    between atoms: C_4  and  O_32
REMARK    2  A    between atoms: C_5  and  C_7
REMARK    3  A    between atoms: C_10  and  N_21
REMARK    4  A    between atoms: C_11  and  N_13
REMARK    5  A    between atoms: N_21  and  S_22
REMARK    6  A    between atoms: S_22  and  C_25
REMARK    7  A    between atoms: C_30  and  O_31
REMARK                            x       y       z     vdW  Elec       q    Type
REMARK                         _______ _______ _______ _____ _____    ______ ____
ROOT
ATOM      1  C   UNL     1       2.029  -2.500   0.946  0.00  0.00    -0.013 A 
ATOM      2  C   UNL     1       2.639  -3.044  -0.183  0.00  0.00    +0.010 A 
ATOM      3  C   UNL     1       2.480  -4.383  -0.477  0.00  0.00    +0.027 A 
ATOM      4  C   UNL     1       1.713  -5.191   0.349  0.00  0.00    +0.069 A 
ATOM      5  C   UNL     1       1.100  -4.652   1.481  0.00  0.00    +0.053 A 
ATOM      6  C   UNL     1       1.262  -3.311   1.782  0.00  0.00    +0.033 A 
ENDROOT
BRANCH   5   7
ATOM      7  N   UNL     1       0.325  -5.468   2.315  0.00  0.00    -0.325 N 
ATOM      8  C   UNL     1       0.931  -6.176   3.453  0.00  0.00    +0.120 C 
ATOM      9  C   UNL     1       0.103  -5.878   4.707  0.00  0.00    +0.101 C 
ATOM     10  N   UNL     1      -1.306  -6.207   4.450  0.00  0.00    -0.298 NA
ATOM     11  C   UNL     1      -1.863  -5.364   3.384  0.00  0.00    +0.164 C 
ATOM     12  C   UNL     1      -1.117  -5.636   2.079  0.00  0.00    +0.140 C 
ATOM     13 CL   UNL     1      -3.613  -5.744   3.170  0.00  0.00    -0.103 Cl
ATOM     14  H   UNL     1      -1.414  -7.186   4.231  0.00  0.00    +0.123 HD
ENDBRANCH   5   7
BRANCH   1  19
ATOM     15  C   UNL     1       1.253   1.069   1.835  0.00  0.00    +0.001 A 
ATOM     16  C   UNL     1       2.518   1.629   1.850  0.00  0.00    +0.004 A 
ATOM     17  C   UNL     1       3.627   0.854   1.571  0.00  0.00    +0.046 A 
ATOM     18  C   UNL     1       3.477  -0.492   1.276  0.00  0.00    +0.125 A 
ATOM     19  C   UNL     1       2.200  -1.061   1.261  0.00  0.00    +0.024 A 
ATOM     20  C   UNL     1       1.089  -0.269   1.543  0.00  0.00    +0.012 A 
BRANCH  18  21
ATOM     21  O   UNL     1       4.566  -1.256   1.001  0.00  0.00    -0.506 OA
ATOM     22  H   UNL     1       4.960  -1.673   1.779  0.00  0.00    +0.292 HD
ENDBRANCH  18  21
ENDBRANCH   1  19
BRANCH   4  23
ATOM     23  N   UNL     1       1.554  -6.549   0.048  0.00  0.00    -0.214 N 
ATOM     24  H   UNL     1       0.712  -6.992   0.237  0.00  0.00    +0.174 HD
BRANCH  23  25
ATOM     25  S   UNL     1       2.802  -7.398  -0.632  0.00  0.00    +0.076 S 
ATOM     26  O   UNL     1       3.969  -7.066   0.107  0.00  0.00    -0.150 OA
ATOM     27  O   UNL     1       2.349  -8.736  -0.781  0.00  0.00    -0.150 OA
BRANCH  25  28
ATOM     28  C   UNL     1       3.039  -6.763  -2.259  0.00  0.00    +0.150 A 
ATOM     29  C   UNL     1       4.228  -6.143  -2.593  0.00  0.00    +0.032 A 
ATOM     30  C   UNL     1       4.414  -5.644  -3.869  0.00  0.00    +0.002 A 
ATOM     31  C   UNL     1       3.412  -5.764  -4.814  0.00  0.00    +0.004 A 
ATOM     32  C   UNL     1       2.222  -6.383  -4.485  0.00  0.00    +0.047 A 
ATOM     33  C   UNL     1       2.034  -6.889  -3.207  0.00  0.00    +0.143 A 
BRANCH  33  34
ATOM     34  O   UNL     1       0.866  -7.503  -2.882  0.00  0.00    -0.505 OA
ATOM     35  H   UNL     1       0.184  -6.902  -2.551  0.00  0.00    +0.292 HD
ENDBRANCH  33  34
ENDBRANCH  25  28
ENDBRANCH  23  25
ENDBRANCH   4  23
TORSDOF 7
