REMARK  Name = ZINC02838024
REMARK  10 active torsions:
REMARK  status: ('A' for Active; 'I' for Inactive)
REMARK    1  A    between atoms: C_1  and  N_2
REMARK    2  A    between atoms: C_3  and  C_23
REMARK    3  A    between atoms: C_6  and  S_7
REMARK    4  A    between atoms: S_7  and  C_8
REMARK    5  A    between atoms: C_8  and  C_9
REMARK    6  A    between atoms: N_11  and  C_12
REMARK    7  A    between atoms: C_13  and  C_21
REMARK    8  A    between atoms: C_23  and  N_24
REMARK    9  A    between atoms: C_25  and  C_27
REMARK   10  A    between atoms: C_31  and  N_33
REMARK                            x       y       z     vdW  Elec       q    Type
REMARK                         _______ _______ _______ _____ _____    ______ ____
ROOT
ATOM      1  C   UNL     1       2.826   8.147  -2.492  0.00  0.00    +0.152 C 
ATOM      2  N   UNL     1       3.231   8.285  -1.091  0.00  0.00    -0.308 N 
ATOM      3  C   UNL     1       2.482   7.999   0.017  0.00  0.00    +0.151 A 
ATOM      4  N   UNL     1       3.215   8.267   1.061  0.00  0.00    -0.132 NA
ATOM      5  N   UNL     1       4.370   8.690   0.691  0.00  0.00    -0.122 NA
ATOM      6  C   UNL     1       4.435   8.725  -0.620  0.00  0.00    +0.192 A 
ENDROOT
BRANCH   6   7
ATOM      7  S   UNL     1       5.813   9.241  -1.588  0.00  0.00    -0.077 S 
BRANCH   7   8
ATOM      8  C   UNL     1       6.982   9.662  -0.271  0.00  0.00    +0.173 C 
BRANCH   8   9
ATOM      9  C   UNL     1       8.274  10.143  -0.880  0.00  0.00    +0.228 C 
ATOM     10  O   UNL     1       8.392  10.196  -2.086  0.00  0.00    -0.275 OA
ATOM     11  N   UNL     1       9.297  10.514  -0.086  0.00  0.00    -0.278 N 
ATOM     12  H   UNL     1       9.202  10.471   0.879  0.00  0.00    +0.155 HD
BRANCH  11  13
ATOM     13  C   UNL     1      10.486  10.957  -0.647  0.00  0.00    +0.090 A 
ATOM     14  C   UNL     1      11.638  11.382  -0.002  0.00  0.00    +0.084 A 
ATOM     15  C   UNL     1      12.758  11.796  -0.829  0.00  0.00    -0.018 A 
ATOM     16  C   UNL     1      12.545  11.729  -2.162  0.00  0.00    -0.004 A 
ATOM     17  S   UNL     1      10.890  11.120  -2.324  0.00  0.00    -0.077 S 
ATOM     18  C   UNL     1      13.507  12.094  -3.249  0.00  0.00    +0.043 C 
ATOM     19  C   UNL     1      14.648  12.913  -2.631  0.00  0.00    +0.005 C 
ATOM     20  C   UNL     1      15.147  12.195  -1.373  0.00  0.00    +0.005 C 
ATOM     21  C   UNL     1      14.090  12.282  -0.271  0.00  0.00    +0.037 C 
BRANCH  14  22
ATOM     22  C   UNL     1      11.721  11.408   1.428  0.00  0.00    +0.102 C 
ATOM     23  N   UNL     1      11.787  11.429   2.562  0.00  0.00    -0.191 NA
ENDBRANCH  14  22
ENDBRANCH  11  13
ENDBRANCH   8   9
ENDBRANCH   7   8
ENDBRANCH   6   7
BRANCH   3  24
ATOM     24  C   UNL     1       1.068   7.478   0.029  0.00  0.00    +0.181 C 
BRANCH  24  25
ATOM     25  N   UNL     1       1.088   6.013   0.022  0.00  0.00    -0.304 N 
ATOM     26  C   UNL     1      -0.070   5.323   0.030  0.00  0.00    +0.244 C 
ATOM     27  O   UNL     1      -1.131   5.916   0.043  0.00  0.00    -0.270 OA
ATOM     28  H   UNL     1       1.934   5.539   0.011  0.00  0.00    +0.149 HD
BRANCH  26  29
ATOM     29  C   UNL     1      -0.050   3.845   0.023  0.00  0.00    +0.039 A 
ATOM     30  C   UNL     1       1.166   3.160   0.007  0.00  0.00    +0.013 A 
ATOM     31  C   UNL     1       1.178   1.781   0.000  0.00  0.00    +0.003 A 
ATOM     32  C   UNL     1      -0.013   1.076   0.008  0.00  0.00    +0.033 A 
ATOM     33  C   UNL     1      -1.222   1.748   0.017  0.00  0.00    +0.127 A 
ATOM     34  C   UNL     1      -1.247   3.128   0.031  0.00  0.00    +0.045 A 
BRANCH  33  35
ATOM     35  N   UNL     1      -2.490   0.986   0.019  0.00  0.00    +0.056 N 
ATOM     36  O   UNL     1      -2.469  -0.232   0.012  0.00  0.00    -0.126 OA
ATOM     37  O   UNL     1      -3.556   1.576   0.027  0.00  0.00    -0.126 OA
ENDBRANCH  33  35
ENDBRANCH  26  29
ENDBRANCH  24  25
ENDBRANCH   3  24
TORSDOF 9
