REMARK  Name = ZINC08815980
REMARK  8 active torsions:
REMARK  status: ('A' for Active; 'I' for Inactive)
REMARK    1  A    between atoms: C_1  and  C_2
REMARK    2  A    between atoms: C_6  and  N_9
REMARK    3  A    between atoms: C_7  and  C_8
REMARK    4  A    between atoms: C_10  and  C_12
REMARK    5  A    between atoms: C_12  and  C_13
REMARK    6  A    between atoms: N_17  and  C_29
REMARK    7  A    between atoms: N_19  and  C_20
REMARK    8  A    between atoms: C_25  and  C_26
REMARK                            x       y       z     vdW  Elec       q    Type
REMARK                         _______ _______ _______ _____ _____    ______ ____
ROOT
ATOM      1  C   UNL     1      -0.101   1.186  -0.006  0.00  0.00    +0.149 C 
ATOM      2  C   UNL     1      -0.648   1.774   1.285  0.00  0.00    +0.235 C 
ATOM      3  O   UNL     1      -1.758   1.506   1.694  0.00  0.00    -0.274 OA
ATOM      4  N   UNL     1       0.161   2.594   1.933  0.00  0.00    -0.253 N 
ATOM      5  C   UNL     1       1.424   2.902   1.471  0.00  0.00    +0.164 C 
ATOM      6  N   UNL     1       2.315   3.695   2.018  0.00  0.00    -0.226 NA
ATOM      7  S   UNL     1       1.561   1.967  -0.045  0.00  0.00    -0.077 S 
ATOM      8  C   UNL     1      -0.300   3.198   3.185  0.00  0.00    +0.140 C 
ENDROOT
BRANCH   6   9
ATOM      9  C   UNL     1       1.994   4.419   3.135  0.00  0.00    +0.069 A 
ATOM     10  C   UNL     1       2.306   3.926   4.404  0.00  0.00    +0.029 A 
ATOM     11  C   UNL     1       1.980   4.659   5.526  0.00  0.00    +0.022 A 
ATOM     12  C   UNL     1       1.344   5.882   5.396  0.00  0.00    +0.041 A 
ATOM     13  C   UNL     1       1.032   6.377   4.141  0.00  0.00    +0.025 A 
ATOM     14  C   UNL     1       1.358   5.656   3.011  0.00  0.00    -0.024 A 
ATOM     15  C   UNL     1       1.023   6.198   1.646  0.00  0.00    +0.046 C 
ATOM     16 CL   UNL     1       0.937   6.799   6.812  0.00  0.00    -0.084 Cl
ENDBRANCH   6   9
BRANCH   1  17
ATOM     17  C   UNL     1      -0.941   1.613  -1.211  0.00  0.00    +0.120 C 
BRANCH  17  19
ATOM     18  N   UNL     1      -0.965   1.223  -3.654  0.00  0.00    -0.285 N 
ATOM     19  C   UNL     1      -0.381   0.987  -2.462  0.00  0.00    +0.219 C 
ATOM     20  O   UNL     1       0.594   0.269  -2.396  0.00  0.00    -0.275 OA
ATOM     21  H   UNL     1      -1.791   1.730  -3.697  0.00  0.00    +0.155 HD
BRANCH  18  27
ATOM     22  C   UNL     1      -1.426  -0.217  -8.331  0.00  0.00    +0.044 C 
ATOM     23  C   UNL     1      -0.578   0.032  -7.111  0.00  0.00    -0.046 A 
ATOM     24  C   UNL     1       0.781  -0.219  -7.151  0.00  0.00    +0.004 A 
ATOM     25  C   UNL     1       1.562   0.008  -6.032  0.00  0.00    +0.002 A 
ATOM     26  C   UNL     1       0.986   0.486  -4.871  0.00  0.00    +0.023 A 
ATOM     27  C   UNL     1      -0.378   0.739  -4.828  0.00  0.00    +0.037 A 
ATOM     28  C   UNL     1      -1.161   0.504  -5.951  0.00  0.00    -0.026 A 
ATOM     29  C   UNL     1      -2.643   0.771  -5.907  0.00  0.00    +0.046 C 
ENDBRANCH  18  27
ENDBRANCH  17  19
ENDBRANCH   1  17
TORSDOF 4
