REMARK  Name = ZINC40367962
REMARK  8 active torsions:
REMARK  status: ('A' for Active; 'I' for Inactive)
REMARK    1  A    between atoms: C_1  and  C_2
REMARK    2  A    between atoms: C_2  and  C_3
REMARK    3  A    between atoms: C_3  and  C_5
REMARK    4  A    between atoms: C_3  and  N_6
REMARK    5  A    between atoms: C_7  and  C_9
REMARK    6  A    between atoms: C_9  and  N_10
REMARK    7  A    between atoms: N_12  and  C_33
REMARK    8  A    between atoms: C_21  and  C_23
REMARK                            x       y       z     vdW  Elec       q    Type
REMARK                         _______ _______ _______ _____ _____    ______ ____
ROOT
ATOM      1  N   UNL     1       5.229   0.320   3.245  0.00  0.00    -0.275 N 
ATOM      2  C   UNL     1       5.127   1.487   4.120  0.00  0.00    +0.217 C 
ATOM      3  N   UNL     1       5.559   1.086   5.465  0.00  0.00    -0.300 N 
ATOM      4  C   UNL     1       5.916  -0.335   5.365  0.00  0.00    +0.115 C 
ATOM      5  C   UNL     1       5.675  -0.743   3.935  0.00  0.00    +0.241 C 
ATOM      6  O   UNL     1       5.855  -1.852   3.480  0.00  0.00    -0.273 OA
ATOM      7  C   UNL     1       5.031  -1.161   6.298  0.00  0.00    +0.054 C 
ATOM      8  C   UNL     1       5.243  -0.696   7.743  0.00  0.00    +0.110 C 
ATOM      9  N   UNL     1       6.678  -0.755   8.052  0.00  0.00    -0.301 N 
ATOM     10  C   UNL     1       7.621  -0.057   7.168  0.00  0.00    +0.110 C 
ATOM     11  C   UNL     1       7.388  -0.528   5.729  0.00  0.00    +0.054 C 
ATOM     12  C   UNL     1       7.120  -1.437   9.127  0.00  0.00    +0.222 C 
ATOM     13  O   UNL     1       8.306  -1.469   9.380  0.00  0.00    -0.275 OA
ENDROOT
BRANCH  12  14
ATOM     14  C   UNL     1       6.142  -2.161  10.016  0.00  0.00    +0.048 C 
ATOM     15  C   UNL     1       5.145  -1.157  10.600  0.00  0.00    +0.019 C 
ATOM     16  C   UNL     1       4.151  -1.892  11.502  0.00  0.00    -0.009 C 
ATOM     17  C   UNL     1       4.908  -2.580  12.640  0.00  0.00    +0.007 C 
ATOM     18  C   UNL     1       5.905  -3.583  12.056  0.00  0.00    -0.009 C 
ATOM     19  C   UNL     1       6.898  -2.849  11.154  0.00  0.00    +0.019 C 
ATOM     20  C   UNL     1       5.151  -4.633  11.237  0.00  0.00    +0.007 C 
ATOM     21  C   UNL     1       4.394  -3.945  10.099  0.00  0.00    -0.009 C 
ATOM     22  C   UNL     1       3.398  -2.942  10.683  0.00  0.00    +0.007 C 
ATOM     23  C   UNL     1       5.388  -3.210   9.197  0.00  0.00    +0.019 C 
ENDBRANCH  12  14
BRANCH   3  24
ATOM     24  C   UNL     1       5.618   1.891   6.605  0.00  0.00    +0.032 A 
ATOM     25  C   UNL     1       5.158   3.201   6.557  0.00  0.00    +0.023 A 
ATOM     26  C   UNL     1       5.218   3.994   7.686  0.00  0.00    +0.002 A 
ATOM     27  C   UNL     1       5.735   3.485   8.864  0.00  0.00    +0.000 A 
ATOM     28  C   UNL     1       6.193   2.182   8.915  0.00  0.00    +0.002 A 
ATOM     29  C   UNL     1       6.132   1.381   7.791  0.00  0.00    +0.023 A 
ENDBRANCH   3  24
BRANCH   1  30
ATOM     30  C   UNL     1       4.888   0.309   1.820  0.00  0.00    +0.205 C 
BRANCH  30  32
ATOM     31  N   UNL     1       2.893  -0.117   0.421  0.00  0.00    -0.311 N 
ATOM     32  C   UNL     1       3.433  -0.046   1.654  0.00  0.00    +0.231 C 
ATOM     33  O   UNL     1       2.748  -0.269   2.630  0.00  0.00    -0.274 OA
ATOM     34  H   UNL     1       3.440   0.061  -0.359  0.00  0.00    +0.149 HD
BRANCH  31  35
ATOM     35  C   UNL     1       1.478  -0.463   0.260  0.00  0.00    +0.070 C 
ATOM     36  C   UNL     1       1.322  -1.984   0.256  0.00  0.00    +0.028 C 
BRANCH  35  38
ATOM     37  C   UNL     1       1.001   1.635  -1.010  0.00  0.00    +0.005 C 
ATOM     38  C   UNL     1       0.961   0.107  -1.062  0.00  0.00    +0.018 C 
ENDBRANCH  35  38
ENDBRANCH  31  35
ENDBRANCH  30  32
ENDBRANCH   1  30
TORSDOF 6
