REMARK  Name = ZINC20386442
REMARK  10 active torsions:
REMARK  status: ('A' for Active; 'I' for Inactive)
REMARK    1  A    between atoms: C_1  and  C_2
REMARK    2  A    between atoms: C_2  and  N_3
REMARK    3  A    between atoms: C_9  and  N_27
REMARK    4  A    between atoms: C_10  and  C_11
REMARK    5  A    between atoms: C_11  and  C_13
REMARK    6  A    between atoms: C_11  and  N_14
REMARK    7  A    between atoms: N_17  and  C_18
REMARK    8  A    between atoms: C_20  and  C_26
REMARK    9  A    between atoms: C_23  and  O_24
REMARK   10  A    between atoms: O_24  and  C_25
REMARK                            x       y       z     vdW  Elec       q    Type
REMARK                         _______ _______ _______ _____ _____    ______ ____
ROOT
ATOM      1  N   UNL     1       0.977  -2.725  -0.013  0.00  0.00    +0.383 N 
ATOM      2  C   UNL     1      -0.056  -2.214  -0.925  0.00  0.00    -0.074 C 
ATOM      3  C   UNL     1      -0.680  -0.938  -0.355  0.00  0.00    +0.018 C 
ATOM      4  C   UNL     1       0.447   0.031  -0.006  0.00  0.00    -0.034 A 
ATOM      5  C   UNL     1       1.718  -0.441   0.122  0.00  0.00    -0.021 A 
ATOM      6  S   UNL     1       2.669   1.000   0.516  0.00  0.00    -0.077 S 
ATOM      7  C   UNL     1       1.330   2.184   0.497  0.00  0.00    +0.090 A 
ATOM      8  C   UNL     1       0.264   1.397   0.193  0.00  0.00    +0.007 A 
ATOM      9  C   UNL     1       2.169  -1.856  -0.037  0.00  0.00    -0.035 C 
ATOM     10  H   UNL     1       0.564  -2.720   1.007  0.00  0.00    -0.081 HD
ENDROOT
BRANCH   7  11
ATOM     11  N   UNL     1       1.369   3.563   0.733  0.00  0.00    -0.317 N 
ATOM     12  C   UNL     1       2.499   4.310   0.902  0.00  0.00    +0.092 A 
ATOM     13  C   UNL     1       2.131   5.593   1.103  0.00  0.00    +0.019 A 
ATOM     14  C   UNL     1       0.723   5.638   1.066  0.00  0.00    +0.019 A 
ATOM     15  C   UNL     1       0.283   4.384   0.839  0.00  0.00    +0.092 A 
ENDBRANCH   7  11
BRANCH   1  17
ATOM     16  C   UNL     1       1.804  -4.187  -1.795  0.00  0.00    -0.017 C 
ATOM     17  C   UNL     1       1.330  -4.113  -0.342  0.00  0.00    -0.082 C 
ENDBRANCH   1  17
BRANCH   8  18
ATOM     18  C   UNL     1      -1.111   2.001   0.066  0.00  0.00    +0.104 C 
ATOM     19  C   UNL     1      -1.637   2.368   1.455  0.00  0.00    +0.033 C 
BRANCH  18  20
ATOM     20  N   UNL     1      -1.039   3.207  -0.763  0.00  0.00    -0.292 N 
ATOM     21  C   UNL     1      -2.169   3.762  -1.244  0.00  0.00    +0.304 C 
ATOM     22  O   UNL     1      -3.248   3.262  -0.991  0.00  0.00    -0.252 OA
ATOM     23  N   UNL     1      -2.103   4.872  -2.007  0.00  0.00    -0.266 N 
ATOM     24  H   UNL     1      -0.063   3.660  -0.992  0.00  0.00    +0.151 HD
ATOM     25  H   UNL     1      -1.136   5.371  -2.168  0.00  0.00    +0.156 HD
BRANCH  23  26
ATOM     26  C   UNL     1      -3.266   5.389  -2.594  0.00  0.00    +0.077 A 
ATOM     27  C   UNL     1      -4.484   5.278  -1.939  0.00  0.00    +0.030 A 
ATOM     28  C   UNL     1      -5.629   5.789  -2.520  0.00  0.00    -0.048 A 
ATOM     29  C   UNL     1      -5.565   6.412  -3.753  0.00  0.00    +0.007 A 
ATOM     30  C   UNL     1      -4.354   6.526  -4.411  0.00  0.00    +0.048 A 
ATOM     31  C   UNL     1      -3.201   6.020  -3.834  0.00  0.00    +0.141 A 
ATOM     32  C   UNL     1      -6.951   5.668  -1.807  0.00  0.00    +0.044 C 
BRANCH  31  33
ATOM     33  O   UNL     1      -2.009   6.136  -4.478  0.00  0.00    -0.493 OA
ATOM     34  C   UNL     1      -2.018   6.796  -5.745  0.00  0.00    +0.277 C 
ENDBRANCH  31  33
ENDBRANCH  23  26
ENDBRANCH  18  20
ENDBRANCH   8  18
TORSDOF 6
