REMARK  Name = ZINC38660828
REMARK  9 active torsions:
REMARK  status: ('A' for Active; 'I' for Inactive)
REMARK    1  A    between atoms: C_4  and  O_7
REMARK    2  A    between atoms: O_7  and  C_8
REMARK    3  A    between atoms: C_12  and  C_14
REMARK    4  A    between atoms: C_19  and  O_28
REMARK    5  A    between atoms: C_23  and  N_27
REMARK    6  A    between atoms: C_24  and  C_25
REMARK    7  A    between atoms: O_28  and  C_29
REMARK    8  A    between atoms: C_29  and  C_31
REMARK    9  A    between atoms: C_34  and  N_37
REMARK                            x       y       z     vdW  Elec       q    Type
REMARK                         _______ _______ _______ _____ _____    ______ ____
ROOT
ATOM      1  C   UNL     1       6.306  -4.678   0.148  0.00  0.00    +0.098 C 
ATOM      2  C   UNL     1       6.377  -5.512   1.399  0.00  0.00    +0.008 A 
ATOM      3  C   UNL     1       6.618  -4.895   2.615  0.00  0.00    +0.012 A 
ATOM      4  C   UNL     1       6.687  -5.644   3.773  0.00  0.00    +0.047 A 
ATOM      5  C   UNL     1       6.514  -7.020   3.721  0.00  0.00    +0.135 A 
ATOM      6  C   UNL     1       6.272  -7.640   2.506  0.00  0.00    +0.093 A 
ATOM      7  C   UNL     1       6.203  -6.886   1.341  0.00  0.00    +0.138 A 
ATOM      8  O   UNL     1       5.965  -7.507   0.160  0.00  0.00    -0.441 OA
ATOM      9  C   UNL     1       6.271  -6.892  -0.994  0.00  0.00    +0.199 C 
ATOM     10  C   UNL     1       6.445  -5.554  -1.065  0.00  0.00    +0.098 C 
ENDROOT
BRANCH   1  15
ATOM     11  C   UNL     1       3.718  -1.927   0.027  0.00  0.00    +0.129 A 
ATOM     12  C   UNL     1       2.540  -2.659   0.008  0.00  0.00    +0.046 A 
ATOM     13  C   UNL     1       2.585  -4.039   0.034  0.00  0.00    +0.004 A 
ATOM     14  C   UNL     1       3.804  -4.691   0.079  0.00  0.00    +0.005 A 
ATOM     15  C   UNL     1       4.979  -3.964   0.098  0.00  0.00    -0.031 A 
ATOM     16  C   UNL     1       4.940  -2.583   0.067  0.00  0.00    +0.050 A 
BRANCH  11  17
ATOM     17  O   UNL     1       3.676  -0.569   0.002  0.00  0.00    -0.456 OA
BRANCH  17  21
ATOM     18  C   UNL     1       2.839   1.409   3.524  0.00  0.00    +0.000 A 
ATOM     19  C   UNL     1       2.819   0.027   3.487  0.00  0.00    +0.004 A 
ATOM     20  C   UNL     1       3.099  -0.637   2.309  0.00  0.00    +0.046 A 
ATOM     21  C   UNL     1       3.400   0.083   1.162  0.00  0.00    +0.128 A 
ATOM     22  C   UNL     1       3.419   1.470   1.201  0.00  0.00    +0.046 A 
ATOM     23  C   UNL     1       3.139   2.130   2.382  0.00  0.00    +0.004 A 
ENDBRANCH  17  21
ENDBRANCH  11  17
ENDBRANCH   1  15
BRANCH   9  24
ATOM     24  N   UNL     1       6.411  -7.645  -2.133  0.00  0.00    -0.328 N 
ATOM     25  H   UNL     1       6.289  -8.607  -2.097  0.00  0.00    +0.145 HD
ATOM     26  H   UNL     1       6.632  -7.216  -2.975  0.00  0.00    +0.145 HD
ENDBRANCH   9  24
BRANCH  10  27
ATOM     27  C   UNL     1       6.769  -4.959  -2.327  0.00  0.00    +0.101 C 
ATOM     28  N   UNL     1       7.026  -4.488  -3.328  0.00  0.00    -0.191 NA
ENDBRANCH  10  27
BRANCH   5  29
ATOM     29  O   UNL     1       6.582  -7.758   4.860  0.00  0.00    -0.422 OA
BRANCH  29  30
ATOM     30  C   UNL     1       5.524  -7.734   5.694  0.00  0.00    +0.344 C 
ATOM     31  O   UNL     1       4.586  -6.997   5.463  0.00  0.00    -0.245 OA
BRANCH  30  32
ATOM     32  C   UNL     1       5.504  -8.602   6.888  0.00  0.00    +0.060 A 
ATOM     33  C   UNL     1       6.582  -9.447   7.159  0.00  0.00    +0.017 A 
ATOM     34  C   UNL     1       6.558 -10.255   8.276  0.00  0.00    +0.033 A 
ATOM     35  C   UNL     1       5.467 -10.232   9.127  0.00  0.00    +0.126 A 
ATOM     36  C   UNL     1       4.394  -9.398   8.864  0.00  0.00    +0.033 A 
ATOM     37  C   UNL     1       4.409  -8.579   7.754  0.00  0.00    +0.017 A 
BRANCH  35  38
ATOM     38  N   UNL     1       5.447 -11.103  10.323  0.00  0.00    +0.056 N 
ATOM     39  O   UNL     1       6.382 -11.834  10.555  0.00  0.00    -0.126 OA
ATOM     40  O   UNL     1       4.495 -11.085  11.069  0.00  0.00    -0.126 OA
ENDBRANCH  35  38
ENDBRANCH  30  32
ENDBRANCH  29  30
ENDBRANCH   5  29
TORSDOF 9
