REMARK  Name = ZINC48547577
REMARK  9 active torsions:
REMARK  status: ('A' for Active; 'I' for Inactive)
REMARK    1  A    between atoms: C_3  and  N_34
REMARK    2  A    between atoms: C_6  and  C_7
REMARK    3  A    between atoms: C_10  and  C_12
REMARK    4  A    between atoms: C_12  and  C_14
REMARK    5  A    between atoms: C_12  and  C_16
REMARK    6  A    between atoms: C_16  and  C_18
REMARK    7  A    between atoms: N_20  and  C_21
REMARK    8  A    between atoms: C_24  and  C_30
REMARK    9  A    between atoms: C_26  and  N_27
REMARK                            x       y       z     vdW  Elec       q    Type
REMARK                         _______ _______ _______ _____ _____    ______ ____
ROOT
ATOM      1  C   UNL     1      -5.683  -0.795  -1.215  0.00  0.00    +0.241 C 
ATOM      2  O   UNL     1      -5.379  -1.848  -1.722  0.00  0.00    -0.285 OA
ENDROOT
BRANCH   1   3
ATOM      3  C   UNL     1      -6.782   0.024  -1.798  0.00  0.00    +0.286 C 
ATOM      4  O   UNL     1      -7.087   1.082  -1.288  0.00  0.00    -0.267 OA
ATOM      5  N   UNL     1      -7.438  -0.411  -2.893  0.00  0.00    -0.277 N 
ATOM      6  H   UNL     1      -7.152  -1.224  -3.339  0.00  0.00    +0.155 HD
BRANCH   5   7
ATOM      7  C   UNL     1      -8.529   0.309  -3.385  0.00  0.00    +0.064 A 
ATOM      8  C   UNL     1      -8.537   1.697  -3.313  0.00  0.00    +0.026 A 
ATOM      9  C   UNL     1      -9.617   2.406  -3.801  0.00  0.00    +0.014 A 
ATOM     10  C   UNL     1     -10.689   1.736  -4.362  0.00  0.00    +0.057 A 
ATOM     11  C   UNL     1     -10.684   0.355  -4.435  0.00  0.00    +0.047 A 
ATOM     12  C   UNL     1      -9.605  -0.360  -3.954  0.00  0.00    +0.148 A 
BRANCH  10  13
ATOM     13  C   UNL     1     -11.866   2.513  -4.893  0.00  0.00    +0.417 C 
ATOM     14  F   UNL     1     -11.643   3.882  -4.709  0.00  0.00    -0.166 F 
ATOM     15  F   UNL     1     -12.024   2.246  -6.257  0.00  0.00    -0.166 F 
ATOM     16  F   UNL     1     -13.024   2.132  -4.207  0.00  0.00    -0.166 F 
ENDBRANCH  10  13
BRANCH  12  17
ATOM     17  N   UNL     1      -9.598  -1.838  -4.038  0.00  0.00    +0.058 N 
ATOM     18  O   UNL     1     -10.488  -2.414  -4.619  0.00  0.00    -0.126 OA
ATOM     19  O   UNL     1      -8.703  -2.468  -3.526  0.00  0.00    -0.126 OA
ENDBRANCH  12  17
ENDBRANCH   5   7
ENDBRANCH   1   3
BRANCH   1  20
ATOM     20  C   UNL     1      -4.950  -0.309   0.009  0.00  0.00    +0.222 C 
BRANCH  20  24
ATOM     21  C   UNL     1      -1.239  -0.729  -0.052  0.00  0.00    +0.078 A 
ATOM     22  C   UNL     1      -1.246  -2.098  -0.065  0.00  0.00    +0.075 A 
ATOM     23  S   UNL     1      -3.003  -2.418  -0.041  0.00  0.00    -0.078 S 
ATOM     24  C   UNL     1      -3.533  -0.821  -0.018  0.00  0.00    +0.104 A 
ATOM     25  N   UNL     1      -2.422  -0.132  -0.023  0.00  0.00    -0.242 NA
BRANCH  21  31
ATOM     26  C   UNL     1      -0.006   1.439  -0.044  0.00  0.00    +0.012 A 
ATOM     27  C   UNL     1       1.174   2.154  -0.055  0.00  0.00    +0.033 A 
ATOM     28  C   UNL     1       2.388   1.490  -0.085  0.00  0.00    +0.126 A 
ATOM     29  C   UNL     1       2.426   0.108  -0.104  0.00  0.00    +0.033 A 
ATOM     30  C   UNL     1       1.252  -0.618  -0.094  0.00  0.00    +0.012 A 
ATOM     31  C   UNL     1       0.026   0.046  -0.064  0.00  0.00    +0.001 A 
BRANCH  28  32
ATOM     32  N   UNL     1       3.650   2.263  -0.097  0.00  0.00    +0.056 N 
ATOM     33  O   UNL     1       3.619   3.472  -0.081  0.00  0.00    -0.126 OA
ATOM     34  O   UNL     1       4.712   1.686  -0.123  0.00  0.00    -0.126 OA
ENDBRANCH  28  32
ENDBRANCH  21  31
ENDBRANCH  20  24
BRANCH  20  35
ATOM     35  C   UNL     1      -5.628  -0.805   1.217  0.00  0.00    +0.081 C 
ATOM     36  N   UNL     1      -6.152  -1.189   2.149  0.00  0.00    -0.195 NA
ENDBRANCH  20  35
ENDBRANCH   1  20
TORSDOF 9
