REMARK  Name = ZINC65882293
REMARK  10 active torsions:
REMARK  status: ('A' for Active; 'I' for Inactive)
REMARK    1  A    between atoms: C_1  and  C_2
REMARK    2  A    between atoms: C_2  and  C_3
REMARK    3  A    between atoms: C_2  and  C_4
REMARK    4  A    between atoms: C_2  and  C_5
REMARK    5  A    between atoms: C_7  and  C_10
REMARK    6  A    between atoms: C_13  and  N_16
REMARK    7  A    between atoms: C_17  and  C_19
REMARK    8  A    between atoms: C_19  and  N_20
REMARK    9  A    between atoms: N_20  and  C_21
REMARK   10  A    between atoms: C_22  and  C_24
REMARK                            x       y       z     vdW  Elec       q    Type
REMARK                         _______ _______ _______ _____ _____    ______ ____
ROOT
ATOM      1  C   UNL     1       3.575  -1.022  -3.586  0.00  0.00    +0.023 A 
ATOM      2  C   UNL     1       4.556  -0.180  -3.066  0.00  0.00    +0.013 A 
ATOM      3  C   UNL     1       5.788  -0.097  -3.679  0.00  0.00    +0.024 A 
ATOM      4  C   UNL     1       6.051  -0.852  -4.816  0.00  0.00    +0.033 A 
ATOM      5  C   UNL     1       5.074  -1.693  -5.336  0.00  0.00    +0.024 A 
ATOM      6  C   UNL     1       3.843  -1.783  -4.723  0.00  0.00    +0.013 A 
ENDROOT
BRANCH   1   9
ATOM      7  C   UNL     1       0.645  -0.745  -1.513  0.00  0.00    +0.233 A 
ATOM      8  N   UNL     1       1.870  -0.434  -1.829  0.00  0.00    -0.191 NA
ATOM      9  C   UNL     1       2.249  -1.113  -2.926  0.00  0.00    +0.202 A 
ATOM     10  N   UNL     1       1.252  -1.869  -3.316  0.00  0.00    -0.056 NA
ATOM     11  O   UNL     1       0.194  -1.644  -2.397  0.00  0.00    -0.337 OA
BRANCH   7  13
ATOM     12  C   UNL     1      -0.253   1.327  -0.489  0.00  0.00    +0.020 C 
ATOM     13  C   UNL     1      -0.131  -0.191  -0.346  0.00  0.00    +0.041 C 
ATOM     14  C   UNL     1       0.601  -0.523   0.956  0.00  0.00    +0.020 C 
ATOM     15  C   UNL     1      -1.528  -0.815  -0.320  0.00  0.00    +0.020 C 
ENDBRANCH   7  13
ENDBRANCH   1   9
BRANCH   4  16
ATOM     16  N   UNL     1       7.300  -0.766  -5.437  0.00  0.00    -0.284 N 
ATOM     17  C   UNL     1       8.393  -0.457  -4.712  0.00  0.00    +0.235 C 
ATOM     18  O   UNL     1       8.309  -0.342  -3.507  0.00  0.00    -0.274 OA
ATOM     19  H   UNL     1       7.380  -0.929  -6.390  0.00  0.00    +0.155 HD
BRANCH  17  20
ATOM     20  C   UNL     1       9.720  -0.255  -5.397  0.00  0.00    +0.203 C 
BRANCH  20  21
ATOM     21  N   UNL     1      10.742   0.069  -4.399  0.00  0.00    -0.292 N 
ATOM     22  C   UNL     1      11.511  -1.003  -3.763  0.00  0.00    +0.133 C 
ATOM     23  C   UNL     1      10.973   1.354  -4.064  0.00  0.00    +0.247 C 
ATOM     24  O   UNL     1      10.373   2.248  -4.631  0.00  0.00    -0.270 OA
BRANCH  23  25
ATOM     25  C   UNL     1      11.953   1.676  -3.014  0.00  0.00    +0.044 A 
ATOM     26  C   UNL     1      11.764   2.794  -2.122  0.00  0.00    +0.020 A 
ATOM     27  C   UNL     1      12.734   2.982  -1.204  0.00  0.00    +0.046 A 
ATOM     28  S   UNL     1      13.877   1.663  -1.551  0.00  0.00    -0.104 S 
ATOM     29  C   UNL     1      13.091   0.922  -2.834  0.00  0.00    +0.058 A 
ENDBRANCH  23  25
ENDBRANCH  20  21
ENDBRANCH  17  20
ENDBRANCH   4  16
TORSDOF 6
