REMARK  Name = ZINC43318352
REMARK  6 active torsions:
REMARK  status: ('A' for Active; 'I' for Inactive)
REMARK    1  A    between atoms: C_1  and  C_2
REMARK    2  A    between atoms: C_2  and  C_4
REMARK    3  A    between atoms: C_2  and  N_10
REMARK    4  A    between atoms: N_13  and  C_14
REMARK    5  A    between atoms: C_19  and  S_20
REMARK    6  A    between atoms: S_20  and  C_21
REMARK                            x       y       z     vdW  Elec       q    Type
REMARK                         _______ _______ _______ _____ _____    ______ ____
ROOT
ATOM      1  N   UNL     1       0.687  -0.492  -1.197  0.00  0.00    -0.292 N 
ATOM      2  C   UNL     1       2.031  -0.593  -1.212  0.00  0.00    +0.304 C 
ATOM      3  O   UNL     1       2.674  -0.297  -0.224  0.00  0.00    -0.252 OA
ATOM      4  N   UNL     1       2.662  -1.022  -2.324  0.00  0.00    -0.268 N 
ATOM      5  H   UNL     1       0.174  -0.729  -1.986  0.00  0.00    +0.151 HD
ATOM      6  H   UNL     1       2.147  -1.319  -3.090  0.00  0.00    +0.156 HD
ENDROOT
BRANCH   4   7
ATOM      7  C   UNL     1       4.063  -1.037  -2.373  0.00  0.00    +0.048 A 
ATOM      8  C   UNL     1       4.795  -1.326  -1.231  0.00  0.00    +0.024 A 
ATOM      9  C   UNL     1       6.177  -1.340  -1.281  0.00  0.00    +0.002 A 
ATOM     10  C   UNL     1       6.833  -1.067  -2.468  0.00  0.00    +0.001 A 
ATOM     11  C   UNL     1       6.111  -0.779  -3.611  0.00  0.00    +0.016 A 
ATOM     12  C   UNL     1       4.724  -0.768  -3.571  0.00  0.00    +0.029 A 
BRANCH  12  13
ATOM     13  S   UNL     1       3.801  -0.408  -5.028  0.00  0.00    -0.127 S 
ATOM     14  C   UNL     1       5.070  -0.135  -6.295  0.00  0.00    +0.090 C 
ENDBRANCH  12  13
ENDBRANCH   4   7
BRANCH   1  16
ATOM     15  C   UNL     1      -0.030   1.503   0.022  0.00  0.00    +0.033 C 
ATOM     16  C   UNL     1       0.001  -0.027   0.011  0.00  0.00    +0.108 C 
BRANCH  16  17
ATOM     17  C   UNL     1      -1.409  -0.559   0.025  0.00  0.00    +0.011 A 
ATOM     18  C   UNL     1      -2.131  -1.033   1.069  0.00  0.00    +0.014 A 
ATOM     19  C   UNL     1      -3.422  -1.474   0.845  0.00  0.00    +0.028 A 
ATOM     20  C   UNL     1      -3.927  -1.419  -0.413  0.00  0.00    +0.078 A 
ATOM     21  S   UNL     1      -2.562  -0.721  -1.328  0.00  0.00    -0.080 S 
ATOM     22 CL   UNL     1      -5.495  -1.897  -0.984  0.00  0.00    -0.076 Cl
ENDBRANCH  16  17
ENDBRANCH   1  16
TORSDOF 4
