REMARK  Name = ZINC06149082
REMARK  10 active torsions:
REMARK  status: ('A' for Active; 'I' for Inactive)
REMARK    1  A    between atoms: C_1  and  C_2
REMARK    2  A    between atoms: C_2  and  C_3
REMARK    3  A    between atoms: C_3  and  C_4
REMARK    4  A    between atoms: C_3  and  C_5
REMARK    5  A    between atoms: C_3  and  N_6
REMARK    6  A    between atoms: C_7  and  C_11
REMARK    7  A    between atoms: C_11  and  C_13
REMARK    8  A    between atoms: C_11  and  N_66
REMARK    9  A    between atoms: C_17  and  C_26
REMARK   10  A    between atoms: C_18  and  C_25
REMARK                            x       y       z     vdW  Elec       q    Type
REMARK                         _______ _______ _______ _____ _____    ______ ____
ROOT
ATOM      1  C   UNL     1      -5.051   3.898   0.004  0.00  0.00    +0.039 C 
ENDROOT
BRANCH   1   2
ATOM      2  C   UNL     1      -3.841   3.020  -0.183  0.00  0.00    +0.011 A 
ATOM      3  C   UNL     1      -2.602   3.570  -0.193  0.00  0.00    +0.017 A 
ATOM      4  C   UNL     1      -1.447   2.690  -0.381  0.00  0.00    -0.001 A 
ATOM      5  C   UNL     1      -0.146   3.201  -0.416  0.00  0.00    +0.013 A 
ATOM      6  C   UNL     1       0.910   2.354  -0.594  0.00  0.00    -0.047 A 
ATOM      7  C   UNL     1       0.704   0.989  -0.740  0.00  0.00    -0.046 A 
ATOM      8  C   UNL     1      -0.570   0.463  -0.709  0.00  0.00    +0.030 A 
ATOM      9  C   UNL     1      -1.661   1.307  -0.535  0.00  0.00    +0.049 A 
ATOM     10  N   UNL     1      -2.946   0.809  -0.505  0.00  0.00    -0.322 N 
ATOM     11  H   UNL     1      -3.096  -0.174  -0.611  0.00  0.00    +0.169 HD
ATOM     12  C   UNL     1      -4.001   1.626  -0.336  0.00  0.00    +0.251 A 
ATOM     13  O   UNL     1      -5.123   1.151  -0.314  0.00  0.00    -0.268 OA
ATOM     14  C   UNL     1       1.884   0.072  -0.935  0.00  0.00    +0.044 C 
ATOM     15  C   UNL     1       2.312   2.905  -0.632  0.00  0.00    +0.044 C 
ENDBRANCH   1   2
BRANCH   1  25
ATOM     16  C   UNL     1      -5.412   4.112  -2.383  0.00  0.00    -0.072 C 
ATOM     17  C   UNL     1      -6.256   3.534  -3.519  0.00  0.00    +0.017 C 
ATOM     18  C   UNL     1      -7.714   3.833  -3.280  0.00  0.00    -0.048 A 
ATOM     19  C   UNL     1      -8.597   3.711  -4.343  0.00  0.00    +0.004 A 
ATOM     20  C   UNL     1      -9.941   3.971  -4.167  0.00  0.00    +0.000 A 
ATOM     21  C   UNL     1     -10.410   4.355  -2.924  0.00  0.00    +0.000 A 
ATOM     22  C   UNL     1      -9.532   4.478  -1.866  0.00  0.00    +0.002 A 
ATOM     23  C   UNL     1      -8.181   4.218  -2.042  0.00  0.00    -0.061 A 
ATOM     24  C   UNL     1      -7.261   4.371  -0.859  0.00  0.00    -0.041 C 
ATOM     25  N   UNL     1      -5.999   3.655  -1.107  0.00  0.00    +0.392 N 
ATOM     26  H   UNL     1      -6.191   2.648  -1.168  0.00  0.00    -0.080 HD
ENDBRANCH   1  25
BRANCH   1  28
ATOM     27  N   UNL     1      -5.772   4.329   2.413  0.00  0.00    -0.225 N 
ATOM     28  C   UNL     1      -5.722   3.558   1.310  0.00  0.00    +0.143 A 
ATOM     29  N   UNL     1      -6.375   2.457   1.591  0.00  0.00    -0.115 NA
ATOM     30  N   UNL     1      -6.797   2.543   2.805  0.00  0.00    -0.023 NA
ATOM     31  N   UNL     1      -6.437   3.674   3.304  0.00  0.00    -0.043 NA
BRANCH  27  32
ATOM     32  C   UNL     1      -5.183   5.660   2.571  0.00  0.00    +0.061 C 
ATOM     33  C   UNL     1      -3.680   5.589   2.296  0.00  0.00    +0.036 C 
ATOM     34  C   UNL     1      -5.837   6.628   1.582  0.00  0.00    +0.036 C 
BRANCH  32  36
ATOM     35  C   UNL     1      -4.803   7.547   4.165  0.00  0.00    +0.006 C 
ATOM     36  C   UNL     1      -5.418   6.155   3.999  0.00  0.00    +0.026 C 
ENDBRANCH  32  36
ENDBRANCH  27  32
ENDBRANCH   1  28
TORSDOF 5
