REMARK  Name = ZINC22057679
REMARK  2 active torsions:
REMARK  status: ('A' for Active; 'I' for Inactive)
REMARK    1  A    between atoms: C_16  and  O_21
REMARK    2  A    between atoms: C_18  and  O_20
REMARK                            x       y       z     vdW  Elec       q    Type
REMARK                         _______ _______ _______ _____ _____    ______ ____
ROOT
ATOM      1  C   UNL     1       2.399   0.038  -0.026  0.00  0.00    +0.001 A 
ATOM      2  C   UNL     1       1.193  -0.661  -0.016  0.00  0.00    +0.001 A 
ATOM      3  C   UNL     1       0.002  -0.004   0.002  0.00  0.00    +0.009 A 
ATOM      4  C   UNL     1      -0.017   1.401   0.010  0.00  0.00    -0.012 A 
ATOM      5  C   UNL     1       1.210   2.112   0.002  0.00  0.00    -0.018 A 
ATOM      6  C   UNL     1       2.420   1.398  -0.017  0.00  0.00    +0.008 A 
ATOM      7  C   UNL     1       1.190   3.517   0.013  0.00  0.00    +0.009 A 
ATOM      8  C   UNL     1      -0.001   4.175   0.029  0.00  0.00    +0.007 A 
ATOM      9  C   UNL     1      -1.208   3.479   0.034  0.00  0.00    -0.010 A 
ATOM     10  C   UNL     1      -1.225   2.115   0.019  0.00  0.00    -0.003 A 
ATOM     11  C   UNL     1      -2.543   1.381   0.024  0.00  0.00    +0.181 C 
ATOM     12  C   UNL     1      -3.758   2.162  -0.504  0.00  0.00    +0.184 C 
ATOM     13  O   UNL     1      -3.572   1.877   0.884  0.00  0.00    -0.360 OA
ATOM     14  C   UNL     1      -3.468   3.599  -0.967  0.00  0.00    +0.179 C 
ATOM     15  C   UNL     1      -2.513   4.239   0.051  0.00  0.00    +0.176 C 
ENDROOT
BRANCH  15  16
ATOM     16  O   UNL     1      -2.277   5.604  -0.300  0.00  0.00    -0.385 OA
ATOM     17  H   UNL     1      -3.116   6.314  -0.340  0.00  0.00    +0.210 HD
ENDBRANCH  15  16
BRANCH  14  18
ATOM     18  O   UNL     1      -4.685   4.345  -1.023  0.00  0.00    -0.386 OA
ATOM     19  H   UNL     1      -4.671   5.399  -1.336  0.00  0.00    +0.210 HD
ENDBRANCH  14  18
TORSDOF 2
