REMARK  Name = ZINC39687120
REMARK  10 active torsions:
REMARK  status: ('A' for Active; 'I' for Inactive)
REMARK    1  A    between atoms: C_1  and  C_2
REMARK    2  A    between atoms: C_2  and  C_4
REMARK    3  A    between atoms: C_2  and  N_12
REMARK    4  A    between atoms: C_4  and  C_5
REMARK    5  A    between atoms: C_13  and  C_15
REMARK    6  A    between atoms: C_26  and  C_28
REMARK    7  A    between atoms: C_30  and  O_36
REMARK    8  A    between atoms: C_33  and  O_34
REMARK    9  A    between atoms: O_34  and  C_35
REMARK   10  A    between atoms: O_36  and  C_37
REMARK                            x       y       z     vdW  Elec       q    Type
REMARK                         _______ _______ _______ _____ _____    ______ ____
ROOT
ATOM      1  C   UNL     1       2.731  -1.074  -2.460  0.00  0.00    +0.100 C 
ATOM      2  C   UNL     1       2.404  -0.162  -3.663  0.00  0.00    +0.121 C 
ATOM      3  N   UNL     1       3.518   0.815  -3.706  0.00  0.00    -0.296 N 
ATOM      4  C   UNL     1       4.723   0.015  -3.379  0.00  0.00    +0.115 C 
ATOM      5  C   UNL     1       4.254  -0.959  -2.279  0.00  0.00    -0.004 C 
ATOM      6  C   UNL     1       4.913  -2.322  -2.464  0.00  0.00    -0.010 C 
ATOM      7  C   UNL     1       6.420  -2.193  -2.222  0.00  0.00    -0.082 C 
ATOM      8  N   UNL     1       6.657  -1.693  -0.863  0.00  0.00    +0.379 N 
ATOM      9  C   UNL     1       6.101  -0.342  -0.721  0.00  0.00    -0.082 C 
ATOM     10  C   UNL     1       4.581  -0.393  -0.900  0.00  0.00    -0.010 C 
ATOM     11  C   UNL     1       3.451   2.133  -3.980  0.00  0.00    +0.250 C 
ATOM     12  O   UNL     1       2.370   2.667  -4.136  0.00  0.00    -0.270 OA
ATOM     13  H   UNL     1       6.215  -2.309  -0.197  0.00  0.00    -0.086 HD
ATOM     14  H   UNL     1       7.650  -1.667  -0.684  0.00  0.00    -0.086 HD
ENDROOT
BRANCH  11  15
ATOM     15  C   UNL     1       4.690   2.927  -4.092  0.00  0.00    +0.082 A 
ATOM     16  C   UNL     1       5.844   2.355  -4.633  0.00  0.00    +0.062 A 
ATOM     17  C   UNL     1       7.001   3.105  -4.735  0.00  0.00    +0.121 A 
ATOM     18  C   UNL     1       7.018   4.425  -4.300  0.00  0.00    +0.049 A 
ATOM     19  C   UNL     1       5.883   4.997  -3.764  0.00  0.00    +0.050 A 
ATOM     20  C   UNL     1       4.713   4.259  -3.661  0.00  0.00    +0.132 A 
BRANCH  20  21
ATOM     21  O   UNL     1       3.595   4.825  -3.138  0.00  0.00    -0.494 OA
ATOM     22  C   UNL     1       3.693   6.188  -2.719  0.00  0.00    +0.277 C 
ENDBRANCH  20  21
BRANCH  17  23
ATOM     23  O   UNL     1       8.125   2.550  -5.262  0.00  0.00    -0.495 OA
ATOM     24  C   UNL     1       9.285   3.381  -5.338  0.00  0.00    +0.277 C 
ENDBRANCH  17  23
ENDBRANCH  11  15
BRANCH   1  26
ATOM     25  N   UNL     1       1.638  -1.469  -0.276  0.00  0.00    -0.312 N 
ATOM     26  C   UNL     1       2.018  -0.589  -1.224  0.00  0.00    +0.218 C 
ATOM     27  O   UNL     1       1.785   0.592  -1.083  0.00  0.00    -0.275 OA
ATOM     28  H   UNL     1       1.825  -2.414  -0.389  0.00  0.00    +0.149 HD
BRANCH  25  30
ATOM     29  C   UNL     1      -0.554  -0.885   0.637  0.00  0.00    +0.028 C 
ATOM     30  C   UNL     1       0.945  -0.998   0.925  0.00  0.00    +0.074 C 
BRANCH  30  31
ATOM     31  C   UNL     1       1.172  -1.990   2.067  0.00  0.00    +0.060 C 
BRANCH  31  32
ATOM     32  C   UNL     1       2.634  -2.009   2.433  0.00  0.00    -0.010 A 
ATOM     33  C   UNL     1       3.473  -2.956   1.877  0.00  0.00    +0.006 A 
ATOM     34  C   UNL     1       4.814  -2.974   2.212  0.00  0.00    +0.000 A 
ATOM     35  C   UNL     1       5.317  -2.045   3.103  0.00  0.00    +0.003 A 
ATOM     36  C   UNL     1       4.480  -1.097   3.660  0.00  0.00    +0.038 A 
ATOM     37  C   UNL     1       3.138  -1.075   3.321  0.00  0.00    +0.127 A 
ATOM     38  F   UNL     1       2.319  -0.146   3.862  0.00  0.00    -0.205 F 
ENDBRANCH  31  32
ENDBRANCH  30  31
ENDBRANCH  25  30
ENDBRANCH   1  26
TORSDOF 7
