REMARK  Name = ZINC04580380
REMARK  5 active torsions:
REMARK  status: ('A' for Active; 'I' for Inactive)
REMARK    1  A    between atoms: C_4  and  S_10
REMARK    2  A    between atoms: C_6  and  N_7
REMARK    3  A    between atoms: S_10  and  N_13
REMARK    4  A    between atoms: N_13  and  C_14
REMARK    5  A    between atoms: C_14  and  C_15
REMARK                            x       y       z     vdW  Elec       q    Type
REMARK                         _______ _______ _______ _____ _____    ______ ____
ROOT
ATOM      1  S   UNL     1      -2.784  -2.847   0.385  0.00  0.00    +0.060 S 
ATOM      2  O   UNL     1      -2.455  -4.224   0.263  0.00  0.00    -0.153 OA
ATOM      3  O   UNL     1      -3.287  -2.288   1.590  0.00  0.00    -0.153 OA
ENDROOT
BRANCH   1   7
ATOM      4  C   UNL     1      -5.844  -1.958  -2.831  0.00  0.00    +0.034 A 
ATOM      5  C   UNL     1      -5.407  -0.947  -1.995  0.00  0.00    +0.024 A 
ATOM      6  C   UNL     1      -4.472  -1.218  -1.013  0.00  0.00    +0.067 A 
ATOM      7  C   UNL     1      -3.975  -2.501  -0.867  0.00  0.00    +0.126 A 
ATOM      8  C   UNL     1      -4.408  -3.509  -1.707  0.00  0.00    +0.062 A 
ATOM      9  C   UNL     1      -5.346  -3.239  -2.685  0.00  0.00    +0.128 A 
ATOM     10 CL   UNL     1      -3.924   0.051   0.038  0.00  0.00    -0.082 Cl
BRANCH   9  11
ATOM     11  N   UNL     1      -5.814  -4.320  -3.581  0.00  0.00    +0.056 N 
ATOM     12  O   UNL     1      -6.637  -4.081  -4.447  0.00  0.00    -0.126 OA
ATOM     13  O   UNL     1      -5.376  -5.450  -3.453  0.00  0.00    -0.126 OA
ENDBRANCH   9  11
ENDBRANCH   1   7
BRANCH   1  14
ATOM     14  N   UNL     1      -1.413  -1.998   0.005  0.00  0.00    -0.189 NA
ATOM     15  H   UNL     1      -0.598  -2.471  -0.223  0.00  0.00    +0.148 HD
BRANCH  14  16
ATOM     16  C   UNL     1      -1.433  -0.534   0.013  0.00  0.00    +0.112 C 
BRANCH  16  17
ATOM     17  C   UNL     1       0.002  -0.004   0.002  0.00  0.00    -0.014 C 
ATOM     18  C   UNL     1      -0.019   1.526   0.010  0.00  0.00    +0.011 C 
ATOM     19  C   UNL     1       1.417   2.055  -0.000  0.00  0.00    -0.010 C 
ATOM     20  C   UNL     1       2.133   1.562  -1.259  0.00  0.00    +0.007 C 
ATOM     21  C   UNL     1       2.154   0.032  -1.268  0.00  0.00    -0.010 C 
ATOM     22  C   UNL     1       0.718  -0.497  -1.257  0.00  0.00    +0.011 C 
ATOM     23  C   UNL     1       2.894  -0.475  -0.028  0.00  0.00    +0.007 C 
ATOM     24  C   UNL     1       2.178   0.019   1.231  0.00  0.00    -0.010 C 
ATOM     25  C   UNL     1       2.157   1.548   1.239  0.00  0.00    +0.007 C 
ATOM     26  C   UNL     1       0.742  -0.511   1.242  0.00  0.00    +0.011 C 
ENDBRANCH  16  17
ENDBRANCH  14  16
ENDBRANCH   1  14
TORSDOF 5
