REMARK  Name = ZINC06445472
REMARK  5 active torsions:
REMARK  status: ('A' for Active; 'I' for Inactive)
REMARK    1  A    between atoms: C_6  and  C_7
REMARK    2  A    between atoms: C_12  and  C_14
REMARK    3  A    between atoms: C_12  and  C_29
REMARK    4  A    between atoms: C_12  and  N_68
REMARK    5  A    between atoms: N_33  and  C_34
REMARK                            x       y       z     vdW  Elec       q    Type
REMARK                         _______ _______ _______ _____ _____    ______ ____
ROOT
ATOM      1  C   UNL     1       3.510   0.737  -0.027  0.00  0.00    +0.039 C 
ENDROOT
BRANCH   1   2
ATOM      2  C   UNL     1       4.015   1.111   1.343  0.00  0.00    +0.011 A 
ATOM      3  C   UNL     1       4.740   0.217   2.063  0.00  0.00    +0.017 A 
ATOM      4  C   UNL     1       5.217   0.610   3.389  0.00  0.00    +0.002 A 
ATOM      5  C   UNL     1       5.970  -0.271   4.176  0.00  0.00    +0.059 A 
ATOM      6  C   UNL     1       6.405   0.128   5.420  0.00  0.00    +0.167 A 
ATOM      7  C   UNL     1       6.097   1.408   5.899  0.00  0.00    +0.168 A 
ATOM      8  C   UNL     1       5.354   2.283   5.129  0.00  0.00    +0.075 A 
ATOM      9  C   UNL     1       4.908   1.896   3.871  0.00  0.00    +0.053 A 
ATOM     10  N   UNL     1       4.166   2.757   3.088  0.00  0.00    -0.322 N 
ATOM     11  H   UNL     1       3.954   3.643   3.422  0.00  0.00    +0.169 HD
ATOM     12  C   UNL     1       3.739   2.389   1.869  0.00  0.00    +0.251 A 
ATOM     13  O   UNL     1       3.090   3.178   1.202  0.00  0.00    -0.268 OA
ATOM     14  O   UNL     1       6.642   1.546   7.142  0.00  0.00    -0.453 OA
ATOM     15  C   UNL     1       7.629   0.504   7.250  0.00  0.00    +0.466 C 
ATOM     16  O   UNL     1       7.142  -0.524   6.368  0.00  0.00    -0.453 OA
ENDBRANCH   1   2
BRANCH   1  22
ATOM     17  C   UNL     1       5.128   3.117  -3.099  0.00  0.00    -0.048 C 
ATOM     18  C   UNL     1       5.884   2.790  -2.073  0.00  0.00    -0.041 C 
ATOM     19  C   UNL     1       5.427   1.867  -0.980  0.00  0.00    -0.049 C 
ATOM     20  C   UNL     1       3.508   1.388  -2.362  0.00  0.00    -0.072 C 
ATOM     21  C   UNL     1       3.728   2.600  -3.272  0.00  0.00    +0.017 C 
ATOM     22  N   UNL     1       3.957   1.756  -1.003  0.00  0.00    +0.392 N 
ATOM     23  H   UNL     1       3.548   2.663  -0.750  0.00  0.00    -0.080 HD
BRANCH  17  29
ATOM     24  C   UNL     1       5.112   5.290  -4.315  0.00  0.00    +0.011 A 
ATOM     25  C   UNL     1       5.633   6.139  -5.268  0.00  0.00    +0.039 A 
ATOM     26  C   UNL     1       6.711   5.739  -6.042  0.00  0.00    +0.123 A 
ATOM     27  C   UNL     1       7.274   4.486  -5.859  0.00  0.00    +0.039 A 
ATOM     28  C   UNL     1       6.764   3.631  -4.905  0.00  0.00    +0.011 A 
ATOM     29  C   UNL     1       5.679   4.029  -4.123  0.00  0.00    -0.022 A 
ATOM     30  F   UNL     1       7.214   6.573  -6.978  0.00  0.00    -0.205 F 
ENDBRANCH  17  29
ENDBRANCH   1  22
BRANCH   1  31
ATOM     31  C   UNL     1       2.004   0.697  -0.013  0.00  0.00    +0.143 A 
ATOM     32  N   UNL     1       1.194   1.728  -0.000  0.00  0.00    -0.115 NA
ATOM     33  N   UNL     1      -0.015   1.283   0.009  0.00  0.00    -0.023 NA
ATOM     34  N   UNL     1       0.002  -0.004   0.002  0.00  0.00    -0.044 NA
ATOM     35  N   UNL     1       1.229  -0.403  -0.012  0.00  0.00    -0.227 N 
BRANCH  35  36
ATOM     36  C   UNL     1       1.691  -1.793  -0.024  0.00  0.00    +0.111 C 
ATOM     37  C   UNL     1       1.156  -2.498  -1.272  0.00  0.00    +0.027 C 
ATOM     38  C   UNL     1       1.639  -3.950  -1.285  0.00  0.00    +0.002 C 
ATOM     39  C   UNL     1       1.128  -4.668  -0.035  0.00  0.00    +0.000 C 
ATOM     40  C   UNL     1       1.663  -3.964   1.213  0.00  0.00    +0.002 C 
ATOM     41  C   UNL     1       1.180  -2.512   1.226  0.00  0.00    +0.027 C 
ENDBRANCH  35  36
ENDBRANCH   1  31
TORSDOF 5
