REMARK  Name = ZINC36039526
REMARK  10 active torsions:
REMARK  status: ('A' for Active; 'I' for Inactive)
REMARK    1  A    between atoms: C_1  and  C_2
REMARK    2  A    between atoms: C_2  and  C_3
REMARK    3  A    between atoms: C_2  and  C_4
REMARK    4  A    between atoms: C_7  and  N_10
REMARK    5  A    between atoms: C_12  and  C_27
REMARK    6  A    between atoms: N_15  and  C_16
REMARK    7  A    between atoms: C_16  and  C_18
REMARK    8  A    between atoms: C_18  and  N_19
REMARK    9  A    between atoms: N_19  and  C_20
REMARK   10  A    between atoms: C_20  and  C_21
REMARK                            x       y       z     vdW  Elec       q    Type
REMARK                         _______ _______ _______ _____ _____    ______ ____
ROOT
ATOM      1  N   UNL     1      -5.321  -1.968   0.043  0.00  0.00    -0.287 N 
ATOM      2  C   UNL     1      -6.268  -1.721   1.015  0.00  0.00    +0.120 A 
ATOM      3  C   UNL     1      -7.400  -2.359   0.668  0.00  0.00    +0.066 A 
ATOM      4  N   UNL     1      -7.167  -3.016  -0.534  0.00  0.00    -0.326 N 
ATOM      5  C   UNL     1      -5.887  -2.761  -0.908  0.00  0.00    +0.205 A 
ATOM      6  N   UNL     1      -5.288  -3.210  -2.010  0.00  0.00    -0.148 NA
ATOM      7  H   UNL     1      -7.807  -3.558  -1.022  0.00  0.00    +0.169 HD
ENDROOT
BRANCH   1  11
ATOM      8  C   UNL     1      -1.412  -0.526   0.013  0.00  0.00    -0.045 A 
ATOM      9  C   UNL     1      -2.258  -0.203   1.058  0.00  0.00    +0.006 A 
ATOM     10  C   UNL     1      -3.554  -0.680   1.070  0.00  0.00    +0.026 A 
ATOM     11  C   UNL     1      -4.008  -1.483   0.032  0.00  0.00    +0.049 A 
ATOM     12  C   UNL     1      -3.155  -1.805  -1.016  0.00  0.00    +0.026 A 
ATOM     13  C   UNL     1      -1.862  -1.321  -1.025  0.00  0.00    +0.006 A 
BRANCH   8  15
ATOM     14  C   UNL     1      -0.019   1.526   0.010  0.00  0.00    +0.012 C 
ATOM     15  C   UNL     1       0.002  -0.004   0.002  0.00  0.00    +0.013 C 
ATOM     16  C   UNL     1       0.742  -0.511   1.242  0.00  0.00    +0.012 C 
ENDBRANCH   8  15
ENDBRANCH   1  11
BRANCH   3  17
ATOM     17  C   UNL     1      -8.667  -2.362   1.431  0.00  0.00    -0.000 A 
ATOM     18  C   UNL     1      -8.766  -1.652   2.628  0.00  0.00    +0.010 A 
ATOM     19  C   UNL     1      -9.951  -1.659   3.335  0.00  0.00    +0.001 A 
ATOM     20  C   UNL     1     -11.039  -2.368   2.860  0.00  0.00    +0.000 A 
ATOM     21  C   UNL     1     -10.948  -3.074   1.674  0.00  0.00    +0.001 A 
ATOM     22  C   UNL     1      -9.771  -3.070   0.954  0.00  0.00    +0.010 A 
ENDBRANCH   3  17
BRANCH   6  23
ATOM     23  C   UNL     1      -5.956  -3.980  -2.861  0.00  0.00    +0.222 C 
ATOM     24  O   UNL     1      -7.114  -4.275  -2.635  0.00  0.00    -0.276 OA
BRANCH  23  25
ATOM     25  C   UNL     1      -5.279  -4.489  -4.108  0.00  0.00    +0.017 C 
BRANCH  25  26
ATOM     26  N   UNL     1      -6.222  -5.311  -4.877  0.00  0.00    +0.386 N 
ATOM     27  H   UNL     1      -6.522  -6.093  -4.314  0.00  0.00    -0.085 HD
ATOM     28  H   UNL     1      -7.023  -4.754  -5.133  0.00  0.00    -0.085 HD
BRANCH  26  29
ATOM     29  C   UNL     1      -5.562  -5.807  -6.092  0.00  0.00    -0.050 C 
BRANCH  29  30
ATOM     30  C   UNL     1      -6.545  -6.664  -6.893  0.00  0.00    +0.101 C 
ATOM     31  C   UNL     1      -5.826  -7.288  -8.108  0.00  0.00    +0.032 C 
ATOM     32  C   UNL     1      -6.908  -7.187  -9.218  0.00  0.00    +0.030 C 
ATOM     33  C   UNL     1      -7.606  -5.860  -8.829  0.00  0.00    +0.160 C 
ATOM     34  O   UNL     1      -7.610  -5.845  -7.391  0.00  0.00    -0.378 OA
ENDBRANCH  29  30
ENDBRANCH  26  29
ENDBRANCH  25  26
ENDBRANCH  23  25
ENDBRANCH   6  23
TORSDOF 8
