REMARK  Name = ZINC07126830
REMARK  2 active torsions:
REMARK  status: ('A' for Active; 'I' for Inactive)
REMARK    1  A    between atoms: C_10  and  C_16
REMARK    2  A    between atoms: C_21  and  O_22
REMARK                            x       y       z     vdW  Elec       q    Type
REMARK                         _______ _______ _______ _____ _____    ______ ____
ROOT
ATOM      1  C   UNL     1       3.668  -1.645   0.135  0.00  0.00    +0.002 A 
ATOM      2  C   UNL     1       4.373  -0.454   0.144  0.00  0.00    +0.002 A 
ATOM      3  C   UNL     1       3.737   0.777   0.109  0.00  0.00    +0.028 A 
ATOM      4  C   UNL     1       2.349   0.773   0.064  0.00  0.00    +0.072 A 
ATOM      5  C   UNL     1       1.621  -0.446   0.057  0.00  0.00    +0.091 A 
ATOM      6  C   UNL     1       2.286  -1.678   0.093  0.00  0.00    +0.030 A 
ATOM      7  N   UNL     1       0.311  -0.137   0.014  0.00  0.00    -0.210 NA
ATOM      8  C   UNL     1       0.169   1.167  -0.004  0.00  0.00    +0.236 A 
ATOM      9  N   UNL     1       1.418   1.767   0.017  0.00  0.00    -0.285 N 
ATOM     10  C   UNL     1       1.573   3.226  -0.021  0.00  0.00    +0.212 C 
ATOM     11  N   UNL     1       0.310   3.800   0.476  0.00  0.00    -0.293 N 
ATOM     12  C   UNL     1      -0.881   3.205   0.159  0.00  0.00    +0.183 C 
ATOM     13  N   UNL     1      -0.966   1.902  -0.049  0.00  0.00    -0.183 NA
ATOM     14  N   UNL     1      -2.008   3.975   0.054  0.00  0.00    -0.331 N 
ATOM     15  H   UNL     1       0.324   4.598   1.028  0.00  0.00    +0.151 HD
ATOM     16  H   UNL     1      -1.957   4.932   0.205  0.00  0.00    +0.145 HD
ATOM     17  H   UNL     1      -2.857   3.563  -0.170  0.00  0.00    +0.145 HD
ENDROOT
BRANCH  10  18
ATOM     18  C   UNL     1       1.823   3.681  -1.436  0.00  0.00    +0.036 A 
ATOM     19  C   UNL     1       1.557   2.831  -2.493  0.00  0.00    +0.031 A 
ATOM     20  C   UNL     1       1.781   3.250  -3.792  0.00  0.00    +0.042 A 
ATOM     21  C   UNL     1       2.283   4.516  -4.036  0.00  0.00    +0.023 A 
ATOM     22  C   UNL     1       2.556   5.367  -2.982  0.00  0.00    +0.047 A 
ATOM     23  C   UNL     1       2.326   4.950  -1.679  0.00  0.00    +0.124 A 
ATOM     24 CL   UNL     1       1.440   2.183  -5.118  0.00  0.00    -0.084 Cl
BRANCH  23  25
ATOM     25  O   UNL     1       2.595   5.786  -0.640  0.00  0.00    -0.506 OA
ATOM     26  H   UNL     1       3.516   5.765  -0.347  0.00  0.00    +0.292 HD
ENDBRANCH  23  25
ENDBRANCH  10  18
TORSDOF 2
