REMARK  Name = ZINC07069202
REMARK  4 active torsions:
REMARK  status: ('A' for Active; 'I' for Inactive)
REMARK    1  A    between atoms: C_1  and  C_2
REMARK    2  A    between atoms: C_15  and  C_17
REMARK    3  A    between atoms: C_17  and  S_18
REMARK    4  A    between atoms: S_18  and  C_19
REMARK                            x       y       z     vdW  Elec       q    Type
REMARK                         _______ _______ _______ _____ _____    ______ ____
ROOT
ATOM      1  C   UNL     1      -0.019   1.526   0.010  0.00  0.00    +0.029 C 
ATOM      2  C   UNL     1       0.002  -0.004   0.002  0.00  0.00    +0.087 C 
ATOM      3  C   UNL     1      -1.433  -0.532   0.009  0.00  0.00    +0.118 C 
ATOM      4  C   UNL     1      -1.448  -1.987   0.396  0.00  0.00    +0.219 C 
ATOM      5  O   UNL     1      -1.623  -2.835  -0.454  0.00  0.00    -0.275 OA
ATOM      6  N   UNL     1      -1.268  -2.354   1.683  0.00  0.00    -0.284 N 
ATOM      7  C   UNL     1      -0.970  -1.397   2.659  0.00  0.00    +0.055 A 
ATOM      8  C   UNL     1      -1.673  -1.354   3.851  0.00  0.00    +0.025 A 
ATOM      9  C   UNL     1      -1.345  -0.414   4.811  0.00  0.00    +0.002 A 
ATOM     10  C   UNL     1      -0.316   0.482   4.584  0.00  0.00    +0.002 A 
ATOM     11  C   UNL     1       0.385   0.452   3.393  0.00  0.00    +0.025 A 
ATOM     12  C   UNL     1       0.054  -0.479   2.422  0.00  0.00    +0.058 A 
ATOM     13  N   UNL     1       0.714  -0.487   1.187  0.00  0.00    -0.266 N 
ATOM     14  C   UNL     1       1.982  -0.932   1.091  0.00  0.00    +0.230 C 
ATOM     15  O   UNL     1       2.545  -0.934   0.017  0.00  0.00    -0.274 OA
ATOM     16  H   UNL     1      -1.347  -3.288   1.933  0.00  0.00    +0.155 HD
ENDROOT
BRANCH  14  17
ATOM     17  C   UNL     1       2.702  -1.427   2.320  0.00  0.00    +0.170 C 
BRANCH  17  18
ATOM     18  S   UNL     1       4.378  -1.953   1.868  0.00  0.00    -0.113 S 
BRANCH  18  19
ATOM     19  C   UNL     1       5.079  -2.496   3.390  0.00  0.00    +0.046 A 
ATOM     20  C   UNL     1       4.329  -2.450   4.558  0.00  0.00    +0.056 A 
ATOM     21  C   UNL     1       4.882  -2.877   5.752  0.00  0.00    +0.125 A 
ATOM     22  C   UNL     1       6.183  -3.352   5.783  0.00  0.00    +0.041 A 
ATOM     23  C   UNL     1       6.933  -3.400   4.622  0.00  0.00    +0.042 A 
ATOM     24  C   UNL     1       6.384  -2.979   3.425  0.00  0.00    +0.137 A 
ATOM     25  F   UNL     1       7.115  -3.030   2.290  0.00  0.00    -0.204 F 
ATOM     26  F   UNL     1       4.153  -2.832   6.888  0.00  0.00    -0.205 F 
ENDBRANCH  18  19
ENDBRANCH  17  18
ENDBRANCH  14  17
TORSDOF 3
