REMARK  Name = ZINC15423926
REMARK  5 active torsions:
REMARK  status: ('A' for Active; 'I' for Inactive)
REMARK    1  A    between atoms: C_1  and  C_2
REMARK    2  A    between atoms: C_2  and  C_3
REMARK    3  A    between atoms: C_3  and  C_4
REMARK    4  A    between atoms: C_10  and  C_12
REMARK    5  A    between atoms: C_17  and  N_18
REMARK                            x       y       z     vdW  Elec       q    Type
REMARK                         _______ _______ _______ _____ _____    ______ ____
ROOT
ATOM      1  C   UNL     1       6.226   1.342  -0.234  0.00  0.00    +0.156 A 
ATOM      2  N   UNL     1       6.740   0.149  -0.341  0.00  0.00    -0.132 NA
ATOM      3  N   UNL     1       5.803  -0.732  -0.391  0.00  0.00    -0.120 NA
ATOM      4  C   UNL     1       4.650  -0.140  -0.318  0.00  0.00    +0.218 A 
ATOM      5  N   UNL     1       4.852   1.215  -0.214  0.00  0.00    -0.190 N 
ATOM      6  N   UNL     1       3.715   2.007  -0.132  0.00  0.00    -0.155 NA
ATOM      7  C   UNL     1       2.518   1.478  -0.143  0.00  0.00    +0.134 A 
ATOM      8  S   UNL     1       2.879  -0.265  -0.290  0.00  0.00    -0.026 S 
ENDROOT
BRANCH   7   9
ATOM      9  C   UNL     1       1.204   2.150  -0.061  0.00  0.00    +0.032 A 
ATOM     10  C   UNL     1       1.126   3.543  -0.083  0.00  0.00    +0.032 A 
ATOM     11  C   UNL     1      -0.103   4.166  -0.006  0.00  0.00    +0.043 A 
ATOM     12  C   UNL     1      -1.262   3.414   0.095  0.00  0.00    +0.042 A 
ATOM     13  C   UNL     1      -1.200   2.033   0.112  0.00  0.00    +0.064 A 
ATOM     14  C   UNL     1       0.030   1.392   0.041  0.00  0.00    +0.053 A 
ATOM     15 CL   UNL     1      -2.659   1.100   0.231  0.00  0.00    -0.082 Cl
ATOM     16 CL   UNL     1      -0.197   5.899  -0.034  0.00  0.00    -0.083 Cl
BRANCH  14  17
ATOM     17  N   UNL     1       0.096  -0.001   0.065  0.00  0.00    -0.356 N 
ATOM     18  H   UNL     1       0.886  -0.443   0.412  0.00  0.00    +0.142 HD
ATOM     19  H   UNL     1      -0.648  -0.527  -0.267  0.00  0.00    +0.142 HD
ENDBRANCH  14  17
ENDBRANCH   7   9
BRANCH   1  20
ATOM     20  C   UNL     1       6.996   2.635  -0.148  0.00  0.00    +0.078 C 
BRANCH  20  22
ATOM     21  C   UNL     1       8.009   4.498  -1.468  0.00  0.00    +0.004 C 
ATOM     22  C   UNL     1       7.226   3.187  -1.556  0.00  0.00    +0.004 C 
ENDBRANCH  20  22
ENDBRANCH   1  20
TORSDOF 4
