REMARK  Name = ZINC44658223
REMARK  7 active torsions:
REMARK  status: ('A' for Active; 'I' for Inactive)
REMARK    1  A    between atoms: C_1  and  C_2
REMARK    2  A    between atoms: C_4  and  C_28
REMARK    3  A    between atoms: C_8  and  C_12
REMARK    4  A    between atoms: C_12  and  C_14
REMARK    5  A    between atoms: C_12  and  S_15
REMARK    6  A    between atoms: S_15  and  C_16
REMARK    7  A    between atoms: C_20  and  C_22
REMARK                            x       y       z     vdW  Elec       q    Type
REMARK                         _______ _______ _______ _____ _____    ______ ____
ROOT
ATOM      1  C   UNL     1       5.277  -3.531   0.228  0.00  0.00    +0.116 C 
ATOM      2  C   UNL     1       6.512  -2.629   0.237  0.00  0.00    +0.027 C 
ENDROOT
BRANCH   1   9
ATOM      3  C   UNL     1      -0.019   1.526   0.010  0.00  0.00    +0.024 C 
ATOM      4  C   UNL     1       0.002  -0.004   0.002  0.00  0.00    +0.076 C 
ATOM      5  C   UNL     1       0.769  -0.528  -1.190  0.00  0.00    -0.045 C 
ATOM      6  C   UNL     1       1.868  -1.261  -0.953  0.00  0.00    +0.071 C 
ATOM      7  C   UNL     1       2.243  -1.498   0.457  0.00  0.00    +0.111 C 
ATOM      8  N   UNL     1       3.306  -2.207   0.754  0.00  0.00    -0.226 NA
ATOM      9  C   UNL     1       4.072  -2.729  -0.191  0.00  0.00    +0.137 C 
ATOM     10  N   UNL     1       3.837  -2.585  -1.473  0.00  0.00    -0.160 NA
ATOM     11  C   UNL     1       2.796  -1.891  -1.945  0.00  0.00    +0.271 C 
ATOM     12  O   UNL     1       2.607  -1.777  -3.144  0.00  0.00    -0.268 OA
ATOM     13  S   UNL     1       0.997  -0.657   1.404  0.00  0.00    -0.098 S 
ATOM     14  C   UNL     1       0.315  -0.239  -2.598  0.00  0.00    +0.041 C 
ENDBRANCH   1   9
BRANCH   1  15
ATOM     15  S   UNL     1       5.006  -4.204   1.891  0.00  0.00    -0.076 S 
BRANCH  15  16
ATOM     16  C   UNL     1       6.416  -5.223   2.173  0.00  0.00    +0.185 A 
ATOM     17  N   UNL     1       6.662  -5.946   3.288  0.00  0.00    -0.253 N 
ATOM     18  H   UNL     1       6.103  -6.002   4.079  0.00  0.00    +0.191 HD
ATOM     19  N   UNL     1       7.887  -6.599   3.079  0.00  0.00    -0.151 NA
ATOM     20  C   UNL     1       8.308  -6.249   1.882  0.00  0.00    +0.189 A 
ATOM     21  N   UNL     1       7.409  -5.416   1.333  0.00  0.00    -0.200 NA
BRANCH  20  22
ATOM     22  C   UNL     1       9.562  -6.702   1.245  0.00  0.00    +0.058 A 
ATOM     23  C   UNL     1      10.519  -7.552   1.731  0.00  0.00    +0.019 A 
ATOM     24  C   UNL     1      11.617  -7.831   0.947  0.00  0.00    +0.008 A 
ATOM     25  C   UNL     1      11.717  -7.258  -0.280  0.00  0.00    +0.046 A 
ATOM     26  S   UNL     1      10.221  -6.288  -0.363  0.00  0.00    -0.093 S 
ENDBRANCH  20  22
ENDBRANCH  15  16
ENDBRANCH   1  15
TORSDOF 4
