REMARK  Name = ZINC65464072
REMARK  9 active torsions:
REMARK  status: ('A' for Active; 'I' for Inactive)
REMARK    1  A    between atoms: C_1  and  C_2
REMARK    2  A    between atoms: C_4  and  C_13
REMARK    3  A    between atoms: C_6  and  S_9
REMARK    4  A    between atoms: C_7  and  C_8
REMARK    5  A    between atoms: S_9  and  N_12
REMARK    6  A    between atoms: N_15  and  C_16
REMARK    7  A    between atoms: C_16  and  C_17
REMARK    8  A    between atoms: C_17  and  C_21
REMARK    9  A    between atoms: C_21  and  O_22
REMARK                            x       y       z     vdW  Elec       q    Type
REMARK                         _______ _______ _______ _____ _____    ______ ____
ROOT
ATOM      1  C   UNL     1       0.848   3.119  -1.327  0.00  0.00    +0.044 C 
ATOM      2  C   UNL     1       0.892   1.674  -0.899  0.00  0.00    -0.045 A 
ATOM      3  C   UNL     1       0.725   0.674  -1.835  0.00  0.00    +0.016 A 
ATOM      4  C   UNL     1       0.767  -0.663  -1.438  0.00  0.00    +0.039 A 
ATOM      5  C   UNL     1       0.978  -0.979  -0.094  0.00  0.00    +0.041 A 
ATOM      6  C   UNL     1       1.143   0.030   0.831  0.00  0.00    +0.109 A 
ATOM      7  C   UNL     1       1.106   1.354   0.429  0.00  0.00    -0.021 A 
ATOM      8  C   UNL     1       1.293   2.452   1.445  0.00  0.00    +0.046 C 
ENDROOT
BRANCH   4   9
ATOM      9  C   UNL     1       0.588  -1.740  -2.435  0.00  0.00    +0.244 C 
ATOM     10  O   UNL     1       0.625  -2.904  -2.086  0.00  0.00    -0.270 OA
ATOM     11  N   UNL     1       0.384  -1.431  -3.731  0.00  0.00    -0.311 N 
ATOM     12  H   UNL     1       0.355  -0.503  -4.009  0.00  0.00    +0.149 HD
BRANCH  11  13
ATOM     13  C   UNL     1       0.207  -2.498  -4.719  0.00  0.00    +0.113 C 
BRANCH  13  14
ATOM     14  C   UNL     1      -0.129  -1.884  -6.079  0.00  0.00    +0.009 C 
ATOM     15  C   UNL     1       0.085  -2.845  -7.259  0.00  0.00    +0.011 C 
ATOM     16  C   UNL     1       0.653  -1.644  -8.034  0.00  0.00    +0.001 C 
ATOM     17  C   UNL     1       1.009  -1.033  -6.668  0.00  0.00    +0.011 C 
BRANCH  14  18
ATOM     18  C   UNL     1      -1.489  -1.184  -6.095  0.00  0.00    +0.164 C 
BRANCH  18  19
ATOM     19  O   UNL     1      -2.523  -2.147  -5.879  0.00  0.00    -0.394 OA
ATOM     20  H   UNL     1      -3.415  -1.772  -5.876  0.00  0.00    +0.209 HD
ENDBRANCH  18  19
ENDBRANCH  14  18
ENDBRANCH  13  14
ENDBRANCH  11  13
ENDBRANCH   4   9
BRANCH   6  21
ATOM     21  S   UNL     1       1.409  -0.366   2.527  0.00  0.00    +0.056 S 
ATOM     22  O   UNL     1       0.504   0.432   3.277  0.00  0.00    -0.153 OA
ATOM     23  O   UNL     1       1.427  -1.785   2.614  0.00  0.00    -0.153 OA
BRANCH  21  24
ATOM     24  N   UNL     1       2.933   0.151   2.918  0.00  0.00    -0.204 NA
ATOM     25  H   UNL     1       3.486   0.582   2.247  0.00  0.00    +0.144 HD
ATOM     26  H   UNL     1       3.273   0.023   3.817  0.00  0.00    +0.144 HD
ENDBRANCH  21  24
ENDBRANCH   6  21
TORSDOF 7
