REMARK  Name = ZINC31040349
REMARK  6 active torsions:
REMARK  status: ('A' for Active; 'I' for Inactive)
REMARK    1  A    between atoms: C_4  and  C_7
REMARK    2  A    between atoms: C_7  and  C_8
REMARK    3  A    between atoms: C_8  and  C_10
REMARK    4  A    between atoms: C_8  and  N_20
REMARK    5  A    between atoms: C_21  and  C_23
REMARK    6  A    between atoms: C_23  and  N_24
REMARK                            x       y       z     vdW  Elec       q    Type
REMARK                         _______ _______ _______ _____ _____    ______ ____
ROOT
ATOM      1  N   UNL     1      -2.224   5.893   3.802  0.00  0.00    -0.304 N 
ATOM      2  C   UNL     1      -1.542   5.291   2.807  0.00  0.00    +0.232 C 
ATOM      3  O   UNL     1      -1.893   4.203   2.404  0.00  0.00    -0.274 OA
ATOM      4  H   UNL     1      -1.906   6.880   4.168  0.00  0.00    +0.149 HD
ENDROOT
BRANCH   1   5
ATOM      5  C   UNL     1      -3.389   5.231   4.396  0.00  0.00    +0.143 C 
BRANCH   5   6
ATOM      6  C   UNL     1      -4.306   6.269   4.991  0.00  0.00    +0.129 A 
ATOM      7  N   UNL     1      -4.130   7.614   4.892  0.00  0.00    -0.340 N 
ATOM      8  H   UNL     1      -3.264   8.016   4.345  0.00  0.00    +0.167 HD
ATOM      9  C   UNL     1      -5.175   8.215   5.564  0.00  0.00    +0.066 A 
ATOM     10  C   UNL     1      -5.537   9.533   5.808  0.00  0.00    +0.028 A 
ATOM     11  C   UNL     1      -6.675   9.806   6.536  0.00  0.00    +0.002 A 
ATOM     12  C   UNL     1      -7.460   8.771   7.026  0.00  0.00    +0.002 A 
ATOM     13  C   UNL     1      -7.120   7.469   6.796  0.00  0.00    +0.030 A 
ATOM     14  C   UNL     1      -5.970   7.169   6.061  0.00  0.00    +0.089 A 
ATOM     15  N   UNL     1      -5.385   6.008   5.670  0.00  0.00    -0.231 NA
ENDBRANCH   5   6
BRANCH   5  16
ATOM     16  C   UNL     1      -2.925   4.270   5.493  0.00  0.00    +0.065 C 
BRANCH  16  20
ATOM     17  C   UNL     1      -0.610   1.132   3.751  0.00  0.00    +0.000 A 
ATOM     18  C   UNL     1       0.010   2.290   4.182  0.00  0.00    +0.000 A 
ATOM     19  C   UNL     1      -0.740   3.305   4.746  0.00  0.00    +0.004 A 
ATOM     20  C   UNL     1      -2.108   3.163   4.878  0.00  0.00    -0.045 A 
ATOM     21  C   UNL     1      -2.727   2.003   4.451  0.00  0.00    +0.004 A 
ATOM     22  C   UNL     1      -1.978   0.989   3.883  0.00  0.00    +0.000 A 
ENDBRANCH  16  20
ENDBRANCH   5  16
ENDBRANCH   1   5
BRANCH   2  23
ATOM     23  C   UNL     1      -0.344   5.972   2.196  0.00  0.00    +0.213 C 
BRANCH  23  24
ATOM     24  N   UNL     1       0.217   5.120   1.144  0.00  0.00    -0.215 N 
ATOM     25  C   UNL     1       1.171   4.187   1.351  0.00  0.00    +0.251 C 
ATOM     26  O   UNL     1       1.708   3.903   2.401  0.00  0.00    -0.272 OA
ATOM     27  C   UNL     1       1.427   3.575  -0.001  0.00  0.00    +0.138 C 
ATOM     28  C   UNL     1       2.889   3.756  -0.427  0.00  0.00    +0.045 C 
ATOM     29  C   UNL     1       3.521   2.410  -0.005  0.00  0.00    +0.038 C 
ATOM     30  C   UNL     1       2.378   1.416  -0.009  0.00  0.00    -0.042 A 
ATOM     31  C   UNL     1       1.169   2.092   0.002  0.00  0.00    -0.012 A 
ATOM     32  C   UNL     1      -0.017   1.377   0.010  0.00  0.00    +0.006 A 
ATOM     33  C   UNL     1       0.002  -0.004   0.002  0.00  0.00    +0.000 A 
ATOM     34  C   UNL     1       1.209  -0.678  -0.013  0.00  0.00    +0.000 A 
ATOM     35  C   UNL     1       2.393   0.032  -0.018  0.00  0.00    +0.004 A 
ATOM     36  N   UNL     1       0.517   4.282  -0.904  0.00  0.00    -0.281 N 
ATOM     37  C   UNL     1      -0.152   5.171  -0.142  0.00  0.00    +0.310 C 
ATOM     38  O   UNL     1      -0.995   5.932  -0.575  0.00  0.00    -0.252 OA
ATOM     39  H   UNL     1       0.496   4.027  -1.974  0.00  0.00    +0.152 HD
ENDBRANCH  23  24
ENDBRANCH   2  23
TORSDOF 6
