REMARK  Name = ZINC04904950
REMARK  9 active torsions:
REMARK  status: ('A' for Active; 'I' for Inactive)
REMARK    1  A    between atoms: C_1  and  C_2
REMARK    2  A    between atoms: C_2  and  C_3
REMARK    3  A    between atoms: C_7  and  C_27
REMARK    4  A    between atoms: C_8  and  N_9
REMARK    5  A    between atoms: N_11  and  C_12
REMARK    6  A    between atoms: C_12  and  C_13
REMARK    7  A    between atoms: C_13  and  C_14
REMARK    8  A    between atoms: C_15  and  C_25
REMARK    9  A    between atoms: C_27  and  C_28
REMARK                            x       y       z     vdW  Elec       q    Type
REMARK                         _______ _______ _______ _____ _____    ______ ____
ROOT
ATOM      1  N   UNL     1      -3.200  -2.028  -2.623  0.00  0.00    -0.295 N 
ATOM      2  C   UNL     1      -3.026  -1.488  -3.868  0.00  0.00    +0.143 C 
ATOM      3  N   UNL     1      -4.009  -1.608  -4.809  0.00  0.00    -0.367 N 
ATOM      4  S   UNL     1      -1.619  -0.686  -4.235  0.00  0.00    -0.016 SA
ATOM      5  H   UNL     1      -4.831  -2.076  -4.594  0.00  0.00    +0.161 HD
ATOM      6  H   UNL     1      -4.041  -2.454  -2.392  0.00  0.00    +0.154 HD
ENDROOT
BRANCH   1  12
ATOM      7  C   UNL     1      -1.985  -0.819  -0.922  0.00  0.00    -0.026 A 
ATOM      8  C   UNL     1      -0.966  -0.764   0.009  0.00  0.00    +0.005 A 
ATOM      9  C   UNL     1      -0.125  -1.848   0.181  0.00  0.00    +0.001 A 
ATOM     10  C   UNL     1      -0.300  -2.990  -0.578  0.00  0.00    +0.005 A 
ATOM     11  C   UNL     1      -1.316  -3.052  -1.511  0.00  0.00    -0.026 A 
ATOM     12  C   UNL     1      -2.166  -1.967  -1.683  0.00  0.00    +0.039 A 
BRANCH   7  14
ATOM     13  C   UNL     1      -4.157   0.173  -0.256  0.00  0.00    +0.009 C 
ATOM     14  C   UNL     1      -2.901   0.362  -1.109  0.00  0.00    +0.033 C 
ENDBRANCH   7  14
BRANCH  11  15
ATOM     15  C   UNL     1      -1.505  -4.296  -2.340  0.00  0.00    +0.033 C 
ATOM     16  C   UNL     1      -2.667  -5.114  -1.772  0.00  0.00    +0.009 C 
ENDBRANCH  11  15
ENDBRANCH   1  12
BRANCH   3  17
ATOM     17  C   UNL     1      -3.823  -1.029  -6.141  0.00  0.00    +0.119 C 
BRANCH  17  18
ATOM     18  C   UNL     1      -5.063  -1.303  -6.995  0.00  0.00    +0.058 C 
BRANCH  18  19
ATOM     19  C   UNL     1      -4.870  -0.708  -8.366  0.00  0.00    -0.018 A 
ATOM     20  C   UNL     1      -5.202   0.535  -8.750  0.00  0.00    +0.017 A 
ATOM     21  N   UNL     1      -4.878   0.718 -10.067  0.00  0.00    -0.358 N 
ATOM     22  H   UNL     1      -5.023   1.536 -10.568  0.00  0.00    +0.166 HD
ATOM     23  C   UNL     1      -4.315  -0.433 -10.575  0.00  0.00    +0.047 A 
ATOM     24  C   UNL     1      -4.281  -1.374  -9.530  0.00  0.00    +0.006 A 
ATOM     25  C   UNL     1      -3.751  -2.646  -9.754  0.00  0.00    +0.048 A 
ATOM     26  C   UNL     1      -3.261  -2.970 -11.001  0.00  0.00    +0.124 A 
ATOM     27  C   UNL     1      -3.292  -2.038 -12.031  0.00  0.00    +0.040 A 
ATOM     28  C   UNL     1      -3.819  -0.782 -11.826  0.00  0.00    +0.029 A 
ATOM     29  F   UNL     1      -2.748  -4.200 -11.222  0.00  0.00    -0.205 F 
ATOM     30  C   UNL     1      -5.838   1.574  -7.863  0.00  0.00    +0.063 C 
ENDBRANCH  18  19
ENDBRANCH  17  18
ENDBRANCH   3  17
TORSDOF 6
