REMARK  Name = ZINC09125524
REMARK  12 active torsions:
REMARK  status: ('A' for Active; 'I' for Inactive)
REMARK    1  A    between atoms: C_1  and  C_2
REMARK    2  A    between atoms: C_2  and  C_3
REMARK    3  A    between atoms: C_3  and  C_25
REMARK    4  A    between atoms: N_6  and  C_10
REMARK    5  A    between atoms: C_10  and  C_11
REMARK    6  A    between atoms: C_11  and  C_13
REMARK    7  A    between atoms: C_15  and  C_24
REMARK    8  A    between atoms: N_16  and  C_19
REMARK    9  A    between atoms: C_17  and  C_18
REMARK   10  A    between atoms: C_19  and  C_20
REMARK   11  A    between atoms: C_28  and  O_31
REMARK   12  A    between atoms: O_31  and  C_32
REMARK                            x       y       z     vdW  Elec       q    Type
REMARK                         _______ _______ _______ _____ _____    ______ ____
ROOT
ATOM      1  C   UNL     1       0.037  -2.202   0.624  0.00  0.00    +0.138 C 
ATOM      2  C   UNL     1       0.023  -0.767   1.113  0.00  0.00    +0.251 C 
ATOM      3  O   UNL     1       0.030  -0.385   2.263  0.00  0.00    -0.272 OA
ATOM      4  N   UNL     1       0.002  -0.004   0.002  0.00  0.00    -0.216 N 
ATOM      5  C   UNL     1      -0.004  -0.750  -1.109  0.00  0.00    +0.310 C 
ATOM      6  O   UNL     1      -0.026  -0.287  -2.233  0.00  0.00    -0.252 OA
ATOM      7  N   UNL     1       0.021  -2.068  -0.843  0.00  0.00    -0.281 N 
ATOM      8  H   UNL     1       0.024  -2.790  -1.491  0.00  0.00    +0.152 HD
ENDROOT
BRANCH   1   9
ATOM      9  C   UNL     1       1.288  -2.906   1.082  0.00  0.00    -0.015 A 
ATOM     10  C   UNL     1       1.298  -3.582   2.288  0.00  0.00    +0.010 A 
ATOM     11  C   UNL     1       2.442  -4.232   2.707  0.00  0.00    +0.046 A 
ATOM     12  C   UNL     1       3.586  -4.198   1.922  0.00  0.00    +0.120 A 
ATOM     13  C   UNL     1       3.575  -3.514   0.715  0.00  0.00    +0.046 A 
ATOM     14  C   UNL     1       2.427  -2.870   0.298  0.00  0.00    +0.010 A 
BRANCH  12  15
ATOM     15  O   UNL     1       4.714  -4.833   2.335  0.00  0.00    -0.495 OA
ATOM     16  C   UNL     1       4.652  -5.517   3.588  0.00  0.00    +0.277 C 
ENDBRANCH  12  15
ENDBRANCH   1   9
BRANCH   1  18
ATOM     17  C   UNL     1      -2.455  -2.319   0.488  0.00  0.00    +0.007 C 
ATOM     18  C   UNL     1      -1.207  -2.948   1.110  0.00  0.00    +0.037 C 
ENDBRANCH   1  18
BRANCH   4  19
ATOM     19  C   UNL     1      -0.018   1.461   0.010  0.00  0.00    +0.197 C 
BRANCH  19  20
ATOM     20  C   UNL     1       1.396   1.982  -0.001  0.00  0.00    +0.183 C 
ATOM     21  O   UNL     1       2.329   1.206  -0.014  0.00  0.00    -0.290 OA
BRANCH  20  22
ATOM     22  C   UNL     1       1.644   3.426   0.005  0.00  0.00    +0.040 A 
ATOM     23  C   UNL     1       0.639   4.497   0.021  0.00  0.00    +0.034 A 
ATOM     24  C   UNL     1       1.320   5.655   0.020  0.00  0.00    +0.017 A 
ATOM     25  N   UNL     1       2.658   5.388   0.005  0.00  0.00    -0.339 N 
ATOM     26  C   UNL     1       2.872   4.060   0.002  0.00  0.00    +0.027 A 
ATOM     27  C   UNL     1       4.218   3.381  -0.007  0.00  0.00    +0.064 C 
ATOM     28  C   UNL     1       0.704   7.030   0.034  0.00  0.00    +0.063 C 
BRANCH  25  29
ATOM     29  C   UNL     1       3.713   6.404   0.001  0.00  0.00    +0.234 C 
BRANCH  29  30
ATOM     30  C   UNL     1       4.094   6.750   1.442  0.00  0.00    +0.407 C 
ATOM     31  F   UNL     1       4.557   5.600   2.090  0.00  0.00    -0.169 F 
ATOM     32  F   UNL     1       5.102   7.721   1.437  0.00  0.00    -0.169 F 
ATOM     33  F   UNL     1       2.973   7.245   2.115  0.00  0.00    -0.169 F 
ENDBRANCH  29  30
ENDBRANCH  25  29
ENDBRANCH  20  22
ENDBRANCH  19  20
ENDBRANCH   4  19
TORSDOF 8
