REMARK  Name = ZINC60127497
REMARK  7 active torsions:
REMARK  status: ('A' for Active; 'I' for Inactive)
REMARK    1  A    between atoms: C_1  and  C_2
REMARK    2  A    between atoms: C_2  and  N_3
REMARK    3  A    between atoms: N_3  and  C_4
REMARK    4  A    between atoms: C_4  and  C_5
REMARK    5  A    between atoms: N_18  and  C_19
REMARK    6  A    between atoms: C_19  and  C_20
REMARK    7  A    between atoms: N_24  and  C_26
REMARK                            x       y       z     vdW  Elec       q    Type
REMARK                         _______ _______ _______ _____ _____    ______ ____
ROOT
ATOM      1  N   UNL     1       0.711  -0.489   1.189  0.00  0.00    -0.282 N 
ATOM      2  C   UNL     1       2.042  -0.696   1.142  0.00  0.00    +0.302 C 
ATOM      3  O   UNL     1       2.630  -1.099   2.127  0.00  0.00    -0.253 OA
ATOM      4  N   UNL     1       2.721  -0.456   0.003  0.00  0.00    -0.299 N 
ATOM      5  H   UNL     1       2.252  -0.134  -0.783  0.00  0.00    +0.150 HD
ENDROOT
BRANCH   1   7
ATOM      6  C   UNL     1      -0.019   1.526   0.010  0.00  0.00    +0.024 C 
ATOM      7  C   UNL     1       0.002  -0.004   0.002  0.00  0.00    +0.106 C 
ENDBRANCH   1   7
BRANCH   1   8
ATOM      8  C   UNL     1      -0.028  -0.750   2.427  0.00  0.00    +0.157 C 
BRANCH   8   9
ATOM      9  C   UNL     1      -0.511  -2.202   2.437  0.00  0.00    +0.228 C 
ATOM     10  C   UNL     1      -1.378  -2.451   3.678  0.00  0.00    +0.275 C 
ATOM     11  O   UNL     1      -1.800  -3.819   3.663  0.00  0.00    -0.485 OA
ATOM     12  C   UNL     1      -0.845  -4.751   3.393  0.00  0.00    +0.162 A 
ATOM     13  C   UNL     1      -1.082  -6.080   3.711  0.00  0.00    +0.049 A 
ATOM     14  C   UNL     1      -0.124  -7.038   3.439  0.00  0.00    +0.004 A 
ATOM     15  C   UNL     1       1.073  -6.675   2.849  0.00  0.00    +0.004 A 
ATOM     16  C   UNL     1       1.315  -5.352   2.531  0.00  0.00    +0.049 A 
ATOM     17  C   UNL     1       0.359  -4.385   2.803  0.00  0.00    +0.163 A 
ATOM     18  O   UNL     1       0.615  -3.085   2.490  0.00  0.00    -0.480 OA
ENDBRANCH   8   9
ENDBRANCH   1   8
BRANCH   4  19
ATOM     19  C   UNL     1       4.168  -0.680  -0.049  0.00  0.00    +0.110 C 
BRANCH  19  20
ATOM     20  C   UNL     1       4.688  -0.334  -1.445  0.00  0.00    +0.025 C 
ATOM     21  C   UNL     1       4.196  -1.366  -2.494  0.00  0.00    +0.025 C 
ATOM     22  C   UNL     1       5.287  -1.298  -3.584  0.00  0.00    +0.105 C 
ATOM     23  N   UNL     1       6.501  -0.759  -2.954  0.00  0.00    -0.329 N 
ATOM     24  C   UNL     1       6.225  -0.515  -1.526  0.00  0.00    +0.110 C 
BRANCH  23  25
ATOM     25  C   UNL     1       7.717  -0.519  -3.600  0.00  0.00    +0.033 A 
ATOM     26  C   UNL     1       8.796  -0.012  -2.888  0.00  0.00    +0.026 A 
ATOM     27  C   UNL     1       9.996   0.225  -3.528  0.00  0.00    +0.043 A 
ATOM     28  C   UNL     1      10.126  -0.042  -4.880  0.00  0.00    +0.159 A 
ATOM     29  C   UNL     1       9.051  -0.548  -5.595  0.00  0.00    +0.160 A 
ATOM     30  C   UNL     1       7.849  -0.793  -4.955  0.00  0.00    +0.064 A 
ATOM     31  F   UNL     1       9.180  -0.808  -6.914  0.00  0.00    -0.202 F 
ATOM     32  F   UNL     1      11.302   0.191  -5.503  0.00  0.00    -0.202 F 
ENDBRANCH  23  25
ENDBRANCH  19  20
ENDBRANCH   4  19
TORSDOF 6
