REMARK  Name = ZINC03040175
REMARK  6 active torsions:
REMARK  status: ('A' for Active; 'I' for Inactive)
REMARK    1  A    between atoms: C_1  and  C_2
REMARK    2  A    between atoms: C_5  and  C_8
REMARK    3  A    between atoms: C_8  and  N_9
REMARK    4  A    between atoms: C_12  and  C_25
REMARK    5  A    between atoms: N_27  and  C_28
REMARK    6  A    between atoms: C_28  and  C_29
REMARK                            x       y       z     vdW  Elec       q    Type
REMARK                         _______ _______ _______ _____ _____    ______ ____
ROOT
ATOM      1  N   UNL     1      -0.760   6.151  -0.662  0.00  0.00    -0.262 N 
ATOM      2  C   UNL     1      -1.649   5.905  -1.700  0.00  0.00    +0.051 A 
ATOM      3  C   UNL     1      -1.503   6.621  -2.880  0.00  0.00    +0.037 A 
ATOM      4  C   UNL     1      -2.377   6.407  -3.947  0.00  0.00    +0.039 A 
ATOM      5  C   UNL     1      -3.406   5.469  -3.829  0.00  0.00    +0.014 A 
ATOM      6  C   UNL     1      -3.549   4.758  -2.659  0.00  0.00    +0.017 A 
ATOM      7  C   UNL     1      -2.677   4.970  -1.595  0.00  0.00    +0.034 A 
ATOM      8  S   UNL     1      -2.884   4.039  -0.113  0.00  0.00    -0.087 S 
ATOM      9  C   UNL     1      -1.365   3.160   0.043  0.00  0.00    +0.025 A 
ATOM     10  C   UNL     1      -1.368   1.772   0.061  0.00  0.00    +0.016 A 
ATOM     11  C   UNL     1      -0.181   1.080   0.195  0.00  0.00    +0.001 A 
ATOM     12  C   UNL     1       1.017   1.767   0.300  0.00  0.00    +0.001 A 
ATOM     13  C   UNL     1       1.037   3.144   0.276  0.00  0.00    +0.014 A 
ATOM     14  C   UNL     1      -0.158   3.864   0.145  0.00  0.00    +0.051 A 
ATOM     15  C   UNL     1      -0.115   5.325   0.118  0.00  0.00    +0.252 C 
ATOM     16  O   UNL     1       0.624   5.843   0.933  0.00  0.00    -0.270 OA
ENDROOT
BRANCH   4  17
ATOM     17  C   UNL     1      -2.216   7.172  -5.198  0.00  0.00    +0.244 C 
ATOM     18  O   UNL     1      -1.320   7.989  -5.300  0.00  0.00    -0.270 OA
ATOM     19  N   UNL     1      -3.060   6.966  -6.228  0.00  0.00    -0.309 N 
ATOM     20  H   UNL     1      -3.775   6.315  -6.146  0.00  0.00    +0.149 HD
BRANCH  19  21
ATOM     21  C   UNL     1      -2.900   7.726  -7.470  0.00  0.00    +0.136 C 
BRANCH  21  22
ATOM     22  C   UNL     1      -3.979   7.304  -8.469  0.00  0.00    +0.135 C 
ATOM     23  C   UNL     1      -3.820   8.098  -9.780  0.00  0.00    +0.035 C 
ATOM     24  C   UNL     1      -3.619   7.008 -10.861  0.00  0.00    +0.031 C 
ATOM     25  C   UNL     1      -4.217   5.754 -10.173  0.00  0.00    +0.160 C 
ATOM     26  O   UNL     1      -3.829   5.911  -8.791  0.00  0.00    -0.375 OA
ENDBRANCH  21  22
ENDBRANCH  19  21
ENDBRANCH   4  17
BRANCH   1  27
ATOM     27  C   UNL     1      -0.503   7.569  -0.398  0.00  0.00    +0.149 C 
BRANCH  27  32
ATOM     28  C   UNL     1      -4.228   9.495   3.579  0.00  0.00    +0.044 C 
ATOM     29  C   UNL     1      -3.256   8.993   2.542  0.00  0.00    -0.050 A 
ATOM     30  C   UNL     1      -2.003   8.553   2.924  0.00  0.00    +0.003 A 
ATOM     31  C   UNL     1      -1.112   8.093   1.973  0.00  0.00    +0.005 A 
ATOM     32  C   UNL     1      -1.474   8.071   0.639  0.00  0.00    -0.030 A 
ATOM     33  C   UNL     1      -2.726   8.515   0.256  0.00  0.00    +0.005 A 
ATOM     34  C   UNL     1      -3.619   8.972   1.208  0.00  0.00    +0.003 A 
ENDBRANCH  27  32
ENDBRANCH   1  27
TORSDOF 5
