REMARK  Name = ZINC36638204
REMARK  11 active torsions:
REMARK  status: ('A' for Active; 'I' for Inactive)
REMARK    1  A    between atoms: C_1  and  C_2
REMARK    2  A    between atoms: C_2  and  N_3
REMARK    3  A    between atoms: N_3  and  C_4
REMARK    4  A    between atoms: N_3  and  C_6
REMARK    5  A    between atoms: C_4  and  C_5
REMARK    6  A    between atoms: C_6  and  C_7
REMARK    7  A    between atoms: C_7  and  N_8
REMARK    8  A    between atoms: C_12  and  C_19
REMARK    9  A    between atoms: C_13  and  C_18
REMARK   10  A    between atoms: C_20  and  C_22
REMARK   11  A    between atoms: C_24  and  C_32
REMARK                            x       y       z     vdW  Elec       q    Type
REMARK                         _______ _______ _______ _____ _____    ______ ____
ROOT
ATOM      1  N   UNL     1      -2.655  -4.038   0.357  0.00  0.00    -0.248 N 
ATOM      2  C   UNL     1      -2.676  -4.660   1.593  0.00  0.00    +0.168 A 
ATOM      3  N   UNL     1      -2.691  -5.944   1.868  0.00  0.00    -0.224 NA
ATOM      4  C   UNL     1      -2.710  -6.415   3.134  0.00  0.00    +0.083 A 
ATOM      5  C   UNL     1      -2.729  -7.762   3.564  0.00  0.00    -0.021 A 
ATOM      6  C   UNL     1      -2.748  -8.070   4.899  0.00  0.00    -0.045 A 
ATOM      7  C   UNL     1      -2.750  -7.080   5.872  0.00  0.00    +0.005 A 
ATOM      8  C   UNL     1      -2.731  -5.752   5.487  0.00  0.00    +0.017 A 
ATOM      9  C   UNL     1      -2.712  -5.434   4.152  0.00  0.00    +0.041 A 
ATOM     10  S   UNL     1      -2.679  -3.922   3.221  0.00  0.00    -0.052 S 
ATOM     11  C   UNL     1      -2.768  -9.517   5.321  0.00  0.00    +0.044 C 
ATOM     12  C   UNL     1      -2.728  -8.870   2.544  0.00  0.00    +0.046 C 
ATOM     13  C   UNL     1      -2.655  -4.777  -0.770  0.00  0.00    +0.253 C 
ATOM     14  O   UNL     1      -2.763  -5.986  -0.704  0.00  0.00    -0.270 OA
ENDROOT
BRANCH  13  15
ATOM     15  C   UNL     1      -2.524  -4.117  -2.087  0.00  0.00    +0.048 A 
ATOM     16  C   UNL     1      -3.417  -3.137  -2.494  0.00  0.00    +0.042 A 
ATOM     17  C   UNL     1      -3.254  -2.536  -3.754  0.00  0.00    +0.079 A 
ATOM     18  N   UNL     1      -2.276  -2.873  -4.572  0.00  0.00    -0.246 NA
ATOM     19  C   UNL     1      -1.374  -3.805  -4.260  0.00  0.00    +0.072 A 
ATOM     20  C   UNL     1      -1.444  -4.469  -3.009  0.00  0.00    +0.013 A 
ATOM     21  C   UNL     1      -0.493  -5.441  -2.684  0.00  0.00    +0.011 A 
ATOM     22  C   UNL     1       0.498  -5.739  -3.573  0.00  0.00    +0.001 A 
ATOM     23  C   UNL     1       0.575  -5.086  -4.801  0.00  0.00    +0.002 A 
ATOM     24  C   UNL     1      -0.341  -4.143  -5.154  0.00  0.00    +0.028 A 
BRANCH  17  25
ATOM     25  C   UNL     1      -4.210  -1.495  -4.176  0.00  0.00    +0.038 A 
ATOM     26  C   UNL     1      -4.308  -0.850  -5.382  0.00  0.00    +0.017 A 
ATOM     27  C   UNL     1      -5.292   0.097  -5.547  0.00  0.00    +0.008 A 
ATOM     28  C   UNL     1      -6.134   0.365  -4.513  0.00  0.00    +0.046 A 
ATOM     29  S   UNL     1      -5.545  -0.752  -3.252  0.00  0.00    -0.095 S 
ENDBRANCH  17  25
ENDBRANCH  13  15
BRANCH   1  30
ATOM     30  C   UNL     1      -2.633  -2.575   0.274  0.00  0.00    +0.097 C 
BRANCH  30  31
ATOM     31  C   UNL     1      -1.189  -2.095   0.117  0.00  0.00    -0.059 C 
BRANCH  31  32
ATOM     32  N   UNL     1      -1.176  -0.641  -0.093  0.00  0.00    +0.380 N 
ATOM     33  H   UNL     1      -1.755  -0.411  -0.887  0.00  0.00    -0.082 HD
BRANCH  32  35
ATOM     34  C   UNL     1      -1.802   1.535   0.841  0.00  0.00    -0.017 C 
ATOM     35  C   UNL     1      -1.698   0.031   1.105  0.00  0.00    -0.082 C 
ENDBRANCH  32  35
BRANCH  32  36
ATOM     36  C   UNL     1       0.200  -0.195  -0.345  0.00  0.00    -0.082 C 
ATOM     37  C   UNL     1       0.699  -0.796  -1.661  0.00  0.00    -0.017 C 
ENDBRANCH  32  36
ENDBRANCH  31  32
ENDBRANCH  30  31
ENDBRANCH   1  30
TORSDOF 7
