REMARK  Name = ZINC20059223
REMARK  10 active torsions:
REMARK  status: ('A' for Active; 'I' for Inactive)
REMARK    1  A    between atoms: C_1  and  N_2
REMARK    2  A    between atoms: C_10  and  O_34
REMARK    3  A    between atoms: C_12  and  C_15
REMARK    4  A    between atoms: C_18  and  O_23
REMARK    5  A    between atoms: C_19  and  O_21
REMARK    6  A    between atoms: O_21  and  C_22
REMARK    7  A    between atoms: O_23  and  C_24
REMARK    8  A    between atoms: C_24  and  C_26
REMARK    9  A    between atoms: C_29  and  O_32
REMARK   10  A    between atoms: O_32  and  C_33
REMARK                            x       y       z     vdW  Elec       q    Type
REMARK                         _______ _______ _______ _____ _____    ______ ____
ROOT
ATOM      1  C   UNL     1      -3.582  -0.524   0.029  0.00  0.00    -0.002 A 
ATOM      2  C   UNL     1      -3.646  -1.905   0.050  0.00  0.00    +0.011 A 
ATOM      3  C   UNL     1      -2.484  -2.654   0.036  0.00  0.00    +0.050 A 
ATOM      4  C   UNL     1      -1.252  -2.021  -0.004  0.00  0.00    +0.173 A 
ATOM      5  C   UNL     1      -1.188  -0.631  -0.021  0.00  0.00    +0.163 A 
ATOM      6  C   UNL     1      -2.356   0.114  -0.007  0.00  0.00    +0.056 A 
ENDROOT
BRANCH   1  18
ATOM      7  C   UNL     1      -5.685   0.322   8.443  0.00  0.00    -0.096 C 
ATOM      8  N   UNL     1      -5.397   0.399   7.005  0.00  0.00    +0.381 N 
ATOM      9  C   UNL     1      -5.573   1.770   6.505  0.00  0.00    -0.074 C 
ATOM     10  C   UNL     1      -4.920   1.916   5.128  0.00  0.00    +0.018 C 
ATOM     11  C   UNL     1      -5.439   0.795   4.234  0.00  0.00    -0.027 A 
ATOM     12  C   UNL     1      -6.027  -0.293   4.787  0.00  0.00    -0.021 A 
ATOM     13  S   UNL     1      -6.472  -1.318   3.411  0.00  0.00    -0.080 S 
ATOM     14  C   UNL     1      -5.894  -0.325   2.142  0.00  0.00    +0.080 A 
ATOM     15  C   UNL     1      -5.352   0.796   2.786  0.00  0.00    +0.067 A 
ATOM     16  C   UNL     1      -4.749   1.848   1.928  0.00  0.00    +0.220 C 
ATOM     17  N   UNL     1      -4.582   1.579   0.663  0.00  0.00    -0.223 NA
ATOM     18  C   UNL     1      -4.852   0.288   0.044  0.00  0.00    +0.224 C 
ATOM     19  N   UNL     1      -5.892  -0.460   0.775  0.00  0.00    -0.313 N 
ATOM     20  C   UNL     1      -6.239  -0.545   6.246  0.00  0.00    -0.036 C 
ATOM     21  H   UNL     1      -6.611  -1.084   0.223  0.00  0.00    +0.149 HD
ATOM     22  H   UNL     1      -4.344   0.117   6.860  0.00  0.00    -0.082 HD
BRANCH  16  23
ATOM     23  O   UNL     1      -4.384   3.045   2.443  0.00  0.00    -0.492 OA
ATOM     24  H   UNL     1      -3.940   3.811   1.791  0.00  0.00    +0.294 HD
ENDBRANCH  16  23
ENDBRANCH   1  18
BRANCH   5  25
ATOM     25  O   UNL     1       0.019  -0.005  -0.056  0.00  0.00    -0.491 OA
ATOM     26  C   UNL     1       0.008   1.424  -0.077  0.00  0.00    +0.277 C 
ENDBRANCH   5  25
BRANCH   4  27
ATOM     27  O   UNL     1      -0.108  -2.756  -0.023  0.00  0.00    -0.419 OA
BRANCH  27  28
ATOM     28  C   UNL     1       0.536  -2.915   1.150  0.00  0.00    +0.345 C 
ATOM     29  O   UNL     1       0.040  -2.495   2.177  0.00  0.00    -0.245 OA
BRANCH  28  30
ATOM     30  C   UNL     1       1.843  -3.597   1.187  0.00  0.00    +0.060 A 
ATOM     31  C   UNL     1       2.412  -4.085   0.007  0.00  0.00    +0.018 A 
ATOM     32  C   UNL     1       3.635  -4.716   0.045  0.00  0.00    +0.046 A 
ATOM     33  C   UNL     1       4.298  -4.879   1.256  0.00  0.00    +0.120 A 
ATOM     34  C   UNL     1       3.733  -4.400   2.432  0.00  0.00    +0.046 A 
ATOM     35  C   UNL     1       2.513  -3.762   2.402  0.00  0.00    +0.018 A 
BRANCH  33  36
ATOM     36  O   UNL     1       5.501  -5.506   1.290  0.00  0.00    -0.495 OA
ATOM     37  C   UNL     1       6.024  -5.974   0.045  0.00  0.00    +0.277 C 
ENDBRANCH  33  36
ENDBRANCH  28  30
ENDBRANCH  27  28
ENDBRANCH   4  27
TORSDOF 7
