REMARK  Name = ZINC09380249
REMARK  4 active torsions:
REMARK  status: ('A' for Active; 'I' for Inactive)
REMARK    1  A    between atoms: C_4  and  N_7
REMARK    2  A    between atoms: C_8  and  C_10
REMARK    3  A    between atoms: C_12  and  C_35
REMARK    4  A    between atoms: C_35  and  C_37
REMARK                            x       y       z     vdW  Elec       q    Type
REMARK                         _______ _______ _______ _____ _____    ______ ____
ROOT
ATOM      1  C   UNL     1      -2.410   5.165  -0.324  0.00  0.00    +0.172 C 
ATOM      2  C   UNL     1      -3.908   5.322  -0.711  0.00  0.00    +0.114 C 
ATOM      3  C   UNL     1      -4.335   3.920  -1.191  0.00  0.00    +0.108 C 
ATOM      4  C   UNL     1      -4.909   3.963  -2.567  0.00  0.00    -0.008 A 
ATOM      5  C   UNL     1      -4.378   4.366  -3.773  0.00  0.00    +0.006 A 
ATOM      6  C   UNL     1      -5.203   4.273  -4.889  0.00  0.00    +0.000 A 
ATOM      7  C   UNL     1      -6.495   3.798  -4.790  0.00  0.00    +0.002 A 
ATOM      8  C   UNL     1      -7.036   3.391  -3.581  0.00  0.00    +0.023 A 
ATOM      9  C   UNL     1      -6.220   3.479  -2.453  0.00  0.00    +0.038 A 
ATOM     10  N   UNL     1      -6.497   3.147  -1.138  0.00  0.00    -0.284 N 
ATOM     11  C   UNL     1      -5.442   3.374  -0.325  0.00  0.00    +0.231 C 
ATOM     12  O   UNL     1      -5.394   3.177   0.871  0.00  0.00    -0.274 OA
ATOM     13  C   UNL     1      -3.075   3.074  -1.106  0.00  0.00    +0.117 C 
ATOM     14  N   UNL     1      -2.280   3.732  -0.032  0.00  0.00    -0.309 N 
ATOM     15  C   UNL     1      -1.023   3.177   0.004  0.00  0.00    +0.038 A 
ATOM     16  C   UNL     1       0.137   3.917   0.130  0.00  0.00    +0.024 A 
ATOM     17  C   UNL     1       1.363   3.277   0.145  0.00  0.00    +0.002 A 
ATOM     18  C   UNL     1       1.439   1.899   0.033  0.00  0.00    +0.001 A 
ATOM     19  C   UNL     1       0.290   1.143  -0.090  0.00  0.00    +0.010 A 
ATOM     20  C   UNL     1      -0.948   1.772  -0.109  0.00  0.00    -0.004 A 
ATOM     21  C   UNL     1      -2.209   1.000  -0.222  0.00  0.00    +0.007 C 
ATOM     22  C   UNL     1      -3.282   1.641  -0.724  0.00  0.00    -0.003 C 
ATOM     23  H   UNL     1      -7.348   2.793  -0.836  0.00  0.00    +0.155 HD
ENDROOT
BRANCH   1  25
ATOM     24  N   UNL     1      -1.197   6.848  -1.672  0.00  0.00    -0.284 N 
ATOM     25  C   UNL     1      -1.520   5.554  -1.477  0.00  0.00    +0.238 C 
ATOM     26  O   UNL     1      -1.096   4.702  -2.229  0.00  0.00    -0.273 OA
ATOM     27  H   UNL     1      -1.591   7.535  -1.113  0.00  0.00    +0.155 HD
BRANCH  24  31
ATOM     28  C   UNL     1       1.495   7.893  -4.675  0.00  0.00    +0.000 A 
ATOM     29  C   UNL     1       0.621   6.839  -4.868  0.00  0.00    +0.002 A 
ATOM     30  C   UNL     1      -0.272   6.489  -3.874  0.00  0.00    +0.023 A 
ATOM     31  C   UNL     1      -0.293   7.198  -2.680  0.00  0.00    +0.033 A 
ATOM     32  C   UNL     1       0.583   8.260  -2.491  0.00  0.00    +0.023 A 
ATOM     33  C   UNL     1       1.477   8.601  -3.487  0.00  0.00    +0.002 A 
ENDBRANCH  24  31
ENDBRANCH   1  25
BRANCH   2  34
ATOM     34  C   UNL     1      -4.061   6.328  -1.823  0.00  0.00    +0.205 C 
ATOM     35  O   UNL     1      -3.249   6.362  -2.726  0.00  0.00    -0.288 OA
BRANCH  34  36
ATOM     36  C   UNL     1      -5.148   7.231  -1.815  0.00  0.00    +0.170 A 
ATOM     37  C   UNL     1      -5.406   8.202  -2.762  0.00  0.00    +0.053 A 
ATOM     38  C   UNL     1      -6.578   8.853  -2.355  0.00  0.00    +0.042 A 
ATOM     39  C   UNL     1      -6.977   8.275  -1.199  0.00  0.00    +0.196 A 
ATOM     40  O   UNL     1      -6.117   7.301  -0.878  0.00  0.00    -0.460 OA
ENDBRANCH  34  36
ENDBRANCH   2  34
TORSDOF 4
