REMARK  Name = ZINC39635875
REMARK  7 active torsions:
REMARK  status: ('A' for Active; 'I' for Inactive)
REMARK    1  A    between atoms: C_1  and  C_2
REMARK    2  A    between atoms: C_8  and  N_10
REMARK    3  A    between atoms: C_11  and  C_13
REMARK    4  A    between atoms: C_24  and  C_26
REMARK    5  A    between atoms: C_26  and  C_28
REMARK    6  A    between atoms: C_26  and  O_29
REMARK    7  A    between atoms: O_29  and  C_30
REMARK                            x       y       z     vdW  Elec       q    Type
REMARK                         _______ _______ _______ _____ _____    ______ ____
ROOT
ATOM      1  C   UNL     1       0.171   0.712   4.725  0.00  0.00    +0.100 C 
ATOM      2  C   UNL     1      -0.326   2.172   4.619  0.00  0.00    +0.121 C 
ATOM      3  N   UNL     1      -0.128   2.734   5.976  0.00  0.00    -0.297 N 
ATOM      4  C   UNL     1       1.167   2.166   6.425  0.00  0.00    +0.115 C 
ATOM      5  C   UNL     1       1.150   0.713   5.910  0.00  0.00    -0.004 C 
ATOM      6  C   UNL     1       0.656  -0.229   7.004  0.00  0.00    -0.010 C 
ATOM      7  C   UNL     1       1.675  -0.254   8.147  0.00  0.00    -0.082 C 
ATOM      8  N   UNL     1       2.975  -0.705   7.636  0.00  0.00    +0.379 N 
ATOM      9  C   UNL     1       3.486   0.255   6.651  0.00  0.00    -0.082 C 
ATOM     10  C   UNL     1       2.544   0.303   5.445  0.00  0.00    -0.010 C 
ATOM     11  C   UNL     1      -0.940   3.571   6.650  0.00  0.00    +0.256 C 
ATOM     12  O   UNL     1      -2.018   3.875   6.185  0.00  0.00    -0.272 OA
ATOM     13  H   UNL     1       3.628  -0.780   8.402  0.00  0.00    -0.086 HD
ATOM     14  H   UNL     1       2.868  -1.608   7.199  0.00  0.00    -0.086 HD
ENDROOT
BRANCH   1  16
ATOM     15  N   UNL     1       0.878  -0.984   3.069  0.00  0.00    -0.312 N 
ATOM     16  C   UNL     1       0.880   0.306   3.458  0.00  0.00    +0.218 C 
ATOM     17  O   UNL     1       1.451   1.141   2.789  0.00  0.00    -0.275 OA
ATOM     18  H   UNL     1       0.421  -1.651   3.604  0.00  0.00    +0.149 HD
BRANCH  15  25
ATOM     19  C   UNL     1      -0.541  -2.417   0.990  0.00  0.00    +0.009 C 
ATOM     20  C   UNL     1       0.939  -2.662   1.290  0.00  0.00    +0.006 C 
ATOM     21  C   UNL     1       1.071  -3.777   2.329  0.00  0.00    +0.005 C 
ATOM     22  C   UNL     1       2.551  -4.022   2.629  0.00  0.00    +0.000 C 
ATOM     23  C   UNL     1       3.180  -2.739   3.177  0.00  0.00    +0.002 C 
ATOM     24  C   UNL     1       3.048  -1.623   2.138  0.00  0.00    +0.022 C 
ATOM     25  C   UNL     1       1.567  -1.378   1.838  0.00  0.00    +0.076 C 
ENDBRANCH  15  25
ENDBRANCH   1  16
BRANCH  11  26
ATOM     26  C   UNL     1      -0.509   4.130   7.982  0.00  0.00    +0.256 C 
ATOM     27  C   UNL     1       0.693   5.055   7.782  0.00  0.00    +0.062 C 
BRANCH  26  28
ATOM     28  O   UNL     1      -1.587   4.869   8.560  0.00  0.00    -0.480 OA
BRANCH  28  29
ATOM     29  C   UNL     1      -1.591   4.997   9.913  0.00  0.00    +0.122 A 
ATOM     30  C   UNL     1      -2.663   5.606  10.550  0.00  0.00    +0.045 A 
ATOM     31  C   UNL     1      -2.665   5.735  11.925  0.00  0.00    +0.004 A 
ATOM     32  C   UNL     1      -1.600   5.259  12.667  0.00  0.00    +0.000 A 
ATOM     33  C   UNL     1      -0.530   4.653  12.034  0.00  0.00    +0.004 A 
ATOM     34  C   UNL     1      -0.526   4.516  10.660  0.00  0.00    +0.045 A 
ENDBRANCH  28  29
ENDBRANCH  26  28
ENDBRANCH  11  26
TORSDOF 5
