REMARK  Name = ZINC36504456
REMARK  17 active torsions:
REMARK  status: ('A' for Active; 'I' for Inactive)
REMARK    1  A    between atoms: C_1  and  C_2
REMARK    2  A    between atoms: C_5  and  C_8
REMARK    3  A    between atoms: C_8  and  C_10
REMARK    4  A    between atoms: C_8  and  N_21
REMARK    5  A    between atoms: N_12  and  C_13
REMARK    6  A    between atoms: C_13  and  C_14
REMARK    7  A    between atoms: C_13  and  C_15
REMARK    8  A    between atoms: C_13  and  C_16
REMARK    9  A    between atoms: C_16  and  C_17
REMARK   10  A    between atoms: C_17  and  C_18
REMARK   11  A    between atoms: C_17  and  C_19
REMARK   12  A    between atoms: C_17  and  C_20
REMARK   13  A    between atoms: N_21  and  C_22
REMARK   14  A    between atoms: C_22  and  C_23
REMARK   15  A    between atoms: C_28  and  C_30
REMARK   16  A    between atoms: C_30  and  N_31
REMARK   17  A    between atoms: C_32  and  C_34
REMARK                            x       y       z     vdW  Elec       q    Type
REMARK                         _______ _______ _______ _____ _____    ______ ____
ROOT
ATOM      1  C   UNL     1      -0.676  -6.318  -1.654  0.00  0.00    +0.193 C 
ENDROOT
BRANCH   1   6
ATOM      2  C   UNL     1      -0.753  -2.024   2.212  0.00  0.00    +0.044 C 
ATOM      3  C   UNL     1      -0.733  -3.144   1.204  0.00  0.00    -0.050 A 
ATOM      4  C   UNL     1      -0.780  -2.858  -0.147  0.00  0.00    +0.004 A 
ATOM      5  C   UNL     1      -0.762  -3.885  -1.072  0.00  0.00    +0.006 A 
ATOM      6  C   UNL     1      -0.696  -5.199  -0.645  0.00  0.00    -0.018 A 
ATOM      7  C   UNL     1      -0.647  -5.484   0.706  0.00  0.00    +0.006 A 
ATOM      8  C   UNL     1      -0.662  -4.457   1.631  0.00  0.00    +0.004 A 
ENDBRANCH   1   6
BRANCH   1   9
ATOM      9  C   UNL     1      -2.005  -7.029  -1.640  0.00  0.00    +0.239 C 
ATOM     10  O   UNL     1      -2.062  -8.203  -1.337  0.00  0.00    -0.273 OA
ATOM     11  N   UNL     1      -3.130  -6.362  -1.964  0.00  0.00    -0.308 N 
ATOM     12  H   UNL     1      -3.085  -5.423  -2.206  0.00  0.00    +0.149 HD
BRANCH  11  13
ATOM     13  C   UNL     1      -4.422  -7.053  -1.951  0.00  0.00    +0.030 C 
ATOM     14  C   UNL     1      -4.317  -8.345  -2.763  0.00  0.00    +0.031 C 
ATOM     15  C   UNL     1      -4.806  -7.387  -0.508  0.00  0.00    +0.031 C 
BRANCH  13  16
ATOM     16  C   UNL     1      -5.491  -6.148  -2.567  0.00  0.00    +0.031 C 
BRANCH  16  17
ATOM     17  C   UNL     1      -5.357  -4.736  -1.992  0.00  0.00    -0.036 C 
ATOM     18  C   UNL     1      -4.114  -4.063  -2.579  0.00  0.00    +0.010 C 
ATOM     19  C   UNL     1      -6.598  -3.918  -2.353  0.00  0.00    +0.010 C 
ATOM     20  C   UNL     1      -5.223  -4.815  -0.470  0.00  0.00    +0.010 C 
ENDBRANCH  16  17
ENDBRANCH  13  16
ENDBRANCH  11  13
ENDBRANCH   1   9
BRANCH   1  21
ATOM     21  N   UNL     1       0.388  -7.265  -1.312  0.00  0.00    -0.277 N 
ATOM     22  C   UNL     1       1.675  -6.951  -1.558  0.00  0.00    +0.234 C 
ATOM     23  O   UNL     1       1.952  -5.883  -2.063  0.00  0.00    -0.274 OA
BRANCH  21  24
ATOM     24  C   UNL     1       0.053  -8.555  -0.702  0.00  0.00    +0.183 C 
BRANCH  24  25
ATOM     25  C   UNL     1      -0.158  -9.583  -1.783  0.00  0.00    +0.122 A 
ATOM     26  C   UNL     1       0.810 -10.284  -2.401  0.00  0.00    +0.046 A 
ATOM     27  C   UNL     1       0.170 -11.127  -3.338  0.00  0.00    +0.041 A 
ATOM     28  C   UNL     1      -1.150 -10.890  -3.237  0.00  0.00    +0.195 A 
ATOM     29  O   UNL     1      -1.343  -9.958  -2.290  0.00  0.00    -0.466 OA
ENDBRANCH  24  25
ENDBRANCH  21  24
BRANCH  22  30
ATOM     30  C   UNL     1       2.769  -7.925  -1.206  0.00  0.00    +0.200 C 
BRANCH  30  31
ATOM     31  N   UNL     1       4.068  -7.353  -1.570  0.00  0.00    -0.303 N 
ATOM     32  C   UNL     1       5.199  -8.051  -1.346  0.00  0.00    +0.244 C 
ATOM     33  O   UNL     1       5.141  -9.155  -0.842  0.00  0.00    -0.270 OA
ATOM     34  H   UNL     1       4.114  -6.471  -1.973  0.00  0.00    +0.150 HD
BRANCH  32  35
ATOM     35  C   UNL     1       6.509  -7.473  -1.713  0.00  0.00    +0.037 A 
ATOM     36  C   UNL     1       6.579  -6.203  -2.287  0.00  0.00    +0.013 A 
ATOM     37  C   UNL     1       7.805  -5.670  -2.627  0.00  0.00    +0.001 A 
ATOM     38  C   UNL     1       8.964  -6.391  -2.401  0.00  0.00    +0.000 A 
ATOM     39  C   UNL     1       8.901  -7.651  -1.833  0.00  0.00    +0.001 A 
ATOM     40  C   UNL     1       7.682  -8.194  -1.483  0.00  0.00    +0.013 A 
ENDBRANCH  32  35
ENDBRANCH  30  31
ENDBRANCH  22  30
ENDBRANCH   1  21
TORSDOF 11
