REMARK  Name = ZINC64890614
REMARK  10 active torsions:
REMARK  status: ('A' for Active; 'I' for Inactive)
REMARK    1  A    between atoms: C_1  and  C_2
REMARK    2  A    between atoms: C_2  and  N_3
REMARK    3  A    between atoms: C_7  and  C_16
REMARK    4  A    between atoms: C_18  and  C_22
REMARK    5  A    between atoms: C_22  and  C_24
REMARK    6  A    between atoms: C_22  and  N_27
REMARK    7  A    between atoms: C_24  and  C_25
REMARK    8  A    between atoms: C_24  and  C_26
REMARK    9  A    between atoms: N_27  and  S_28
REMARK   10  A    between atoms: S_28  and  C_31
REMARK                            x       y       z     vdW  Elec       q    Type
REMARK                         _______ _______ _______ _____ _____    ______ ____
ROOT
ATOM      1  C   UNL     1       6.022  -2.443   1.304  0.00  0.00    +0.134 C 
ATOM      2  N   UNL     1       6.633  -2.504   0.161  0.00  0.00    -0.341 N 
ATOM      3  C   UNL     1       8.069  -2.297   0.383  0.00  0.00    +0.262 C 
ATOM      4  O   UNL     1       8.213  -2.108   1.799  0.00  0.00    -0.246 OA
ATOM      5  N   UNL     1       6.902  -2.203   2.330  0.00  0.00    -0.247 N 
ATOM      6  H   UNL     1       6.665  -2.116   3.267  0.00  0.00    +0.196 HD
ATOM      7  H   UNL     1       6.210  -2.661  -0.699  0.00  0.00    +0.164 HD
ENDROOT
BRANCH   1  12
ATOM      8  N   UNL     1       0.444  -3.052   1.943  0.00  0.00    -0.303 N 
ATOM      9  C   UNL     1       1.818  -2.906   1.797  0.00  0.00    +0.068 A 
ATOM     10  C   UNL     1       2.330  -2.379   0.614  0.00  0.00    +0.028 A 
ATOM     11  C   UNL     1       3.689  -2.229   0.454  0.00  0.00    +0.013 A 
ATOM     12  C   UNL     1       4.561  -2.605   1.478  0.00  0.00    +0.019 A 
ATOM     13  C   UNL     1       4.055  -3.133   2.664  0.00  0.00    +0.039 A 
ATOM     14  C   UNL     1       2.686  -3.284   2.825  0.00  0.00    +0.067 A 
ATOM     15  N   UNL     1       2.188  -3.813   4.014  0.00  0.00    -0.316 N 
ATOM     16  H   UNL     1       2.798  -4.072   4.722  0.00  0.00    +0.169 HD
ATOM     17  C   UNL     1       0.858  -3.965   4.181  0.00  0.00    +0.314 A 
ATOM     18  O   UNL     1       0.418  -4.425   5.216  0.00  0.00    -0.262 OA
ATOM     19  C   UNL     1      -0.067  -3.557   3.084  0.00  0.00    +0.316 A 
ATOM     20  O   UNL     1      -1.268  -3.680   3.217  0.00  0.00    -0.262 OA
BRANCH   8  22
ATOM     21  C   UNL     1      -0.842  -1.182   1.031  0.00  0.00    +0.027 C 
ATOM     22  C   UNL     1      -0.453  -2.651   0.856  0.00  0.00    +0.122 C 
ENDBRANCH   8  22
ENDBRANCH   1  12
BRANCH   3  23
ATOM     23  C   UNL     1       8.858  -3.526  -0.073  0.00  0.00    +0.131 C 
BRANCH  23  24
ATOM     24  C   UNL     1      10.354  -3.271   0.117  0.00  0.00    +0.006 C 
ATOM     25  C   UNL     1      10.746  -1.978  -0.601  0.00  0.00    +0.009 C 
ATOM     26  C   UNL     1      10.664  -3.139   1.610  0.00  0.00    +0.009 C 
ENDBRANCH  23  24
BRANCH  23  27
ATOM     27  N   UNL     1       8.582  -3.787  -1.488  0.00  0.00    -0.182 NA
ATOM     28  H   UNL     1       8.439  -3.046  -2.098  0.00  0.00    +0.148 HD
BRANCH  27  29
ATOM     29  S   UNL     1       8.517  -5.344  -2.046  0.00  0.00    +0.059 S 
ATOM     30  O   UNL     1       8.210  -5.267  -3.431  0.00  0.00    -0.153 OA
ATOM     31  O   UNL     1       9.680  -6.000  -1.558  0.00  0.00    -0.153 OA
BRANCH  29  32
ATOM     32  C   UNL     1       7.139  -6.119  -1.267  0.00  0.00    +0.105 A 
ATOM     33  C   UNL     1       7.304  -6.770  -0.059  0.00  0.00    +0.028 A 
ATOM     34  C   UNL     1       6.223  -7.377   0.552  0.00  0.00    +0.002 A 
ATOM     35  C   UNL     1       4.977  -7.333  -0.045  0.00  0.00    +0.000 A 
ATOM     36  C   UNL     1       4.811  -6.681  -1.252  0.00  0.00    +0.002 A 
ATOM     37  C   UNL     1       5.892  -6.070  -1.861  0.00  0.00    +0.028 A 
ENDBRANCH  29  32
ENDBRANCH  27  29
ENDBRANCH  23  27
ENDBRANCH   3  23
TORSDOF 7
