REMARK  Name = ZINC40728569
REMARK  7 active torsions:
REMARK  status: ('A' for Active; 'I' for Inactive)
REMARK    1  A    between atoms: C_1  and  C_2
REMARK    2  A    between atoms: C_7  and  C_9
REMARK    3  A    between atoms: C_7  and  C_10
REMARK    4  A    between atoms: C_14  and  N_32
REMARK    5  A    between atoms: C_15  and  N_19
REMARK    6  A    between atoms: N_22  and  C_25
REMARK    7  A    between atoms: C_25  and  C_26
REMARK                            x       y       z     vdW  Elec       q    Type
REMARK                         _______ _______ _______ _____ _____    ______ ____
ROOT
ATOM      1  C   UNL     1       0.598   0.684   0.983  0.00  0.00    +0.013 C 
ATOM      2  C   UNL     1       0.197  -0.798   1.023  0.00  0.00    -0.014 C 
ATOM      3  C   UNL     1       1.089  -1.677   0.105  0.00  0.00    +0.030 C 
ATOM      4  C   UNL     1       0.179  -2.924  -0.024  0.00  0.00    +0.076 C 
ATOM      5  C   UNL     1       0.280  -3.695   1.290  0.00  0.00    +0.029 C 
ATOM      6  C   UNL     1      -0.066  -2.868   2.515  0.00  0.00    -0.033 C 
ATOM      7  C   UNL     1       0.268  -1.390   2.430  0.00  0.00    +0.014 C 
ATOM      8  C   UNL     1      -1.548  -3.054   2.867  0.00  0.00    +0.011 C 
ATOM      9  C   UNL     1       0.742  -3.451   3.701  0.00  0.00    +0.011 C 
ATOM     10  N   UNL     1      -1.188  -2.382  -0.163  0.00  0.00    -0.310 N 
ATOM     11  C   UNL     1      -1.213  -1.041   0.439  0.00  0.00    +0.113 C 
ATOM     12  C   UNL     1      -2.263  -3.023  -0.768  0.00  0.00    +0.147 A 
ATOM     13  C   UNL     1      -3.537  -2.452  -0.738  0.00  0.00    +0.106 A 
ATOM     14  C   UNL     1      -4.581  -3.137  -1.361  0.00  0.00    +0.147 A 
ATOM     15  N   UNL     1      -4.325  -4.299  -1.956  0.00  0.00    -0.219 NA
ATOM     16  C   UNL     1      -3.107  -4.803  -1.962  0.00  0.00    +0.225 A 
ATOM     17  N   UNL     1      -2.093  -4.187  -1.390  0.00  0.00    -0.219 NA
ENDROOT
BRANCH  14  18
ATOM     18  N   UNL     1      -5.868  -2.613  -1.360  0.00  0.00    -0.311 N 
ATOM     19  C   UNL     1      -6.847  -3.018  -0.339  0.00  0.00    +0.122 C 
ATOM     20  C   UNL     1      -8.136  -3.449  -1.045  0.00  0.00    +0.103 C 
ATOM     21  N   UNL     1      -8.583  -2.375  -1.942  0.00  0.00    -0.295 NA
ATOM     22  C   UNL     1      -7.600  -2.126  -3.005  0.00  0.00    +0.103 C 
ATOM     23  C   UNL     1      -6.287  -1.635  -2.375  0.00  0.00    +0.122 C 
BRANCH  21  24
ATOM     24  C   UNL     1      -9.905  -2.677  -2.507  0.00  0.00    +0.119 C 
BRANCH  24  25
ATOM     25  C   UNL     1     -10.437  -1.459  -3.219  0.00  0.00    -0.033 A 
ATOM     26  C   UNL     1     -11.194  -0.531  -2.529  0.00  0.00    +0.005 A 
ATOM     27  C   UNL     1     -11.681   0.586  -3.181  0.00  0.00    +0.000 A 
ATOM     28  C   UNL     1     -11.412   0.774  -4.524  0.00  0.00    +0.000 A 
ATOM     29  C   UNL     1     -10.654  -0.153  -5.214  0.00  0.00    +0.000 A 
ATOM     30  C   UNL     1     -10.162  -1.268  -4.560  0.00  0.00    +0.005 A 
ENDBRANCH  24  25
ENDBRANCH  21  24
ENDBRANCH  14  18
BRANCH  13  31
ATOM     31  N   UNL     1      -3.761  -1.222  -0.097  0.00  0.00    -0.353 N 
ATOM     32  H   UNL     1      -3.075  -0.537  -0.109  0.00  0.00    +0.143 HD
ATOM     33  H   UNL     1      -4.602  -1.059   0.358  0.00  0.00    +0.143 HD
ENDBRANCH  13  31
TORSDOF 4
