REMARK  Name = ZINC39637307
REMARK  5 active torsions:
REMARK  status: ('A' for Active; 'I' for Inactive)
REMARK    1  A    between atoms: C_1  and  C_2
REMARK    2  A    between atoms: C_7  and  N_12
REMARK    3  A    between atoms: C_9  and  C_11
REMARK    4  A    between atoms: C_13  and  C_15
REMARK    5  A    between atoms: C_26  and  C_28
REMARK                            x       y       z     vdW  Elec       q    Type
REMARK                         _______ _______ _______ _____ _____    ______ ____
ROOT
ATOM      1  C   UNL     1       2.244  -0.178   6.443  0.00  0.00    +0.100 C 
ATOM      2  C   UNL     1       1.431  -1.478   6.635  0.00  0.00    +0.121 C 
ATOM      3  N   UNL     1       1.113  -1.510   8.082  0.00  0.00    -0.296 N 
ATOM      4  C   UNL     1       0.806  -0.101   8.424  0.00  0.00    +0.115 C 
ATOM      5  C   UNL     1       1.830   0.723   7.619  0.00  0.00    -0.004 C 
ATOM      6  C   UNL     1       3.043   1.050   8.486  0.00  0.00    -0.010 C 
ATOM      7  C   UNL     1       2.617   1.993   9.615  0.00  0.00    -0.082 C 
ATOM      8  N   UNL     1       2.054   3.222   9.043  0.00  0.00    +0.379 N 
ATOM      9  C   UNL     1       0.835   2.909   8.287  0.00  0.00    -0.082 C 
ATOM     10  C   UNL     1       1.185   2.005   7.101  0.00  0.00    -0.010 C 
ATOM     11  C   UNL     1       1.104  -2.580   8.902  0.00  0.00    +0.248 C 
ATOM     12  O   UNL     1       0.739  -2.459  10.055  0.00  0.00    -0.270 OA
ATOM     13  H   UNL     1       1.831   3.866   9.787  0.00  0.00    -0.086 HD
ATOM     14  H   UNL     1       2.731   3.646   8.427  0.00  0.00    -0.086 HD
ENDROOT
BRANCH  11  15
ATOM     15  C   UNL     1       1.538  -3.900   8.399  0.00  0.00    +0.057 A 
ATOM     16  C   UNL     1       1.163  -4.321   7.121  0.00  0.00    +0.014 A 
ATOM     17  C   UNL     1       1.571  -5.554   6.657  0.00  0.00    +0.002 A 
ATOM     18  C   UNL     1       2.350  -6.375   7.454  0.00  0.00    +0.021 A 
ATOM     19  C   UNL     1       2.725  -5.966   8.722  0.00  0.00    +0.060 A 
ATOM     20  C   UNL     1       2.329  -4.730   9.197  0.00  0.00    +0.071 A 
ATOM     21 CL   UNL     1       2.805  -4.213  10.784  0.00  0.00    -0.081 Cl
ATOM     22 CL   UNL     1       3.701  -7.004   9.714  0.00  0.00    -0.082 Cl
ENDBRANCH  11  15
BRANCH   1  24
ATOM     23  N   UNL     1       2.804   1.218   4.479  0.00  0.00    -0.312 N 
ATOM     24  C   UNL     1       1.889   0.475   5.132  0.00  0.00    +0.218 C 
ATOM     25  O   UNL     1       0.779   0.331   4.664  0.00  0.00    -0.275 OA
ATOM     26  H   UNL     1       3.692   1.332   4.853  0.00  0.00    +0.149 HD
BRANCH  23  32
ATOM     27  C   UNL     1       1.526   4.174   1.682  0.00  0.00    +0.008 C 
ATOM     28  C   UNL     1       2.992   3.737   1.653  0.00  0.00    -0.009 C 
ATOM     29  C   UNL     1       3.204   2.739   0.513  0.00  0.00    +0.003 C 
ATOM     30  C   UNL     1       2.310   1.516   0.733  0.00  0.00    +0.002 C 
ATOM     31  C   UNL     1       2.671   0.854   2.064  0.00  0.00    +0.022 C 
ATOM     32  C   UNL     1       2.459   1.852   3.204  0.00  0.00    +0.076 C 
ATOM     33  C   UNL     1       3.352   3.074   2.985  0.00  0.00    +0.009 C 
ATOM     34  C   UNL     1       3.140   4.072   4.125  0.00  0.00    +0.009 C 
ENDBRANCH  23  32
ENDBRANCH   1  24
TORSDOF 3
