REMARK  Name = ZINC21266734
REMARK  10 active torsions:
REMARK  status: ('A' for Active; 'I' for Inactive)
REMARK    1  A    between atoms: C_1  and  C_2
REMARK    2  A    between atoms: C_4  and  S_29
REMARK    3  A    between atoms: C_6  and  N_9
REMARK    4  A    between atoms: C_7  and  C_8
REMARK    5  A    between atoms: C_10  and  C_12
REMARK    6  A    between atoms: C_12  and  S_13
REMARK    7  A    between atoms: S_13  and  C_14
REMARK    8  A    between atoms: C_17  and  C_22
REMARK    9  A    between atoms: N_18  and  C_19
REMARK   10  A    between atoms: S_29  and  N_32
REMARK                            x       y       z     vdW  Elec       q    Type
REMARK                         _______ _______ _______ _____ _____    ______ ____
ROOT
ATOM      1  N   UNL     1      -3.458   0.409   2.958  0.00  0.00    -0.285 N 
ATOM      2  C   UNL     1      -3.820  -0.796   2.474  0.00  0.00    +0.227 C 
ATOM      3  O   UNL     1      -3.315  -1.217   1.455  0.00  0.00    -0.275 OA
ATOM      4  H   UNL     1      -3.855   0.755   3.924  0.00  0.00    +0.155 HD
ENDROOT
BRANCH   1  10
ATOM      5  C   UNL     1      -1.991   4.896   1.584  0.00  0.00    +0.044 C 
ATOM      6  C   UNL     1      -1.843   3.396   1.549  0.00  0.00    -0.044 A 
ATOM      7  C   UNL     1      -0.832   2.819   0.802  0.00  0.00    +0.032 A 
ATOM      8  C   UNL     1      -0.696   1.444   0.762  0.00  0.00    +0.107 A 
ATOM      9  C   UNL     1      -1.564   0.642   1.478  0.00  0.00    +0.052 A 
ATOM     10  C   UNL     1      -2.577   1.218   2.233  0.00  0.00    +0.038 A 
ATOM     11  C   UNL     1      -2.714   2.600   2.266  0.00  0.00    -0.026 A 
ATOM     12  C   UNL     1      -3.812   3.230   3.084  0.00  0.00    +0.046 C 
BRANCH   8  13
ATOM     13  S   UNL     1       0.589   0.714  -0.196  0.00  0.00    +0.056 S 
ATOM     14  O   UNL     1       0.844  -0.564   0.372  0.00  0.00    -0.153 OA
ATOM     15  O   UNL     1       1.602   1.701  -0.336  0.00  0.00    -0.153 OA
BRANCH  13  16
ATOM     16  N   UNL     1      -0.022   0.445  -1.711  0.00  0.00    -0.204 NA
ATOM     17  H   UNL     1       0.753  -0.013  -2.344  0.00  0.00    +0.144 HD
ATOM     18  H   UNL     1      -0.339   1.401  -2.154  0.00  0.00    +0.144 HD
ENDBRANCH  13  16
ENDBRANCH   8  13
ENDBRANCH   1  10
BRANCH   2  19
ATOM     19  C   UNL     1      -4.853  -1.620   3.199  0.00  0.00    +0.173 C 
BRANCH  19  20
ATOM     20  S   UNL     1      -5.120  -3.172   2.307  0.00  0.00    -0.077 S 
BRANCH  20  21
ATOM     21  C   UNL     1      -6.336  -3.915   3.344  0.00  0.00    +0.193 A 
ATOM     22  N   UNL     1      -6.840  -3.403   4.445  0.00  0.00    -0.122 NA
ATOM     23  N   UNL     1      -7.705  -4.208   4.950  0.00  0.00    -0.128 NA
ATOM     24  C   UNL     1      -7.800  -5.287   4.208  0.00  0.00    +0.168 A 
ATOM     25  N   UNL     1      -6.927  -5.132   3.156  0.00  0.00    -0.299 N 
BRANCH  24  26
ATOM     26  C   UNL     1      -8.681  -6.448   4.455  0.00  0.00    +0.054 A 
ATOM     27  C   UNL     1      -9.473  -6.959   3.426  0.00  0.00    +0.014 A 
ATOM     28  C   UNL     1     -10.292  -8.044   3.663  0.00  0.00    +0.001 A 
ATOM     29  C   UNL     1     -10.330  -8.626   4.918  0.00  0.00    +0.003 A 
ATOM     30  C   UNL     1      -9.549  -8.126   5.944  0.00  0.00    +0.039 A 
ATOM     31  C   UNL     1      -8.719  -7.044   5.719  0.00  0.00    +0.134 A 
ATOM     32  F   UNL     1      -7.952  -6.559   6.720  0.00  0.00    -0.205 F 
ENDBRANCH  24  26
BRANCH  25  33
ATOM     33  C   UNL     1      -6.681  -6.077   2.064  0.00  0.00    +0.091 C 
ATOM     34  C   UNL     1      -5.405  -5.888   1.241  0.00  0.00    +0.027 C 
ATOM     35  C   UNL     1      -6.766  -5.540   0.633  0.00  0.00    +0.027 C 
ENDBRANCH  25  33
ENDBRANCH  20  21
ENDBRANCH  19  20
ENDBRANCH   2  19
TORSDOF 8
