REMARK  Name = ZINC25048958
REMARK  7 active torsions:
REMARK  status: ('A' for Active; 'I' for Inactive)
REMARK    1  A    between atoms: C_1  and  C_2
REMARK    2  A    between atoms: C_5  and  C_8
REMARK    3  A    between atoms: C_8  and  C_10
REMARK    4  A    between atoms: C_8  and  N_15
REMARK    5  A    between atoms: N_15  and  C_16
REMARK    6  A    between atoms: C_16  and  C_17
REMARK    7  A    between atoms: C_23  and  C_25
REMARK                            x       y       z     vdW  Elec       q    Type
REMARK                         _______ _______ _______ _____ _____    ______ ____
ROOT
ATOM      1  C   UNL     1      -3.131   1.469  -3.049  0.00  0.00    +0.016 C 
ENDROOT
BRANCH   1   2
ATOM      2  C   UNL     1      -3.315   1.465  -1.554  0.00  0.00    +0.199 C 
ATOM      3  O   UNL     1      -4.429   1.392  -1.080  0.00  0.00    -0.278 OA
ATOM      4  N   UNL     1      -2.242   1.544  -0.742  0.00  0.00    -0.296 N 
ATOM      5  C   UNL     1      -0.838   1.637  -1.182  0.00  0.00    +0.108 C 
ATOM      6  C   UNL     1      -0.013   1.086   0.008  0.00  0.00    +0.021 C 
ATOM      7  C   UNL     1      -0.816   1.624   1.221  0.00  0.00    +0.029 C 
ATOM      8  C   UNL     1      -2.277   1.550   0.727  0.00  0.00    +0.106 C 
BRANCH   8   9
ATOM      9  C   UNL     1      -3.046   2.750   1.216  0.00  0.00    -0.023 A 
ATOM     10  C   UNL     1      -2.888   3.973   0.590  0.00  0.00    +0.009 A 
ATOM     11  C   UNL     1      -3.593   5.075   1.034  0.00  0.00    +0.050 A 
ATOM     12  C   UNL     1      -4.454   4.960   2.115  0.00  0.00    +0.162 A 
ATOM     13  C   UNL     1      -4.611   3.732   2.746  0.00  0.00    +0.162 A 
ATOM     14  C   UNL     1      -3.902   2.629   2.294  0.00  0.00    +0.055 A 
ATOM     15  O   UNL     1      -5.457   3.596   3.804  0.00  0.00    -0.485 OA
ATOM     16  C   UNL     1      -5.864   4.800   4.462  0.00  0.00    +0.270 C 
ATOM     17  C   UNL     1      -6.267   5.822   3.390  0.00  0.00    +0.270 C 
ATOM     18  O   UNL     1      -5.134   6.058   2.547  0.00  0.00    -0.485 OA
ENDBRANCH   8   9
ENDBRANCH   1   2
BRANCH   1  19
ATOM     19  N   UNL     1      -4.443   1.375  -3.704  0.00  0.00    +0.392 N 
ATOM     20  H   UNL     1      -5.054   2.236  -3.394  0.00  0.00    -0.084 HD
ATOM     21  H   UNL     1      -4.931   0.444  -3.384  0.00  0.00    -0.084 HD
BRANCH  19  22
ATOM     22  C   UNL     1      -4.302   1.376  -5.167  0.00  0.00    -0.003 C 
BRANCH  22  27
ATOM     23  C   UNL     1      -9.178   3.335  -7.571  0.00  0.00    +0.044 C 
ATOM     24  C   UNL     1      -7.907   2.825  -6.944  0.00  0.00    -0.050 A 
ATOM     25  C   UNL     1      -6.681   3.199  -7.462  0.00  0.00    +0.003 A 
ATOM     26  C   UNL     1      -5.515   2.730  -6.887  0.00  0.00    +0.002 A 
ATOM     27  C   UNL     1      -5.574   1.887  -5.793  0.00  0.00    -0.057 A 
ATOM     28  C   UNL     1      -6.799   1.509  -5.278  0.00  0.00    +0.002 A 
ATOM     29  C   UNL     1      -7.966   1.981  -5.850  0.00  0.00    +0.003 A 
ENDBRANCH  22  27
BRANCH  22  30
ATOM     30  C   UNL     1      -4.035  -0.027  -5.646  0.00  0.00    -0.020 A 
ATOM     31  C   UNL     1      -3.186  -0.451  -6.615  0.00  0.00    +0.010 A 
ATOM     32  C   UNL     1      -3.103  -1.803  -6.888  0.00  0.00    +0.008 A 
ATOM     33  C   UNL     1      -3.873  -2.666  -6.180  0.00  0.00    +0.045 A 
ATOM     34  S   UNL     1      -4.747  -1.563  -5.081  0.00  0.00    -0.103 S 
ENDBRANCH  22  30
ENDBRANCH  19  22
ENDBRANCH   1  19
TORSDOF 6
