REMARK  Name = ZINC62158129
REMARK  5 active torsions:
REMARK  status: ('A' for Active; 'I' for Inactive)
REMARK    1  A    between atoms: C_1  and  C_2
REMARK    2  A    between atoms: C_7  and  C_8
REMARK    3  A    between atoms: C_10  and  C_13
REMARK    4  A    between atoms: C_13  and  C_14
REMARK    5  A    between atoms: C_24  and  C_26
REMARK                            x       y       z     vdW  Elec       q    Type
REMARK                         _______ _______ _______ _____ _____    ______ ____
ROOT
ATOM      1  C   UNL     1      -0.025  -0.178   6.195  0.00  0.00    +0.195 C 
ENDROOT
BRANCH   1   2
ATOM      2  C   UNL     1       1.406  -0.056   6.652  0.00  0.00    +0.229 C 
ATOM      3  O   UNL     1       2.272   0.251   5.860  0.00  0.00    -0.275 OA
ATOM      4  N   UNL     1       1.724  -0.287   7.941  0.00  0.00    -0.268 N 
ATOM      5  C   UNL     1       0.814  -0.652   8.938  0.00  0.00    +0.040 A 
ATOM      6  C   UNL     1      -0.565  -0.853   8.847  0.00  0.00    +0.024 A 
ATOM      7  C   UNL     1      -1.290  -1.214   9.963  0.00  0.00    +0.002 A 
ATOM      8  C   UNL     1      -0.657  -1.379  11.181  0.00  0.00    +0.000 A 
ATOM      9  C   UNL     1       0.708  -1.182  11.279  0.00  0.00    +0.005 A 
ATOM     10  C   UNL     1       1.439  -0.821  10.163  0.00  0.00    -0.024 A 
ATOM     11  C   UNL     1       2.916  -0.546   9.991  0.00  0.00    +0.059 C 
ATOM     12  C   UNL     1       3.075  -0.200   8.502  0.00  0.00    +0.083 C 
ATOM     13  C   UNL     1       4.001  -1.206   7.816  0.00  0.00    +0.029 C 
ENDBRANCH   1   2
BRANCH   1  16
ATOM     14  C   UNL     1      -0.122  -0.120   2.567  0.00  0.00    +0.202 A 
ATOM     15  N   UNL     1       0.006  -0.736   3.756  0.00  0.00    -0.191 NA
ATOM     16  C   UNL     1      -0.110   0.129   4.722  0.00  0.00    +0.237 A 
ATOM     17  O   UNL     1      -0.317   1.339   4.186  0.00  0.00    -0.337 OA
ATOM     18  N   UNL     1      -0.316   1.159   2.777  0.00  0.00    -0.056 NA
BRANCH  14  25
ATOM     19  C   UNL     1       2.011  -1.993   2.010  0.00  0.00    +0.044 C 
ATOM     20  C   UNL     1       0.975  -1.681   0.961  0.00  0.00    -0.040 A 
ATOM     21  C   UNL     1       1.035  -2.294  -0.274  0.00  0.00    +0.004 A 
ATOM     22  C   UNL     1       0.085  -2.008  -1.238  0.00  0.00    +0.000 A 
ATOM     23  C   UNL     1      -0.930  -1.107  -0.970  0.00  0.00    +0.001 A 
ATOM     24  C   UNL     1      -1.000  -0.489   0.262  0.00  0.00    +0.012 A 
ATOM     25  C   UNL     1      -0.048  -0.777   1.238  0.00  0.00    +0.025 A 
ENDBRANCH  14  25
ENDBRANCH   1  16
TORSDOF 3
