REMARK  Name = ZINC13506296
REMARK  8 active torsions:
REMARK  status: ('A' for Active; 'I' for Inactive)
REMARK    1  A    between atoms: C_3  and  C_6
REMARK    2  A    between atoms: N_8  and  C_9
REMARK    3  A    between atoms: C_9  and  C_10
REMARK    4  A    between atoms: N_12  and  C_13
REMARK    5  A    between atoms: N_12  and  C_20
REMARK    6  A    between atoms: C_20  and  C_22
REMARK    7  A    between atoms: C_20  and  C_28
REMARK    8  A    between atoms: N_30  and  C_31
REMARK                            x       y       z     vdW  Elec       q    Type
REMARK                         _______ _______ _______ _____ _____    ______ ____
ROOT
ATOM      1  C   UNL     1       1.033  -0.636  -0.816  0.00  0.00    +0.238 C 
ATOM      2  O   UNL     1       0.709  -1.262  -1.804  0.00  0.00    -0.274 OA
ATOM      3  N   UNL     1       0.117  -0.346   0.129  0.00  0.00    -0.254 N 
ENDROOT
BRANCH   3   4
ATOM      4  C   UNL     1       0.464   0.466   1.214  0.00  0.00    +0.038 A 
ATOM      5  C   UNL     1       0.711   1.819   1.019  0.00  0.00    +0.025 A 
ATOM      6  C   UNL     1       1.047   2.620   2.093  0.00  0.00    +0.022 A 
ATOM      7  C   UNL     1       1.150   2.073   3.360  0.00  0.00    +0.041 A 
ATOM      8  C   UNL     1       0.910   0.725   3.556  0.00  0.00    +0.022 A 
ATOM      9  C   UNL     1       0.568  -0.080   2.486  0.00  0.00    +0.025 A 
ATOM     10 CL   UNL     1       1.580   3.081   4.706  0.00  0.00    -0.084 Cl
ENDBRANCH   3   4
BRANCH   1  11
ATOM     11  C   UNL     1       2.461  -0.184  -0.646  0.00  0.00    +0.201 C 
BRANCH  11  14
ATOM     12  C   UNL     1       4.598  -0.458  -1.783  0.00  0.00    +0.251 C 
ATOM     13  O   UNL     1       5.108   0.245  -0.930  0.00  0.00    -0.270 OA
ATOM     14  N   UNL     1       3.280  -0.732  -1.730  0.00  0.00    -0.302 N 
ATOM     15  H   UNL     1       2.873  -1.292  -2.409  0.00  0.00    +0.150 HD
BRANCH  12  18
ATOM     16  C   UNL     1       7.294  -1.477  -4.207  0.00  0.00    +0.008 A 
ATOM     17  C   UNL     1       6.773  -0.843  -3.107  0.00  0.00    +0.021 A 
ATOM     18  C   UNL     1       5.417  -1.006  -2.868  0.00  0.00    +0.074 A 
ATOM     19  S   UNL     1       4.928  -2.050  -4.229  0.00  0.00    -0.092 S 
ATOM     20  C   UNL     1       6.472  -2.212  -5.001  0.00  0.00    +0.046 A 
ENDBRANCH  12  18
ENDBRANCH  11  14
ENDBRANCH   1  11
BRANCH   3  21
ATOM     21  C   UNL     1      -1.242  -0.882   0.019  0.00  0.00    +0.197 C 
BRANCH  21  22
ATOM     22  C   UNL     1      -2.022  -0.529   1.260  0.00  0.00    -0.015 A 
ATOM     23  C   UNL     1      -2.233   0.795   1.613  0.00  0.00    +0.025 A 
ATOM     24  C   UNL     1      -2.956   1.080   2.756  0.00  0.00    +0.111 A 
ATOM     25  N   UNL     1      -3.435   0.110   3.510  0.00  0.00    -0.263 NA
ATOM     26  C   UNL     1      -3.251  -1.160   3.207  0.00  0.00    +0.111 A 
ATOM     27  C   UNL     1      -2.541  -1.521   2.078  0.00  0.00    +0.025 A 
ENDBRANCH  21  22
BRANCH  21  28
ATOM     28  C   UNL     1      -1.921  -0.286  -1.187  0.00  0.00    +0.239 C 
ATOM     29  O   UNL     1      -1.328   0.507  -1.887  0.00  0.00    -0.273 OA
ATOM     30  N   UNL     1      -3.188  -0.635  -1.488  0.00  0.00    -0.311 N 
ATOM     31  H   UNL     1      -3.662  -1.270  -0.929  0.00  0.00    +0.149 HD
BRANCH  30  32
ATOM     32  C   UNL     1      -3.848  -0.056  -2.661  0.00  0.00    +0.073 C 
ATOM     33  C   UNL     1      -4.535   1.271  -2.279  0.00  0.00    +0.022 C 
ATOM     34  C   UNL     1      -5.843   1.275  -3.110  0.00  0.00    +0.002 C 
ATOM     35  C   UNL     1      -6.280  -0.210  -3.064  0.00  0.00    +0.002 C 
ATOM     36  C   UNL     1      -4.957  -0.998  -3.160  0.00  0.00    +0.022 C 
ENDBRANCH  30  32
ENDBRANCH  21  28
ENDBRANCH   3  21
TORSDOF 8
