REMARK  Name = ZINC13691153
REMARK  6 active torsions:
REMARK  status: ('A' for Active; 'I' for Inactive)
REMARK    1  A    between atoms: C_4  and  N_23
REMARK    2  A    between atoms: C_5  and  C_7
REMARK    3  A    between atoms: N_9  and  C_10
REMARK    4  A    between atoms: C_10  and  C_11
REMARK    5  A    between atoms: C_11  and  C_12
REMARK    6  A    between atoms: C_24  and  C_26
REMARK                            x       y       z     vdW  Elec       q    Type
REMARK                         _______ _______ _______ _____ _____    ______ ____
ROOT
ATOM      1  C   UNL     1       7.494   1.517  -2.662  0.00  0.00    +0.246 C 
ATOM      2  O   UNL     1       6.865   1.527  -3.702  0.00  0.00    -0.270 OA
ATOM      3  N   UNL     1       6.861   1.722  -1.489  0.00  0.00    -0.311 N 
ATOM      4  H   UNL     1       7.362   1.714  -0.659  0.00  0.00    +0.149 HD
ENDROOT
BRANCH   1   9
ATOM      5  C   UNL     1      11.052   1.148  -1.528  0.00  0.00    +0.001 A 
ATOM      6  C   UNL     1      11.688   0.835  -2.719  0.00  0.00    +0.002 A 
ATOM      7  C   UNL     1      10.967   0.743  -3.892  0.00  0.00    +0.024 A 
ATOM      8  C   UNL     1       9.596   0.963  -3.886  0.00  0.00    +0.046 A 
ATOM      9  C   UNL     1       8.949   1.280  -2.682  0.00  0.00    +0.058 A 
ATOM     10  C   UNL     1       9.693   1.375  -1.503  0.00  0.00    +0.015 A 
BRANCH   8  11
ATOM     11  N   UNL     1       8.867   0.871  -5.068  0.00  0.00    -0.278 N 
ATOM     12  C   UNL     1       9.212  -0.036  -6.003  0.00  0.00    +0.284 C 
ATOM     13  O   UNL     1      10.098  -0.839  -5.775  0.00  0.00    -0.266 OA
ATOM     14  H   UNL     1       8.111   1.460  -5.219  0.00  0.00    +0.155 HD
BRANCH  12  15
ATOM     15  C   UNL     1       8.519  -0.057  -7.295  0.00  0.00    +0.189 A 
ATOM     16  C   UNL     1       8.768  -0.918  -8.325  0.00  0.00    +0.054 A 
ATOM     17  C   UNL     1       7.878  -0.581  -9.357  0.00  0.00    +0.042 A 
ATOM     18  C   UNL     1       7.135   0.459  -8.917  0.00  0.00    +0.196 A 
ATOM     19  O   UNL     1       7.521   0.768  -7.672  0.00  0.00    -0.458 OA
ENDBRANCH  12  15
ENDBRANCH   8  11
ENDBRANCH   1   9
BRANCH   3  20
ATOM     20  C   UNL     1       5.415   1.957  -1.469  0.00  0.00    +0.109 C 
BRANCH  20  21
ATOM     21  C   UNL     1       4.951   2.159  -0.025  0.00  0.00    +0.056 C 
BRANCH  21  22
ATOM     22  C   UNL     1       3.464   2.401  -0.004  0.00  0.00    -0.021 A 
ATOM     23  C   UNL     1       2.849   3.594   0.008  0.00  0.00    +0.087 A 
ATOM     24  N   UNL     1       1.492   3.420   0.025  0.00  0.00    -0.360 N 
ATOM     25  H   UNL     1       0.838   4.136   0.036  0.00  0.00    +0.165 HD
ATOM     26  C   UNL     1       1.192   2.075   0.025  0.00  0.00    +0.047 A 
ATOM     27  C   UNL     1       2.414   1.379   0.007  0.00  0.00    +0.004 A 
ATOM     28  C   UNL     1       2.421  -0.018   0.002  0.00  0.00    +0.030 A 
ATOM     29  C   UNL     1       1.227  -0.704   0.016  0.00  0.00    +0.042 A 
ATOM     30  C   UNL     1       0.021  -0.015   0.034  0.00  0.00    +0.022 A 
ATOM     31  C   UNL     1      -0.001   1.362   0.038  0.00  0.00    +0.027 A 
ATOM     32 CL   UNL     1       1.230  -2.440   0.011  0.00  0.00    -0.084 Cl
ENDBRANCH  21  22
ENDBRANCH  20  21
ENDBRANCH   3  20
TORSDOF 6
