REMARK  Name = ZINC29066761
REMARK  4 active torsions:
REMARK  status: ('A' for Active; 'I' for Inactive)
REMARK    1  A    between atoms: C_1  and  C_2
REMARK    2  A    between atoms: C_3  and  C_12
REMARK    3  A    between atoms: C_12  and  C_13
REMARK    4  A    between atoms: N_15  and  C_16
REMARK                            x       y       z     vdW  Elec       q    Type
REMARK                         _______ _______ _______ _____ _____    ______ ____
ROOT
ATOM      1  C   UNL     1      -8.603   2.057   2.739  0.00  0.00    +0.222 C 
ATOM      2  O   UNL     1      -7.936   1.044   2.767  0.00  0.00    -0.275 OA
ATOM      3  N   UNL     1      -8.068   3.203   2.272  0.00  0.00    -0.285 N 
ATOM      4  H   UNL     1      -8.642   4.140   2.328  0.00  0.00    +0.155 HD
ENDROOT
BRANCH   3   5
ATOM      5  C   UNL     1      -6.782   3.200   1.717  0.00  0.00    +0.037 A 
ATOM      6  C   UNL     1      -5.960   4.309   1.865  0.00  0.00    +0.027 A 
ATOM      7  C   UNL     1      -4.691   4.308   1.317  0.00  0.00    +0.051 A 
ATOM      8  C   UNL     1      -4.237   3.202   0.618  0.00  0.00    +0.167 A 
ATOM      9  C   UNL     1      -5.059   2.088   0.468  0.00  0.00    +0.169 A 
ATOM     10  C   UNL     1      -6.330   2.090   1.018  0.00  0.00    +0.072 A 
ATOM     11  O   UNL     1      -4.388   1.142  -0.254  0.00  0.00    -0.447 OA
ATOM     12  C   UNL     1      -3.009   1.535  -0.209  0.00  0.00    +0.254 C 
ATOM     13  O   UNL     1      -3.047   2.955  -0.009  0.00  0.00    -0.448 OA
ATOM     14  C   UNL     1      -2.322   1.204  -1.530  0.00  0.00    +0.093 C 
ATOM     15  C   UNL     1      -0.860   1.655  -1.474  0.00  0.00    +0.008 C 
ATOM     16  C   UNL     1      -0.152   0.943  -0.320  0.00  0.00    +0.000 C 
ATOM     17  C   UNL     1      -0.837   1.303   1.000  0.00  0.00    +0.008 C 
ATOM     18  C   UNL     1      -2.299   0.851   0.954  0.00  0.00    +0.093 C 
ENDBRANCH   3   5
BRANCH   1  19
ATOM     19  C   UNL     1     -10.028   2.035   3.227  0.00  0.00    +0.133 C 
BRANCH  19  22
ATOM     20  C   UNL     1     -11.248  -0.225   1.483  0.00  0.00    +0.063 C 
ATOM     21  C   UNL     1     -10.906  -0.338   2.946  0.00  0.00    +0.018 A 
ATOM     22  C   UNL     1     -10.378   0.645   3.693  0.00  0.00    -0.011 A 
ATOM     23  C   UNL     1     -10.213   0.112   5.047  0.00  0.00    +0.004 A 
ATOM     24  C   UNL     1      -9.730   0.641   6.246  0.00  0.00    +0.010 A 
ATOM     25  C   UNL     1      -9.708  -0.136   7.370  0.00  0.00    +0.001 A 
ATOM     26  C   UNL     1     -10.160  -1.448   7.329  0.00  0.00    +0.002 A 
ATOM     27  C   UNL     1     -10.640  -1.990   6.157  0.00  0.00    +0.026 A 
ATOM     28  C   UNL     1     -10.673  -1.217   5.001  0.00  0.00    +0.047 A 
ATOM     29  N   UNL     1     -11.084  -1.460   3.710  0.00  0.00    -0.358 N 
ATOM     30  H   UNL     1     -11.502  -2.372   3.259  0.00  0.00    +0.166 HD
ENDBRANCH  19  22
ENDBRANCH   1  19
TORSDOF 3
