REMARK  Name = ZINC12481826
REMARK  9 active torsions:
REMARK  status: ('A' for Active; 'I' for Inactive)
REMARK    1  A    between atoms: C_1  and  C_2
REMARK    2  A    between atoms: C_2  and  C_3
REMARK    3  A    between atoms: C_2  and  C_4
REMARK    4  A    between atoms: C_2  and  C_5
REMARK    5  A    between atoms: C_7  and  C_10
REMARK    6  A    between atoms: C_10  and  C_11
REMARK    7  A    between atoms: C_16  and  C_18
REMARK    8  A    between atoms: C_18  and  C_19
REMARK    9  A    between atoms: N_24  and  C_27
REMARK                            x       y       z     vdW  Elec       q    Type
REMARK                         _______ _______ _______ _____ _____    ______ ____
ROOT
ATOM      1  C   UNL     1      -1.417  -2.059  -0.118  0.00  0.00    -0.019 C 
ATOM      2  C   UNL     1      -2.851  -2.588  -0.044  0.00  0.00    -0.079 C 
ATOM      3  C   UNL     1      -3.525  -0.733   1.361  0.00  0.00    -0.082 C 
ATOM      4  C   UNL     1      -2.111  -0.148   1.331  0.00  0.00    -0.015 C 
ATOM      5  C   UNL     1      -1.433  -0.534   0.013  0.00  0.00    -0.002 C 
ATOM      6  N   UNL     1      -3.459  -2.202   1.244  0.00  0.00    +0.379 N 
ATOM      7  H   UNL     1      -2.891  -2.577   2.012  0.00  0.00    -0.086 HD
ATOM      8  H   UNL     1      -4.409  -2.588   1.299  0.00  0.00    -0.086 HD
ENDROOT
BRANCH   1   9
ATOM      9  C   UNL     1      -0.592  -2.661   1.022  0.00  0.00    +0.061 C 
BRANCH   9  12
ATOM     10  C   UNL     1       0.296  -6.176   0.575  0.00  0.00    +0.143 A 
ATOM     11  C   UNL     1       0.721  -4.903   0.757  0.00  0.00    +0.071 A 
ATOM     12  C   UNL     1      -0.474  -4.150   0.824  0.00  0.00    +0.084 A 
ATOM     13  N   UNL     1      -1.451  -4.997   0.675  0.00  0.00    -0.083 NA
ATOM     14  O   UNL     1      -1.043  -6.127   0.536  0.00  0.00    -0.359 OA
BRANCH  10  16
ATOM     15  C   UNL     1       1.998  -7.582   1.705  0.00  0.00    +0.019 C 
ATOM     16  C   UNL     1       1.158  -7.405   0.438  0.00  0.00    +0.023 C 
ATOM     17  C   UNL     1       0.268  -8.633   0.241  0.00  0.00    +0.019 C 
ATOM     18  C   UNL     1       2.083  -7.246  -0.769  0.00  0.00    +0.019 C 
ENDBRANCH  10  16
ENDBRANCH   9  12
ENDBRANCH   1   9
BRANCH   5  19
ATOM     19  C   UNL     1       0.002  -0.004   0.002  0.00  0.00    +0.099 C 
BRANCH  19  20
ATOM     20  C   UNL     1      -0.018   1.503   0.010  0.00  0.00    +0.216 C 
ATOM     21  O   UNL     1      -1.077   2.095   0.018  0.00  0.00    -0.276 OA
ATOM     22  N   UNL     1       1.139   2.192   0.003  0.00  0.00    -0.298 N 
ATOM     23  C   UNL     1       2.434   1.494  -0.007  0.00  0.00    +0.126 C 
ATOM     24  C   UNL     1       3.284   2.071  -1.151  0.00  0.00    +0.124 C 
ATOM     25  N   UNL     1       3.367   3.530  -1.004  0.00  0.00    -0.327 N 
ATOM     26  C   UNL     1       2.043   4.154  -1.127  0.00  0.00    +0.124 C 
ATOM     27  C   UNL     1       1.142   3.663   0.011  0.00  0.00    +0.126 C 
BRANCH  25  28
ATOM     28  C   UNL     1       4.266   4.076  -1.925  0.00  0.00    +0.030 A 
ATOM     29  C   UNL     1       3.848   5.071  -2.800  0.00  0.00    +0.026 A 
ATOM     30  C   UNL     1       4.739   5.612  -3.706  0.00  0.00    +0.040 A 
ATOM     31  C   UNL     1       6.046   5.155  -3.750  0.00  0.00    +0.124 A 
ATOM     32  C   UNL     1       6.463   4.160  -2.882  0.00  0.00    +0.040 A 
ATOM     33  C   UNL     1       5.577   3.620  -1.971  0.00  0.00    +0.026 A 
ATOM     34  F   UNL     1       6.915   5.683  -4.640  0.00  0.00    -0.205 F 
ENDBRANCH  25  28
ENDBRANCH  19  20
ENDBRANCH   5  19
TORSDOF 6
