REMARK  Name = ZINC40287612
REMARK  4 active torsions:
REMARK  status: ('A' for Active; 'I' for Inactive)
REMARK    1  A    between atoms: C_11  and  C_13
REMARK    2  A    between atoms: C_13  and  C_14
REMARK    3  A    between atoms: C_14  and  C_15
REMARK    4  A    between atoms: N_20  and  C_23
REMARK                            x       y       z     vdW  Elec       q    Type
REMARK                         _______ _______ _______ _____ _____    ______ ____
ROOT
ATOM      1  C   UNL     1       6.168  -5.863  -0.069  0.00  0.00    +0.105 C 
ENDROOT
BRANCH   1   2
ATOM      2  C   UNL     1       6.546  -7.322  -0.098  0.00  0.00    +0.216 C 
ATOM      3  O   UNL     1       5.681  -8.172  -0.109  0.00  0.00    -0.276 OA
ATOM      4  N   UNL     1       7.845  -7.682  -0.113  0.00  0.00    -0.298 N 
ATOM      5  C   UNL     1       8.903  -6.663  -0.093  0.00  0.00    +0.126 C 
ATOM      6  C   UNL     1       9.836  -6.947   1.090  0.00  0.00    +0.124 C 
ATOM      7  N   UNL     1      10.219  -8.366   1.056  0.00  0.00    -0.327 N 
ATOM      8  C   UNL     1       9.160  -9.385   1.036  0.00  0.00    +0.124 C 
ATOM      9  C   UNL     1       8.227  -9.100  -0.141  0.00  0.00    +0.126 C 
BRANCH   7  10
ATOM     10  C   UNL     1      11.566  -8.739   1.041  0.00  0.00    +0.030 A 
ATOM     11  C   UNL     1      11.918 -10.080   1.124  0.00  0.00    +0.026 A 
ATOM     12  C   UNL     1      13.249 -10.447   1.109  0.00  0.00    +0.040 A 
ATOM     13  C   UNL     1      14.234  -9.478   1.010  0.00  0.00    +0.124 A 
ATOM     14  C   UNL     1      13.886  -8.140   0.927  0.00  0.00    +0.040 A 
ATOM     15  C   UNL     1      12.556  -7.770   0.936  0.00  0.00    +0.026 A 
ATOM     16  F   UNL     1      15.536  -9.839   0.996  0.00  0.00    -0.205 F 
ENDBRANCH   7  10
ENDBRANCH   1   2
BRANCH   1  17
ATOM     17  C   UNL     1       4.644  -5.731  -0.057  0.00  0.00    +0.105 C 
BRANCH  17  28
ATOM     18  C   UNL     1      -0.011   1.381   0.104  0.00  0.00    +0.002 A 
ATOM     19  C   UNL     1       1.162   2.122   0.112  0.00  0.00    +0.001 A 
ATOM     20  C   UNL     1       2.378   1.465   0.092  0.00  0.00    +0.017 A 
ATOM     21  C   UNL     1       2.406   0.093   0.066  0.00  0.00    +0.041 A 
ATOM     22  C   UNL     1       1.232  -0.695   0.058  0.00  0.00    +0.080 A 
ATOM     23  C   UNL     1       0.007   0.011   0.078  0.00  0.00    +0.029 A 
ATOM     24  N   UNL     1       1.425  -2.031   0.031  0.00  0.00    -0.225 NA
ATOM     25  C   UNL     1       2.621  -2.572   0.014  0.00  0.00    +0.165 A 
ATOM     26  S   UNL     1       3.687  -1.138   0.035  0.00  0.00    -0.052 S 
ATOM     27  N   UNL     1       2.968  -3.913  -0.013  0.00  0.00    -0.265 N 
ATOM     28  C   UNL     1       4.266  -4.272  -0.028  0.00  0.00    +0.219 C 
ATOM     29  O   UNL     1       5.131  -3.422  -0.017  0.00  0.00    -0.275 OA
ATOM     30  H   UNL     1       2.276  -4.593  -0.022  0.00  0.00    +0.157 HD
ENDBRANCH  17  28
ENDBRANCH   1  17
TORSDOF 4
