REMARK  Name = ZINC59409705
REMARK  14 active torsions:
REMARK  status: ('A' for Active; 'I' for Inactive)
REMARK    1  A    between atoms: C_1  and  C_2
REMARK    2  A    between atoms: C_2  and  C_3
REMARK    3  A    between atoms: C_3  and  C_4
REMARK    4  A    between atoms: C_4  and  C_5
REMARK    5  A    between atoms: C_5  and  C_6
REMARK    6  A    between atoms: C_7  and  C_8
REMARK    7  A    between atoms: C_8  and  C_9
REMARK    8  A    between atoms: C_8  and  C_10
REMARK    9  A    between atoms: C_8  and  O_28
REMARK   10  A    between atoms: C_10  and  N_11
REMARK   11  A    between atoms: N_11  and  CA_12
REMARK   12  A    between atoms: CA_12  and  CB_14
REMARK   13  A    between atoms: CA_12  and  C_25
REMARK   14  A    between atoms: CB_14  and  CG_15
REMARK                            x       y       z     vdW  Elec       q    Type
REMARK                         _______ _______ _______ _____ _____    ______ ____
ROOT
ATOM      1  N   UNL     1      -2.032  -8.686   1.224  0.00  0.00    +0.391 N 
ATOM      2  H1  UNL     1      -2.979  -9.036   1.231  0.00  0.00    -0.085 HD
ATOM      3  H2  UNL     1      -1.560  -9.012   0.394  0.00  0.00    -0.085 HD
ENDROOT
BRANCH   1   4
ATOM      4  C   ACE A   0      -2.052  -7.218   1.232  0.00  0.00    -0.033 C 
BRANCH   4   5
ATOM      5  C   UNL     1      -2.792  -6.711  -0.007  0.00  0.00    +0.109 C 
ATOM      6  C   UNL     1      -4.228  -7.240   0.004  0.00  0.00    +0.053 C 
BRANCH   5   8
ATOM      7  C   UNL     1      -2.828  -4.065   0.007  0.00  0.00    -0.099 C 
ATOM      8  C   UNL     1      -2.812  -5.239   0.001  0.00  0.00    -0.070 C 
BRANCH   7   9
ATOM      9  C   UNL     1      -2.848  -2.593   0.015  0.00  0.00    +0.089 C 
BRANCH   9  10
ATOM     10  C   UNL     1      -1.413  -2.063   0.004  0.00  0.00    +0.013 C 
BRANCH  10  11
ATOM     11  C   UNL     1      -1.433  -0.534   0.013  0.00  0.00    +0.001 C 
BRANCH  11  13
ATOM     12  C   UNL     1      -0.019   1.526   0.010  0.00  0.00    +0.004 C 
ATOM     13  C   UNL     1       0.002  -0.004   0.002  0.00  0.00    -0.003 C 
ENDBRANCH  11  13
ENDBRANCH  10  11
ENDBRANCH   9  10
ENDBRANCH   7   9
ENDBRANCH   5   8
BRANCH   5  14
ATOM     14  O   UNL     1      -2.123  -7.171  -1.183  0.00  0.00    -0.379 OA
ATOM     15  H   UNL     1      -1.206  -6.873  -1.256  0.00  0.00    +0.211 HD
ENDBRANCH   5  14
ENDBRANCH   4   5
ENDBRANCH   1   4
BRANCH   1  16
ATOM     16  CA  UNL     1      -1.322  -9.173   2.414  0.00  0.00    +0.048 C 
BRANCH  16  17
ATOM     17  C   UNL     1       0.124  -8.754   2.342  0.00  0.00    +0.343 C 
ATOM     18  O   UNL     1       0.526  -8.110   1.388  0.00  0.00    -0.248 OA
ATOM     19  OXT UNL     1       0.893  -9.059   3.238  0.00  0.00    -0.248 OA
ENDBRANCH  16  17
BRANCH  16  20
ATOM     20  CB  UNL     1      -1.408 -10.699   2.471  0.00  0.00    +0.032 C 
BRANCH  20  21
ATOM     21  CG  UNL     1      -2.844 -11.114   2.667  0.00  0.00    -0.023 A 
ATOM     22  CD1 UNL     1      -3.444 -11.386   3.836  0.00  0.00    +0.087 A 
ATOM     23  NE1 UNL     1      -4.752 -11.728   3.621  0.00  0.00    -0.360 N 
ATOM     24  HE1 UNL     1      -5.387 -11.967   4.314  0.00  0.00    +0.165 HD
ATOM     25  CE2 UNL     1      -5.032 -11.683   2.273  0.00  0.00    +0.047 A 
ATOM     26  CD2 UNL     1      -3.851 -11.290   1.617  0.00  0.00    +0.003 A 
ATOM     27  CE3 UNL     1      -3.838 -11.153   0.228  0.00  0.00    +0.010 A 
ATOM     28  CZ3 UNL     1      -4.976 -11.398  -0.488  0.00  0.00    +0.001 A 
ATOM     29  CH2 UNL     1      -6.145 -11.782   0.155  0.00  0.00    +0.002 A 
ATOM     30  CZ2 UNL     1      -6.177 -11.932   1.524  0.00  0.00    +0.026 A 
ENDBRANCH  20  21
ENDBRANCH  16  20
ENDBRANCH   1  16
TORSDOF 12
