REMARK  Name = ZINC00641267
REMARK  8 active torsions:
REMARK  status: ('A' for Active; 'I' for Inactive)
REMARK    1  A    between atoms: C_1  and  C_2
REMARK    2  A    between atoms: C_6  and  N_9
REMARK    3  A    between atoms: C_7  and  C_8
REMARK    4  A    between atoms: C_10  and  C_12
REMARK    5  A    between atoms: C_13  and  C_28
REMARK    6  A    between atoms: C_18  and  C_20
REMARK    7  A    between atoms: C_24  and  O_26
REMARK    8  A    between atoms: O_26  and  C_27
REMARK                            x       y       z     vdW  Elec       q    Type
REMARK                         _______ _______ _______ _____ _____    ______ ____
ROOT
ATOM      1  C   UNL     1       0.220  -4.703   4.289  0.00  0.00    +0.056 C 
ATOM      2  C   UNL     1       0.076  -6.027   4.505  0.00  0.00    +0.019 C 
ATOM      3  N   UNL     1       0.011  -6.533   5.772  0.00  0.00    -0.273 N 
ATOM      4  C   UNL     1       0.081  -5.779   6.877  0.00  0.00    +0.304 C 
ATOM      5  O   UNL     1       0.014  -6.320   7.963  0.00  0.00    -0.252 OA
ATOM      6  N   UNL     1       0.225  -4.440   6.823  0.00  0.00    -0.288 N 
ATOM      7  C   UNL     1       0.313  -3.797   5.501  0.00  0.00    +0.142 C 
ATOM      8  C   UNL     1      -0.015  -6.964   3.327  0.00  0.00    +0.061 C 
ATOM      9  H   UNL     1      -0.093  -7.491   5.878  0.00  0.00    +0.156 HD
ATOM     10  H   UNL     1       0.274  -3.913   7.635  0.00  0.00    +0.151 HD
ENDROOT
BRANCH   7  11
ATOM     11  C   UNL     1      -0.798  -2.783   5.409  0.00  0.00    -0.019 A 
ATOM     12  C   UNL     1      -2.101  -3.159   5.681  0.00  0.00    +0.006 A 
ATOM     13  C   UNL     1      -3.122  -2.231   5.598  0.00  0.00    +0.004 A 
ATOM     14  C   UNL     1      -2.844  -0.925   5.241  0.00  0.00    +0.045 A 
ATOM     15  C   UNL     1      -1.538  -0.546   4.968  0.00  0.00    +0.120 A 
ATOM     16  C   UNL     1      -0.514  -1.478   5.058  0.00  0.00    +0.051 A 
BRANCH  15  17
ATOM     17  O   UNL     1      -1.261   0.738   4.617  0.00  0.00    -0.495 OA
ATOM     18  C   UNL     1      -2.364   1.644   4.550  0.00  0.00    +0.277 C 
ENDBRANCH  15  17
ENDBRANCH   7  11
BRANCH   1  20
ATOM     19  N   UNL     1      -0.841  -4.013   2.256  0.00  0.00    -0.281 N 
ATOM     20  C   UNL     1       0.287  -4.178   2.975  0.00  0.00    +0.248 C 
ATOM     21  O   UNL     1       1.365  -3.874   2.496  0.00  0.00    -0.270 OA
ATOM     22  H   UNL     1      -1.705  -4.166   2.669  0.00  0.00    +0.155 HD
BRANCH  19  28
ATOM     23  C   UNL     1      -2.736  -4.060  -2.279  0.00  0.00    +0.044 C 
ATOM     24  C   UNL     1      -1.670  -3.631  -1.304  0.00  0.00    -0.046 A 
ATOM     25  C   UNL     1      -0.614  -2.849  -1.736  0.00  0.00    +0.004 A 
ATOM     26  C   UNL     1       0.367  -2.454  -0.846  0.00  0.00    +0.002 A 
ATOM     27  C   UNL     1       0.295  -2.838   0.479  0.00  0.00    +0.023 A 
ATOM     28  C   UNL     1      -0.765  -3.622   0.916  0.00  0.00    +0.037 A 
ATOM     29  C   UNL     1      -1.751  -4.014   0.020  0.00  0.00    -0.026 A 
ATOM     30  C   UNL     1      -2.905  -4.860   0.491  0.00  0.00    +0.046 C 
ENDBRANCH  19  28
ENDBRANCH   1  20
TORSDOF 4
