REMARK  Name = ZINC39371636
REMARK  6 active torsions:
REMARK  status: ('A' for Active; 'I' for Inactive)
REMARK    1  A    between atoms: C_3  and  C_6
REMARK    2  A    between atoms: N_8  and  C_9
REMARK    3  A    between atoms: C_9  and  C_10
REMARK    4  A    between atoms: N_18  and  C_21
REMARK    5  A    between atoms: C_21  and  C_22
REMARK    6  A    between atoms: C_27  and  C_28
REMARK                            x       y       z     vdW  Elec       q    Type
REMARK                         _______ _______ _______ _____ _____    ______ ____
ROOT
ATOM      1  C   UNL     1       6.146  -2.054  -0.068  0.00  0.00    +0.136 C 
ATOM      2  C   UNL     1       7.694  -2.114  -0.049  0.00  0.00    +0.036 C 
ATOM      3  C   UNL     1       7.927  -3.518   0.575  0.00  0.00    +0.037 C 
ATOM      4  C   UNL     1       6.744  -3.639   1.556  0.00  0.00    +0.067 C 
ATOM      5  O   UNL     1       5.726  -2.725   1.131  0.00  0.00    -0.369 OA
ATOM      6  C   UNL     1       6.205  -5.069   1.532  0.00  0.00    +0.016 C 
ATOM      7  C   UNL     1       5.088  -5.205   2.570  0.00  0.00    -0.076 C 
ATOM      8  N   UNL     1       5.615  -4.890   3.904  0.00  0.00    +0.380 N 
ATOM      9  C   UNL     1       6.056  -3.491   3.949  0.00  0.00    -0.076 C 
ATOM     10  C   UNL     1       7.212  -3.285   2.968  0.00  0.00    +0.016 C 
ATOM     11  H   UNL     1       6.397  -5.495   4.107  0.00  0.00    -0.082 HD
ENDROOT
BRANCH   1  12
ATOM     12  C   UNL     1       5.671  -0.599  -0.056  0.00  0.00    +0.136 C 
BRANCH  12  15
ATOM     13  C   UNL     1       3.561   0.619  -0.029  0.00  0.00    +0.279 C 
ATOM     14  O   UNL     1       4.195   1.658  -0.030  0.00  0.00    -0.267 OA
ATOM     15  N   UNL     1       4.206  -0.564  -0.042  0.00  0.00    -0.306 N 
ATOM     16  H   UNL     1       3.701  -1.392  -0.041  0.00  0.00    +0.149 HD
BRANCH  13  19
ATOM     17  C   UNL     1      -0.016   1.347   0.009  0.00  0.00    +0.042 A 
ATOM     18  C   UNL     1       1.319   1.778  -0.001  0.00  0.00    +0.054 A 
ATOM     19  C   UNL     1       2.095   0.654  -0.014  0.00  0.00    +0.189 A 
ATOM     20  O   UNL     1       1.276  -0.418  -0.012  0.00  0.00    -0.458 OA
ATOM     21  C   UNL     1       0.002  -0.004   0.002  0.00  0.00    +0.196 A 
ENDBRANCH  13  19
ENDBRANCH  12  15
ENDBRANCH   1  12
BRANCH   8  22
ATOM     22  C   UNL     1       4.563  -5.103   4.907  0.00  0.00    -0.063 C 
BRANCH  22  23
ATOM     23  C   UNL     1       5.143  -4.896   6.307  0.00  0.00    +0.066 C 
ATOM     24  C   UNL     1       6.123  -6.001   6.647  0.00  0.00    +0.115 C 
ATOM     25  N   UNL     1       5.637  -6.605   7.683  0.00  0.00    -0.161 NA
ATOM     26  N   UNL     1       4.433  -6.053   8.105  0.00  0.00    -0.153 NA
ATOM     27  C   UNL     1       4.063  -5.042   7.360  0.00  0.00    +0.077 C 
BRANCH  27  28
ATOM     28  C   UNL     1       2.853  -4.220   7.511  0.00  0.00    -0.001 A 
ATOM     29  C   UNL     1       2.599  -3.172   6.619  0.00  0.00    +0.011 A 
ATOM     30  C   UNL     1       1.463  -2.406   6.766  0.00  0.00    +0.020 A 
ATOM     31  C   UNL     1       0.573  -2.671   7.793  0.00  0.00    +0.041 A 
ATOM     32  C   UNL     1       0.817  -3.707   8.681  0.00  0.00    +0.020 A 
ATOM     33  C   UNL     1       1.946  -4.485   8.543  0.00  0.00    +0.011 A 
ATOM     34 CL   UNL     1      -0.856  -1.701   7.971  0.00  0.00    -0.084 Cl
ENDBRANCH  27  28
ENDBRANCH  22  23
ENDBRANCH   8  22
TORSDOF 6
