REMARK  Name = ZINC21927431
REMARK  11 active torsions:
REMARK  status: ('A' for Active; 'I' for Inactive)
REMARK    1  A    between atoms: C_1  and  C_2
REMARK    2  A    between atoms: C_4  and  C_31
REMARK    3  A    between atoms: C_6  and  C_30
REMARK    4  A    between atoms: C_7  and  C_8
REMARK    5  A    between atoms: C_8  and  C_9
REMARK    6  A    between atoms: C_9  and  N_10
REMARK    7  A    between atoms: C_11  and  C_13
REMARK    8  A    between atoms: C_13  and  N_14
REMARK    9  A    between atoms: C_31  and  C_32
REMARK   10  A    between atoms: C_31  and  C_33
REMARK   11  A    between atoms: C_31  and  C_34
REMARK                            x       y       z     vdW  Elec       q    Type
REMARK                         _______ _______ _______ _____ _____    ______ ____
ROOT
ATOM      1  N   UNL     1      -0.011   0.966   0.007  0.00  0.00    -0.314 N 
ATOM      2  C   UNL     1       1.147   1.655   0.000  0.00  0.00    +0.231 C 
ATOM      3  O   UNL     1       1.130   2.868   0.007  0.00  0.00    -0.274 OA
ATOM      4  H   UNL     1       0.004  -0.134   0.006  0.00  0.00    +0.149 HD
ENDROOT
BRANCH   1   5
ATOM      5  C   UNL     1      -1.290   1.681   0.017  0.00  0.00    +0.109 C 
BRANCH   5   6
ATOM      6  C   UNL     1      -2.439   0.671   0.017  0.00  0.00    +0.054 C 
BRANCH   6  13
ATOM      7  C   UNL     1      -3.694   1.352   2.529  0.00  0.00    +0.044 C 
ATOM      8  C   UNL     1      -4.354   1.733   1.229  0.00  0.00    -0.047 A 
ATOM      9  C   UNL     1      -5.558   2.412   1.239  0.00  0.00    +0.007 A 
ATOM     10  C   UNL     1      -6.167   2.756   0.046  0.00  0.00    -0.041 A 
ATOM     11  C   UNL     1      -5.570   2.425  -1.155  0.00  0.00    +0.007 A 
ATOM     12  C   UNL     1      -4.363   1.751  -1.165  0.00  0.00    -0.047 A 
ATOM     13  C   UNL     1      -3.754   1.407   0.028  0.00  0.00    -0.040 A 
ATOM     14  C   UNL     1      -3.712   1.390  -2.475  0.00  0.00    +0.044 C 
BRANCH  10  15
ATOM     15  C   UNL     1      -7.483   3.491   0.057  0.00  0.00    -0.013 C 
ATOM     16  C   UNL     1      -8.541   2.653  -0.664  0.00  0.00    +0.015 C 
ATOM     17  C   UNL     1      -7.921   3.732   1.502  0.00  0.00    +0.015 C 
ATOM     18  C   UNL     1      -7.322   4.834  -0.658  0.00  0.00    +0.015 C 
ENDBRANCH  10  15
ENDBRANCH   6  13
ENDBRANCH   5   6
ENDBRANCH   1   5
BRANCH   2  19
ATOM     19  C   UNL     1       2.462   0.920  -0.017  0.00  0.00    +0.213 C 
BRANCH  19  20
ATOM     20  N   UNL     1       3.562   1.887  -0.022  0.00  0.00    -0.215 N 
ATOM     21  C   UNL     1       4.125   2.389  -1.140  0.00  0.00    +0.251 C 
ATOM     22  O   UNL     1       3.827   2.136  -2.288  0.00  0.00    -0.272 OA
ATOM     23  C   UNL     1       5.202   3.337  -0.662  0.00  0.00    +0.138 C 
ATOM     24  C   UNL     1       6.566   2.868  -1.153  0.00  0.00    +0.040 C 
ATOM     25  C   UNL     1       7.603   3.946  -0.812  0.00  0.00    +0.008 C 
ATOM     26  C   UNL     1       7.332   5.170  -1.683  0.00  0.00    +0.035 C 
ATOM     27  C   UNL     1       5.888   5.587  -1.580  0.00  0.00    -0.042 A 
ATOM     28  C   UNL     1       4.906   4.738  -1.115  0.00  0.00    -0.012 A 
ATOM     29  C   UNL     1       3.590   5.178  -1.056  0.00  0.00    +0.006 A 
ATOM     30  C   UNL     1       3.259   6.457  -1.454  0.00  0.00    +0.000 A 
ATOM     31  C   UNL     1       4.245   7.309  -1.917  0.00  0.00    +0.000 A 
ATOM     32  C   UNL     1       5.553   6.873  -1.979  0.00  0.00    +0.004 A 
ATOM     33  N   UNL     1       5.127   3.248   0.803  0.00  0.00    -0.281 N 
ATOM     34  C   UNL     1       4.138   2.377   1.083  0.00  0.00    +0.310 C 
ATOM     35  O   UNL     1       3.807   2.071   2.211  0.00  0.00    -0.252 OA
ATOM     36  H   UNL     1       5.813   3.840   1.426  0.00  0.00    +0.152 HD
ENDBRANCH  19  20
ENDBRANCH   2  19
TORSDOF 6
