REMARK  Name = ZINC16436006
REMARK  20 active torsions:
REMARK  status: ('A' for Active; 'I' for Inactive)
REMARK    1  A    between atoms: C_1  and  C_2
REMARK    2  A    between atoms: C_2  and  C_3
REMARK    3  A    between atoms: C_3  and  C_4
REMARK    4  A    between atoms: C_4  and  C_5
REMARK    5  A    between atoms: C_8  and  C_11
REMARK    6  A    between atoms: N_13  and  C_14
REMARK    7  A    between atoms: N_13  and  C_19
REMARK    8  A    between atoms: C_14  and  C_15
REMARK    9  A    between atoms: C_15  and  C_16
REMARK   10  A    between atoms: C_16  and  O_17
REMARK   11  A    between atoms: O_17  and  C_18
REMARK   12  A    between atoms: C_19  and  C_20
REMARK   13  A    between atoms: N_22  and  C_23
REMARK   14  A    between atoms: C_25  and  C_36
REMARK   15  A    between atoms: N_27  and  C_28
REMARK   16  A    between atoms: C_31  and  C_35
REMARK   17  A    between atoms: C_33  and  C_34
REMARK   18  A    between atoms: C_36  and  C_37
REMARK   19  A    between atoms: C_36  and  C_38
REMARK   20  A    between atoms: C_36  and  C_39
REMARK                            x       y       z     vdW  Elec       q    Type
REMARK                         _______ _______ _______ _____ _____    ______ ____
ROOT
ATOM      1  C   UNL     1      -0.382   2.086   0.744  0.00  0.00    +0.236 C 
ATOM      2  O   UNL     1      -0.086   0.925   0.935  0.00  0.00    -0.274 OA
ATOM      3  N   UNL     1       0.584   3.023   0.669  0.00  0.00    -0.269 N 
ATOM      4  H   UNL     1       0.348   3.952   0.516  0.00  0.00    +0.156 HD
ENDROOT
BRANCH   3   5
ATOM      5  C   UNL     1       1.922   2.659   0.810  0.00  0.00    +0.129 A 
ATOM      6  C   UNL     1       2.390   1.424   1.142  0.00  0.00    +0.069 A 
ATOM      7  C   UNL     1       3.786   1.489   1.174  0.00  0.00    +0.071 A 
ATOM      8  N   UNL     1       4.152   2.711   0.883  0.00  0.00    -0.169 NA
ATOM      9  N   UNL     1       3.000   3.474   0.648  0.00  0.00    -0.218 N 
BRANCH   9  10
ATOM     10  C   UNL     1       2.965   4.833   0.308  0.00  0.00    +0.070 A 
ATOM     11  C   UNL     1       2.185   5.263  -0.757  0.00  0.00    +0.028 A 
ATOM     12  C   UNL     1       2.149   6.604  -1.087  0.00  0.00    +0.005 A 
ATOM     13  C   UNL     1       2.895   7.516  -0.364  0.00  0.00    -0.050 A 
ATOM     14  C   UNL     1       3.676   7.090   0.694  0.00  0.00    +0.008 A 
ATOM     15  C   UNL     1       3.713   5.751   1.032  0.00  0.00    -0.025 A 
ATOM     16  C   UNL     1       4.565   5.287   2.186  0.00  0.00    +0.046 C 
ATOM     17  C   UNL     1       2.858   8.977  -0.730  0.00  0.00    +0.044 C 
ENDBRANCH   9  10
BRANCH   7  18
ATOM     18  C   UNL     1       4.713   0.345   1.496  0.00  0.00    +0.006 C 
ATOM     19  C   UNL     1       4.785  -0.605   0.299  0.00  0.00    +0.017 C 
ATOM     20  C   UNL     1       6.110   0.891   1.798  0.00  0.00    +0.017 C 
ATOM     21  C   UNL     1       4.186  -0.411   2.716  0.00  0.00    +0.017 C 
ENDBRANCH   7  18
ENDBRANCH   3   5
BRANCH   1  22
ATOM     22  C   UNL     1      -1.828   2.479   0.585  0.00  0.00    +0.204 C 
BRANCH  22  25
ATOM     23  C   UNL     1      -3.156   0.694  -0.409  0.00  0.00    +0.247 C 
ATOM     24  O   UNL     1      -3.883  -0.275  -0.312  0.00  0.00    -0.270 OA
ATOM     25  N   UNL     1      -2.673   1.288   0.701  0.00  0.00    -0.289 N 
BRANCH  23  29
ATOM     26  C   UNL     1      -2.139   2.212  -4.244  0.00  0.00    -0.047 A 
ATOM     27  C   UNL     1      -3.289   1.460  -4.083  0.00  0.00    +0.004 A 
ATOM     28  C   UNL     1      -3.625   0.964  -2.841  0.00  0.00    +0.013 A 
ATOM     29  C   UNL     1      -2.802   1.222  -1.744  0.00  0.00    +0.037 A 
ATOM     30  C   UNL     1      -1.646   1.986  -1.911  0.00  0.00    +0.013 A 
ATOM     31  C   UNL     1      -1.318   2.471  -3.160  0.00  0.00    +0.004 A 
BRANCH  26  32
ATOM     32  C   UNL     1      -1.778   2.749  -5.604  0.00  0.00    +0.035 C 
BRANCH  32  33
ATOM     33  C   UNL     1      -2.403   4.134  -5.788  0.00  0.00    +0.004 C 
BRANCH  33  35
ATOM     34  C   UNL     1      -2.661   6.064  -7.353  0.00  0.00    +0.004 C 
ATOM     35  C   UNL     1      -2.036   4.680  -7.169  0.00  0.00    -0.003 C 
ENDBRANCH  33  35
ENDBRANCH  32  33
ENDBRANCH  26  32
ENDBRANCH  23  29
BRANCH  25  36
ATOM     36  C   UNL     1      -2.993   0.742   2.022  0.00  0.00    +0.111 C 
BRANCH  36  37
ATOM     37  C   UNL     1      -4.337   1.303   2.493  0.00  0.00    +0.047 C 
BRANCH  37  38
ATOM     38  C   UNL     1      -4.671   0.733   3.873  0.00  0.00    +0.161 C 
BRANCH  38  39
ATOM     39  O   UNL     1      -5.926   1.256   4.313  0.00  0.00    -0.383 OA
ATOM     40  C   UNL     1      -6.333   0.784   5.599  0.00  0.00    +0.193 C 
ENDBRANCH  38  39
ENDBRANCH  37  38
ENDBRANCH  36  37
ENDBRANCH  25  36
ENDBRANCH  22  25
ENDBRANCH   1  22
TORSDOF 13
