REMARK  Name = ZINC23951796
REMARK  8 active torsions:
REMARK  status: ('A' for Active; 'I' for Inactive)
REMARK    1  A    between atoms: C_4  and  C_7
REMARK    2  A    between atoms: C_7  and  N_8
REMARK    3  A    between atoms: C_9  and  C_28
REMARK    4  A    between atoms: C_12  and  S_13
REMARK    5  A    between atoms: S_13  and  C_14
REMARK    6  A    between atoms: C_14  and  C_15
REMARK    7  A    between atoms: C_15  and  N_17
REMARK    8  A    between atoms: C_28  and  N_29
REMARK                            x       y       z     vdW  Elec       q    Type
REMARK                         _______ _______ _______ _____ _____    ______ ____
ROOT
ATOM      1  N   UNL     1       4.152  -0.952   1.338  0.00  0.00    -0.303 N 
ATOM      2  C   UNL     1       4.928  -0.137   2.114  0.00  0.00    +0.118 A 
ATOM      3  N   UNL     1       5.082  -0.728   3.265  0.00  0.00    -0.135 NA
ATOM      4  N   UNL     1       4.461  -1.854   3.269  0.00  0.00    -0.123 NA
ATOM      5  C   UNL     1       3.868  -2.040   2.113  0.00  0.00    +0.192 A 
ENDROOT
BRANCH   1   6
ATOM      6  C   UNL     1       3.711  -0.707  -0.038  0.00  0.00    +0.160 C 
BRANCH   6  10
ATOM      7  C   UNL     1      -0.017   1.378   0.010  0.00  0.00    +0.000 A 
ATOM      8  C   UNL     1       1.171   2.086   0.002  0.00  0.00    +0.000 A 
ATOM      9  C   UNL     1       2.377   1.411  -0.013  0.00  0.00    +0.005 A 
ATOM     10  C   UNL     1       2.396   0.029  -0.020  0.00  0.00    -0.028 A 
ATOM     11  C   UNL     1       1.208  -0.679  -0.012  0.00  0.00    +0.005 A 
ATOM     12  C   UNL     1       0.002  -0.004   0.002  0.00  0.00    +0.000 A 
ENDBRANCH   6  10
ENDBRANCH   1   6
BRANCH   5  13
ATOM     13  S   UNL     1       2.893  -3.432   1.648  0.00  0.00    -0.077 S 
BRANCH  13  14
ATOM     14  C   UNL     1       2.916  -4.494   3.118  0.00  0.00    +0.175 C 
BRANCH  14  15
ATOM     15  C   UNL     1       2.107  -5.738   2.852  0.00  0.00    +0.249 C 
ATOM     16  O   UNL     1       1.567  -5.893   1.773  0.00  0.00    -0.273 OA
BRANCH  15  17
ATOM     17  N   UNL     1       1.984  -6.665   3.796  0.00  0.00    -0.156 NA
ATOM     18  C   UNL     1       1.270  -7.764   3.560  0.00  0.00    +0.164 A 
ATOM     19  N   UNL     1       1.036  -8.801   4.404  0.00  0.00    -0.335 N 
ATOM     20  C   UNL     1       0.264  -9.868   3.984  0.00  0.00    +0.055 A 
ATOM     21  C   UNL     1      -0.098 -11.028   4.683  0.00  0.00    +0.029 A 
ATOM     22  C   UNL     1      -0.883 -11.989   4.088  0.00  0.00    +0.040 A 
ATOM     23  C   UNL     1      -1.337 -11.839   2.787  0.00  0.00    +0.125 A 
ATOM     24  C   UNL     1      -0.993 -10.701   2.075  0.00  0.00    +0.055 A 
ATOM     25  C   UNL     1      -0.209  -9.742   2.670  0.00  0.00    +0.041 A 
ATOM     26  S   UNL     1       0.447  -8.177   2.154  0.00  0.00    -0.052 S 
ATOM     27  F   UNL     1      -2.107 -12.794   2.218  0.00  0.00    -0.205 F 
ATOM     28  H   UNL     1       1.411  -8.794   5.298  0.00  0.00    +0.168 HD
ENDBRANCH  15  17
ENDBRANCH  14  15
ENDBRANCH  13  14
ENDBRANCH   5  13
BRANCH   2  29
ATOM     29  C   UNL     1       5.499   1.199   1.713  0.00  0.00    -0.001 C 
BRANCH  29  30
ATOM     30  N   UNL     1       4.547   2.263   2.058  0.00  0.00    +0.384 N 
ATOM     31  C   UNL     1       4.446   2.401   3.534  0.00  0.00    -0.078 C 
ATOM     32  C   UNL     1       3.904   3.840   3.719  0.00  0.00    -0.020 C 
ATOM     33  C   UNL     1       4.625   4.628   2.601  0.00  0.00    -0.020 C 
ATOM     34  C   UNL     1       5.038   3.567   1.564  0.00  0.00    -0.078 C 
ATOM     35  H   UNL     1       3.640   2.060   1.664  0.00  0.00    -0.081 HD
ENDBRANCH  29  30
ENDBRANCH   2  29
TORSDOF 8
