REMARK  Name = ZINC11867163
REMARK  8 active torsions:
REMARK  status: ('A' for Active; 'I' for Inactive)
REMARK    1  A    between atoms: C_1  and  C_2
REMARK    2  A    between atoms: C_6  and  O_29
REMARK    3  A    between atoms: C_12  and  C_13
REMARK    4  A    between atoms: C_13  and  C_14
REMARK    5  A    between atoms: C_14  and  C_15
REMARK    6  A    between atoms: C_20  and  O_28
REMARK    7  A    between atoms: O_29  and  C_30
REMARK    8  A    between atoms: C_30  and  C_31
REMARK                            x       y       z     vdW  Elec       q    Type
REMARK                         _______ _______ _______ _____ _____    ______ ____
ROOT
ATOM      1  C   UNL     1       2.637  -0.742  -6.232  0.00  0.00    +0.045 C 
ATOM      2  C   UNL     1       1.399   0.109  -6.120  0.00  0.00    -0.030 A 
ATOM      3  C   UNL     1       0.858   0.482  -4.811  0.00  0.00    +0.021 A 
ATOM      4  C   UNL     1       1.477   0.059  -3.629  0.00  0.00    +0.015 A 
ATOM      5  C   UNL     1       0.956   0.424  -2.422  0.00  0.00    +0.046 A 
ATOM      6  C   UNL     1      -0.195   1.208  -2.358  0.00  0.00    +0.125 A 
ATOM      7  C   UNL     1      -0.820   1.636  -3.518  0.00  0.00    +0.092 A 
ATOM      8  C   UNL     1      -0.301   1.278  -4.753  0.00  0.00    +0.143 A 
ATOM      9  O   UNL     1      -0.894   1.685  -5.895  0.00  0.00    -0.422 OA
ATOM     10  C   UNL     1      -0.404   1.347  -7.098  0.00  0.00    +0.341 A 
ATOM     11  O   UNL     1      -0.974   1.737  -8.102  0.00  0.00    -0.245 OA
ATOM     12  C   UNL     1       0.753   0.551  -7.230  0.00  0.00    +0.041 A 
ENDROOT
BRANCH  12  13
ATOM     13  C   UNL     1       1.271   0.193  -8.599  0.00  0.00    +0.052 C 
BRANCH  13  14
ATOM     14  C   UNL     1       0.630  -1.117  -9.060  0.00  0.00    +0.101 C 
BRANCH  14  15
ATOM     15  C   UNL     1       1.149  -1.475 -10.429  0.00  0.00    +0.216 C 
ATOM     16  O   UNL     1       1.952  -0.754 -10.981  0.00  0.00    -0.276 OA
ATOM     17  N   UNL     1       0.719  -2.597 -11.040  0.00  0.00    -0.301 N 
ATOM     18  C   UNL     1      -0.249  -3.485 -10.382  0.00  0.00    +0.110 C 
ATOM     19  C   UNL     1       0.316  -4.904 -10.354  0.00  0.00    +0.054 C 
ATOM     20  C   UNL     1       0.690  -5.331 -11.776  0.00  0.00    +0.072 C 
ATOM     21  C   UNL     1       1.240  -6.759 -11.745  0.00  0.00    +0.035 C 
ATOM     22  C   UNL     1       2.471  -6.809 -10.837  0.00  0.00    +0.003 C 
ATOM     23  C   UNL     1       3.544  -5.862 -11.377  0.00  0.00    +0.001 C 
ATOM     24  C   UNL     1       2.994  -4.435 -11.417  0.00  0.00    +0.008 C 
ATOM     25  C   UNL     1       1.764  -4.389 -12.326  0.00  0.00    +0.038 C 
ATOM     26  C   UNL     1       1.215  -2.961 -12.374  0.00  0.00    +0.114 C 
BRANCH  20  27
ATOM     27  O   UNL     1      -0.465  -5.281 -12.616  0.00  0.00    -0.388 OA
ATOM     28  H   UNL     1      -1.187  -5.855 -12.326  0.00  0.00    +0.210 HD
ENDBRANCH  20  27
ENDBRANCH  14  15
ENDBRANCH  13  14
ENDBRANCH  12  13
BRANCH   6  29
ATOM     29  O   UNL     1      -0.704   1.559  -1.150  0.00  0.00    -0.487 OA
BRANCH  29  30
ATOM     30  C   UNL     1      -0.013   1.086   0.008  0.00  0.00    +0.266 C 
BRANCH  30  31
ATOM     31  C   UNL     1      -0.718   1.572   1.248  0.00  0.00    +0.011 A 
ATOM     32  C   UNL     1      -1.854   2.352   1.136  0.00  0.00    +0.008 A 
ATOM     33  C   UNL     1      -2.502   2.799   2.272  0.00  0.00    +0.003 A 
ATOM     34  C   UNL     1      -2.015   2.466   3.523  0.00  0.00    +0.040 A 
ATOM     35  C   UNL     1      -0.878   1.685   3.637  0.00  0.00    +0.142 A 
ATOM     36  C   UNL     1      -0.232   1.233   2.497  0.00  0.00    +0.082 A 
ATOM     37 CL   UNL     1       1.190   0.247   2.638  0.00  0.00    -0.080 Cl
ATOM     38  F   UNL     1      -0.402   1.359   4.859  0.00  0.00    -0.204 F 
ENDBRANCH  30  31
ENDBRANCH  29  30
ENDBRANCH   6  29
TORSDOF 7
