REMARK  Name = ZINC09828930
REMARK  7 active torsions:
REMARK  status: ('A' for Active; 'I' for Inactive)
REMARK    1  A    between atoms: C_5  and  N_7
REMARK    2  A    between atoms: C_12  and  C_14
REMARK    3  A    between atoms: C_12  and  C_28
REMARK    4  A    between atoms: C_12  and  N_56
REMARK    5  A    between atoms: C_14  and  N_15
REMARK    6  A    between atoms: C_16  and  C_18
REMARK    7  A    between atoms: C_21  and  C_24
REMARK                            x       y       z     vdW  Elec       q    Type
REMARK                         _______ _______ _______ _____ _____    ______ ____
ROOT
ATOM      1  C   UNL     1       3.794   6.123  -0.043  0.00  0.00    +0.017 C 
ENDROOT
BRANCH   1   7
ATOM      2  N   UNL     1       6.198   3.837  -2.659  0.00  0.00    -0.331 N 
ATOM      3  C   UNL     1       6.460   5.280  -2.567  0.00  0.00    +0.086 C 
ATOM      4  C   UNL     1       5.862   5.822  -1.266  0.00  0.00    -0.059 C 
ATOM      5  C   UNL     1       4.157   4.107  -1.334  0.00  0.00    -0.059 C 
ATOM      6  C   UNL     1       4.754   3.564  -2.635  0.00  0.00    +0.086 C 
ATOM      7  N   UNL     1       4.407   5.561  -1.265  0.00  0.00    +0.389 N 
ATOM      8  H   UNL     1       3.987   6.012  -2.087  0.00  0.00    -0.081 HD
BRANCH   2  13
ATOM      9  C   UNL     1       8.752   2.832  -5.105  0.00  0.00    +0.002 A 
ATOM     10  C   UNL     1       7.969   2.213  -6.062  0.00  0.00    +0.003 A 
ATOM     11  C   UNL     1       6.599   2.131  -5.894  0.00  0.00    +0.040 A 
ATOM     12  C   UNL     1       6.007   2.669  -4.765  0.00  0.00    +0.144 A 
ATOM     13  C   UNL     1       6.792   3.291  -3.801  0.00  0.00    +0.065 A 
ATOM     14  C   UNL     1       8.167   3.375  -3.977  0.00  0.00    +0.026 A 
ATOM     15  F   UNL     1       4.669   2.590  -4.601  0.00  0.00    -0.204 F 
ENDBRANCH   2  13
ENDBRANCH   1   7
BRANCH   1  16
ATOM     16  C   UNL     1       4.059   7.606   0.002  0.00  0.00    +0.093 A 
ATOM     17  C   UNL     1       4.352   8.320   1.103  0.00  0.00    +0.043 A 
ATOM     18  C   UNL     1       4.524   9.661   0.689  0.00  0.00    +0.041 A 
ATOM     19  C   UNL     1       4.317   9.687  -0.640  0.00  0.00    +0.195 A 
ATOM     20  O   UNL     1       4.035   8.439  -1.051  0.00  0.00    -0.469 OA
ENDBRANCH   1  16
BRANCH   1  21
ATOM     21  C   UNL     1       2.285   5.875  -0.085  0.00  0.00    +0.097 C 
BRANCH  21  22
ATOM     22  N   UNL     1       1.741   6.387  -1.345  0.00  0.00    -0.312 N 
ATOM     23  C   UNL     1       0.411   6.372  -1.561  0.00  0.00    +0.244 C 
ATOM     24  O   UNL     1      -0.338   5.934  -0.710  0.00  0.00    -0.270 OA
ATOM     25  H   UNL     1       2.339   6.737  -2.025  0.00  0.00    +0.149 HD
BRANCH  23  26
ATOM     26  C   UNL     1      -0.138   6.889  -2.833  0.00  0.00    +0.037 A 
ATOM     27  C   UNL     1      -1.515   6.875  -3.059  0.00  0.00    +0.013 A 
ATOM     28  C   UNL     1      -2.021   7.359  -4.248  0.00  0.00    +0.013 A 
ATOM     29  C   UNL     1      -1.165   7.857  -5.215  0.00  0.00    +0.055 A 
ATOM     30  C   UNL     1       0.201   7.874  -4.997  0.00  0.00    +0.013 A 
ATOM     31  C   UNL     1       0.719   7.393  -3.812  0.00  0.00    +0.013 A 
BRANCH  29  32
ATOM     32  C   UNL     1      -1.725   8.384  -6.511  0.00  0.00    +0.417 C 
ATOM     33  F   UNL     1      -1.998   9.750  -6.381  0.00  0.00    -0.166 F 
ATOM     34  F   UNL     1      -0.791   8.191  -7.535  0.00  0.00    -0.166 F 
ATOM     35  F   UNL     1      -2.905   7.700  -6.822  0.00  0.00    -0.166 F 
ENDBRANCH  29  32
ENDBRANCH  23  26
ENDBRANCH  21  22
ENDBRANCH   1  21
TORSDOF 7
