REMARK  Name = ZINC36773349
REMARK  10 active torsions:
REMARK  status: ('A' for Active; 'I' for Inactive)
REMARK    1  A    between atoms: C_1  and  N_2
REMARK    2  A    between atoms: C_3  and  N_31
REMARK    3  A    between atoms: C_4  and  C_11
REMARK    4  A    between atoms: N_7  and  C_10
REMARK    5  A    between atoms: C_11  and  C_13
REMARK    6  A    between atoms: C_13  and  S_14
REMARK    7  A    between atoms: S_14  and  C_15
REMARK    8  A    between atoms: N_20  and  C_21
REMARK    9  A    between atoms: C_24  and  S_27
REMARK   10  A    between atoms: S_27  and  C_28
REMARK                            x       y       z     vdW  Elec       q    Type
REMARK                         _______ _______ _______ _____ _____    ______ ____
ROOT
ATOM      1  S   UNL     1      -4.648  -4.344   0.119  0.00  0.00    -0.089 S 
ENDROOT
BRANCH   1   2
ATOM      2  C   UNL     1      -4.734  -6.100   0.238  0.00  0.00    +0.160 A 
ATOM      3  N   UNL     1      -3.755  -6.982   0.315  0.00  0.00    -0.133 NA
ATOM      4  N   UNL     1      -4.048  -8.323   0.402  0.00  0.00    -0.125 NA
ATOM      5  C   UNL     1      -5.306  -8.721   0.408  0.00  0.00    +0.187 A 
ATOM      6  S   UNL     1      -6.169  -7.162   0.295  0.00  0.00    -0.024 S 
ATOM      7  N   UNL     1      -5.821 -10.010   0.488  0.00  0.00    -0.292 N 
ATOM      8  H   UNL     1      -6.776 -10.157   0.397  0.00  0.00    +0.154 HD
BRANCH   7   9
ATOM      9  C   UNL     1      -4.963 -11.095   0.698  0.00  0.00    +0.033 A 
ATOM     10  C   UNL     1      -5.332 -12.365   0.273  0.00  0.00    +0.024 A 
ATOM     11  C   UNL     1      -4.485 -13.436   0.480  0.00  0.00    +0.017 A 
ATOM     12  C   UNL     1      -3.264 -13.243   1.114  0.00  0.00    +0.013 A 
ATOM     13  C   UNL     1      -2.895 -11.973   1.539  0.00  0.00    +0.017 A 
ATOM     14  C   UNL     1      -3.739 -10.902   1.327  0.00  0.00    +0.024 A 
BRANCH  12  15
ATOM     15  S   UNL     1      -2.184 -14.610   1.379  0.00  0.00    -0.056 S 
BRANCH  15  16
ATOM     16  C   UNL     1      -0.751 -13.880   2.219  0.00  0.00    +0.404 C 
ATOM     17  F   UNL     1      -0.176 -12.905   1.397  0.00  0.00    -0.197 F 
ATOM     18  F   UNL     1      -1.164 -13.293   3.420  0.00  0.00    -0.197 F 
ENDBRANCH  15  16
ENDBRANCH  12  15
ENDBRANCH   7   9
ENDBRANCH   1   2
BRANCH   1  19
ATOM     19  C   UNL     1      -2.868  -3.991   0.114  0.00  0.00    +0.156 C 
BRANCH  19  20
ATOM     20  C   UNL     1      -2.652  -2.503   0.015  0.00  0.00    +0.182 C 
ATOM     21  O   UNL     1      -3.605  -1.753  -0.047  0.00  0.00    -0.291 OA
BRANCH  20  25
ATOM     22  C   UNL     1       0.424   1.306   0.036  0.00  0.00    +0.155 C 
ATOM     23  N   UNL     1       0.175  -0.137   0.004  0.00  0.00    -0.284 N 
ATOM     24  C   UNL     1      -1.111  -0.595   0.026  0.00  0.00    +0.116 A 
ATOM     25  C   UNL     1      -1.341  -1.981  -0.006  0.00  0.00    +0.120 A 
ATOM     26  C   UNL     1      -0.172  -2.869  -0.062  0.00  0.00    +0.269 A 
ATOM     27  O   UNL     1      -0.311  -4.077  -0.091  0.00  0.00    -0.267 OA
ATOM     28  N   UNL     1       1.059  -2.316  -0.079  0.00  0.00    -0.263 N 
ATOM     29  C   UNL     1       1.216  -0.983  -0.052  0.00  0.00    +0.333 A 
ATOM     30  O   UNL     1       2.341  -0.525  -0.074  0.00  0.00    -0.246 OA
ATOM     31  C   UNL     1       2.239  -3.182  -0.135  0.00  0.00    +0.157 C 
BRANCH  24  32
ATOM     32  N   UNL     1      -2.155   0.278   0.078  0.00  0.00    -0.344 N 
ATOM     33  H   UNL     1      -1.988   1.228   0.181  0.00  0.00    +0.144 HD
ATOM     34  H   UNL     1      -3.065  -0.051   0.012  0.00  0.00    +0.144 HD
ENDBRANCH  24  32
ENDBRANCH  20  25
ENDBRANCH  19  20
ENDBRANCH   1  19
TORSDOF 8
