REMARK  Name = ZINC07936491
REMARK  15 active torsions:
REMARK  status: ('A' for Active; 'I' for Inactive)
REMARK    1  A    between atoms: C_1  and  C_2
REMARK    2  A    between atoms: C_2  and  C_4
REMARK    3  A    between atoms: C_2  and  S_11
REMARK    4  A    between atoms: N_6  and  C_7
REMARK    5  A    between atoms: C_7  and  C_8
REMARK    6  A    between atoms: C_7  and  C_9
REMARK    7  A    between atoms: C_7  and  C_10
REMARK    8  A    between atoms: S_11  and  C_12
REMARK    9  A    between atoms: C_15  and  C_18
REMARK   10  A    between atoms: N_16  and  N_17
REMARK   11  A    between atoms: C_18  and  O_19
REMARK   12  A    between atoms: O_19  and  C_20
REMARK   13  A    between atoms: C_23  and  C_26
REMARK   14  A    between atoms: C_26  and  C_27
REMARK   15  A    between atoms: C_26  and  C_28
REMARK                            x       y       z     vdW  Elec       q    Type
REMARK                         _______ _______ _______ _____ _____    ______ ____
ROOT
ATOM      1  C   UNL     1      -2.335  -0.110   1.573  0.00  0.00    +0.209 A 
ATOM      2  N   UNL     1      -1.692   0.581   2.486  0.00  0.00    -0.121 NA
ATOM      3  N   UNL     1      -2.458   0.785   3.498  0.00  0.00    -0.128 NA
ATOM      4  C   UNL     1      -3.625   0.243   3.293  0.00  0.00    +0.189 A 
ATOM      5  N   UNL     1      -3.590  -0.342   2.057  0.00  0.00    -0.225 N 
ENDROOT
BRANCH   5   6
ATOM      6  N   UNL     1      -4.601  -1.021   1.437  0.00  0.00    -0.295 N 
ATOM      7  H   UNL     1      -4.569  -2.003   1.665  0.00  0.00    +0.163 HD
ATOM      8  H   UNL     1      -5.499  -0.624   1.671  0.00  0.00    +0.163 HD
ENDBRANCH   5   6
BRANCH   1   9
ATOM      9  S   UNL     1      -1.700  -0.632   0.015  0.00  0.00    -0.072 S 
BRANCH   9  11
ATOM     10  C   UNL     1      -0.019   1.526   0.010  0.00  0.00    +0.029 C 
ATOM     11  C   UNL     1       0.002  -0.004   0.002  0.00  0.00    +0.137 C 
BRANCH  11  12
ATOM     12  C   UNL     1       0.707  -0.490  -1.238  0.00  0.00    +0.227 C 
ATOM     13  O   UNL     1       0.066  -0.782  -2.225  0.00  0.00    -0.275 OA
ATOM     14  N   UNL     1       2.051  -0.601  -1.250  0.00  0.00    -0.310 N 
ATOM     15  H   UNL     1       2.563  -0.367  -0.460  0.00  0.00    +0.149 HD
BRANCH  14  16
ATOM     16  C   UNL     1       2.736  -1.073  -2.455  0.00  0.00    +0.026 C 
ATOM     17  C   UNL     1       2.433  -0.127  -3.618  0.00  0.00    +0.031 C 
ATOM     18  C   UNL     1       4.245  -1.105  -2.204  0.00  0.00    +0.031 C 
ATOM     19  C   UNL     1       2.247  -2.480  -2.801  0.00  0.00    +0.031 C 
ENDBRANCH  14  16
ENDBRANCH  11  12
ENDBRANCH   9  11
ENDBRANCH   1   9
BRANCH   4  20
ATOM     20  C   UNL     1      -4.797   0.261   4.240  0.00  0.00    +0.306 C 
BRANCH  20  21
ATOM     21  O   UNL     1      -5.603   1.412   3.978  0.00  0.00    -0.484 OA
BRANCH  21  22
ATOM     22  C   UNL     1      -6.708   1.581   4.750  0.00  0.00    +0.121 A 
ATOM     23  C   UNL     1      -7.009   0.660   5.743  0.00  0.00    +0.046 A 
ATOM     24  C   UNL     1      -8.133   0.833   6.527  0.00  0.00    +0.007 A 
ATOM     25  C   UNL     1      -8.959   1.923   6.322  0.00  0.00    -0.045 A 
ATOM     26  C   UNL     1      -8.662   2.842   5.333  0.00  0.00    +0.007 A 
ATOM     27  C   UNL     1      -7.535   2.676   4.550  0.00  0.00    +0.046 A 
BRANCH  25  28
ATOM     28  C   UNL     1     -10.185   2.109   7.178  0.00  0.00    +0.013 C 
ATOM     29  C   UNL     1     -10.086   3.440   7.927  0.00  0.00    +0.012 C 
ATOM     30  C   UNL     1     -11.431   2.114   6.291  0.00  0.00    +0.012 C 
ENDBRANCH  25  28
ENDBRANCH  21  22
ENDBRANCH  20  21
ENDBRANCH   4  20
TORSDOF 9
