REMARK  Name = ZINC35383256
REMARK  8 active torsions:
REMARK  status: ('A' for Active; 'I' for Inactive)
REMARK    1  A    between atoms: C_1  and  C_2
REMARK    2  A    between atoms: C_2  and  C_3
REMARK    3  A    between atoms: C_3  and  C_5
REMARK    4  A    between atoms: C_3  and  C_6
REMARK    5  A    between atoms: C_6  and  N_7
REMARK    6  A    between atoms: N_7  and  C_8
REMARK    7  A    between atoms: N_7  and  C_9
REMARK    8  A    between atoms: C_14  and  N_15
REMARK                            x       y       z     vdW  Elec       q    Type
REMARK                         _______ _______ _______ _____ _____    ______ ____
ROOT
ATOM      1  C   UNL     1       0.405  -2.620  -3.721  0.00  0.00    +0.052 A 
ATOM      2  C   UNL     1       0.255  -1.551  -4.586  0.00  0.00    +0.053 A 
ATOM      3  C   UNL     1      -0.550  -1.684  -5.716  0.00  0.00    +0.080 A 
ATOM      4  C   UNL     1      -1.205  -2.912  -5.965  0.00  0.00    +0.067 A 
ATOM      5  C   UNL     1      -1.046  -3.984  -5.086  0.00  0.00    +0.040 A 
ATOM      6  C   UNL     1      -0.241  -3.839  -3.974  0.00  0.00    +0.047 A 
ATOM      7  C   UNL     1      -2.045  -3.015  -7.165  0.00  0.00    +0.259 A 
ATOM      8  O   UNL     1      -2.636  -4.044  -7.437  0.00  0.00    -0.267 OA
ATOM      9  N   UNL     1      -2.138  -1.922  -7.957  0.00  0.00    -0.313 N 
ATOM     10  H   UNL     1      -2.684  -1.954  -8.758  0.00  0.00    +0.170 HD
ATOM     11  C   UNL     1      -1.473  -0.779  -7.641  0.00  0.00    +0.199 A 
ATOM     12  N   UNL     1      -0.723  -0.658  -6.588  0.00  0.00    -0.237 NA
ENDROOT
BRANCH   6  13
ATOM     13  N   UNL     1      -0.073  -4.912  -3.090  0.00  0.00    -0.357 N 
ATOM     14  H   UNL     1       0.489  -4.812  -2.306  0.00  0.00    +0.142 HD
ATOM     15  H   UNL     1      -0.519  -5.756  -3.263  0.00  0.00    +0.142 HD
ENDBRANCH   6  13
BRANCH   1  16
ATOM     16  N   UNL     1       1.210  -2.487  -2.591  0.00  0.00    -0.331 N 
ATOM     17  C   UNL     1       2.637  -2.810  -2.667  0.00  0.00    +0.129 C 
BRANCH  16  18
ATOM     18  C   UNL     1       0.630  -2.023  -1.329  0.00  0.00    +0.108 C 
BRANCH  18  19
ATOM     19  C   UNL     1       0.718  -0.497  -1.257  0.00  0.00    +0.003 C 
ATOM     20  C   UNL     1       2.187  -0.073  -1.207  0.00  0.00    +0.009 C 
BRANCH  19  22
ATOM     21  C   UNL     1      -0.019   1.526   0.010  0.00  0.00    +0.004 C 
ATOM     22  C   UNL     1       0.002  -0.004   0.002  0.00  0.00    +0.001 C 
ENDBRANCH  19  22
ENDBRANCH  18  19
ENDBRANCH  16  18
ENDBRANCH   1  16
TORSDOF 5
