REMARK  Name = ZINC62558150
REMARK  5 active torsions:
REMARK  status: ('A' for Active; 'I' for Inactive)
REMARK    1  A    between atoms: C_1  and  C_2
REMARK    2  A    between atoms: C_3  and  C_22
REMARK    3  A    between atoms: C_7  and  N_8
REMARK    4  A    between atoms: N_9  and  C_21
REMARK    5  A    between atoms: C_12  and  C_15
REMARK                            x       y       z     vdW  Elec       q    Type
REMARK                         _______ _______ _______ _____ _____    ______ ____
ROOT
ATOM      1  C   UNL     1      -0.018   1.503   0.010  0.00  0.00    +0.046 C 
ATOM      2  C   UNL     1       0.002  -0.004   0.002  0.00  0.00    -0.023 A 
ATOM      3  C   UNL     1       0.006  -0.687  -1.201  0.00  0.00    -0.002 A 
ATOM      4  C   UNL     1       0.025  -2.070  -1.210  0.00  0.00    +0.147 A 
ATOM      5  C   UNL     1       0.040  -2.775  -0.007  0.00  0.00    +0.080 A 
ATOM      6  C   UNL     1       0.036  -2.092   1.197  0.00  0.00    +0.050 A 
ATOM      7  C   UNL     1       0.023  -0.703   1.202  0.00  0.00    +0.030 A 
ATOM      8  N   UNL     1       0.061  -4.177  -0.034  0.00  0.00    -0.268 N 
ATOM      9  C   UNL     1      -0.251  -4.815  -1.183  0.00  0.00    +0.265 C 
ATOM     10  O   UNL     1      -0.211  -6.026  -1.237  0.00  0.00    -0.271 OA
ATOM     11  C   UNL     1      -0.649  -4.015  -2.397  0.00  0.00    +0.289 C 
ATOM     12  O   UNL     1       0.027  -2.755  -2.386  0.00  0.00    -0.473 OA
ATOM     13  C   UNL     1       0.414  -4.938   1.167  0.00  0.00    +0.138 C 
ATOM     14  C   UNL     1      -0.011   0.075  -2.501  0.00  0.00    +0.048 C 
ENDROOT
BRANCH  11  15
ATOM     15  C   UNL     1      -2.138  -3.785  -2.380  0.00  0.00    +0.002 A 
ATOM     16  C   UNL     1      -2.665  -2.719  -1.676  0.00  0.00    +0.008 A 
ATOM     17  C   UNL     1      -4.031  -2.508  -1.660  0.00  0.00    +0.000 A 
ATOM     18  C   UNL     1      -4.870  -3.363  -2.349  0.00  0.00    +0.000 A 
ATOM     19  C   UNL     1      -4.344  -4.429  -3.055  0.00  0.00    +0.000 A 
ATOM     20  C   UNL     1      -2.977  -4.637  -3.074  0.00  0.00    +0.008 A 
ENDBRANCH  11  15
BRANCH   7  21
ATOM     21  N   UNL     1       0.025  -0.007   2.416  0.00  0.00    -0.358 N 
ATOM     22  H   UNL     1       0.011   0.963   2.419  0.00  0.00    +0.142 HD
ATOM     23  H   UNL     1       0.039  -0.495   3.254  0.00  0.00    +0.142 HD
ENDBRANCH   7  21
TORSDOF 2
