REMARK  Name = ZINC04758693
REMARK  2 active torsions:
REMARK  status: ('A' for Active; 'I' for Inactive)
REMARK    1  A    between atoms: C_10  and  C_11
REMARK    2  A    between atoms: C_24  and  N_27
REMARK                            x       y       z     vdW  Elec       q    Type
REMARK                         _______ _______ _______ _____ _____    ______ ____
ROOT
ATOM      1  C   UNL     1       2.076  -1.563  -0.302  0.00  0.00    +0.105 C 
ATOM      2  C   UNL     1       1.349  -0.287  -0.674  0.00  0.00    +0.029 C 
ATOM      3  C   UNL     1       0.002  -0.004   0.002  0.00  0.00    +0.033 C 
ATOM      4  C   UNL     1      -0.019   1.527   0.010  0.00  0.00    -0.030 C 
ATOM      5  C   UNL     1       1.224   1.996   0.001  0.00  0.00    -0.023 C 
ATOM      6  C   UNL     1       2.162   0.848   0.023  0.00  0.00    +0.049 C 
ATOM      7  C   UNL     1       3.487   0.885  -0.633  0.00  0.00    -0.017 A 
ATOM      8  C   UNL     1       4.193   2.062  -0.776  0.00  0.00    +0.006 A 
ATOM      9  C   UNL     1       5.446   2.062  -1.358  0.00  0.00    +0.003 A 
ATOM     10  C   UNL     1       5.995   0.871  -1.800  0.00  0.00    +0.034 A 
ATOM     11  C   UNL     1       5.293  -0.306  -1.669  0.00  0.00    +0.147 A 
ATOM     12  C   UNL     1       4.023  -0.322  -1.090  0.00  0.00    +0.062 A 
ATOM     13  N   UNL     1       3.366  -1.548  -1.009  0.00  0.00    -0.335 N 
ATOM     14  H   UNL     1       3.981  -2.264  -0.655  0.00  0.00    +0.147 HD
ENDROOT
BRANCH   1  24
ATOM     15  C   UNL     1      -0.643  -3.058   3.770  0.00  0.00    +0.001 A 
ATOM     16  C   UNL     1      -0.873  -3.023   2.396  0.00  0.00    +0.001 A 
ATOM     17  C   UNL     1       0.073  -2.555   1.538  0.00  0.00    +0.009 A 
ATOM     18  C   UNL     1       1.303  -2.098   2.042  0.00  0.00    -0.013 A 
ATOM     19  C   UNL     1       1.537  -2.132   3.439  0.00  0.00    -0.018 A 
ATOM     20  C   UNL     1       0.535  -2.623   4.294  0.00  0.00    +0.008 A 
ATOM     21  C   UNL     1       2.767  -1.675   3.943  0.00  0.00    +0.008 A 
ATOM     22  C   UNL     1       3.714  -1.207   3.085  0.00  0.00    +0.001 A 
ATOM     23  C   UNL     1       3.486  -1.179   1.711  0.00  0.00    +0.006 A 
ATOM     24  C   UNL     1       2.305  -1.608   1.187  0.00  0.00    -0.019 A 
ENDBRANCH   1  24
BRANCH  11  25
ATOM     25  N   UNL     1       5.894  -1.571  -2.148  0.00  0.00    +0.058 N 
ATOM     26  O   UNL     1       7.002  -1.567  -2.654  0.00  0.00    -0.126 OA
ATOM     27  O   UNL     1       5.280  -2.618  -2.036  0.00  0.00    -0.126 OA
ENDBRANCH  11  25
TORSDOF 2
