REMARK  Name = ZINC13686449
REMARK  7 active torsions:
REMARK  status: ('A' for Active; 'I' for Inactive)
REMARK    1  A    between atoms: C_1  and  C_2
REMARK    2  A    between atoms: C_7  and  O_8
REMARK    3  A    between atoms: O_8  and  C_9
REMARK    4  A    between atoms: C_9  and  C_10
REMARK    5  A    between atoms: C_10  and  N_11
REMARK    6  A    between atoms: C_13  and  C_20
REMARK    7  A    between atoms: N_27  and  C_30
REMARK                            x       y       z     vdW  Elec       q    Type
REMARK                         _______ _______ _______ _____ _____    ______ ____
ROOT
ATOM      1  N   UNL     1       0.797  -0.144   7.073  0.00  0.00    -0.343 N 
ATOM      2  C   UNL     1      -0.321  -0.774   7.474  0.00  0.00    +0.095 A 
ATOM      3  C   UNL     1      -0.184  -1.163   8.797  0.00  0.00    +0.001 A 
ATOM      4  C   UNL     1       1.159  -0.714   9.219  0.00  0.00    +0.007 A 
ATOM      5  C   UNL     1       1.724  -0.089   8.096  0.00  0.00    +0.050 A 
ATOM      6  C   UNL     1       3.006   0.441   8.185  0.00  0.00    +0.026 A 
ATOM      7  C   UNL     1       3.710   0.345   9.367  0.00  0.00    +0.002 A 
ATOM      8  C   UNL     1       3.151  -0.275  10.474  0.00  0.00    +0.001 A 
ATOM      9  C   UNL     1       1.877  -0.800  10.407  0.00  0.00    +0.010 A 
ENDROOT
BRANCH   3  10
ATOM     10  C   UNL     1      -1.132  -1.848   9.581  0.00  0.00    +0.028 C 
ATOM     11  C   UNL     1      -2.464  -1.443   9.573  0.00  0.00    +0.102 C 
ATOM     12  C   UNL     1      -3.515  -2.250  10.206  0.00  0.00    +0.276 C 
ATOM     13  O   UNL     1      -3.215  -3.416  10.817  0.00  0.00    -0.268 OA
ATOM     14  N   UNL     1      -4.762  -1.809  10.164  0.00  0.00    -0.123 NA
ATOM     15  C   UNL     1      -5.085  -0.664   9.569  0.00  0.00    +0.340 C 
ATOM     16  O   UNL     1      -6.256  -0.325   9.572  0.00  0.00    -0.250 OA
ATOM     17  N   UNL     1      -4.194   0.136   8.967  0.00  0.00    -0.188 N 
ATOM     18  C   UNL     1      -2.882  -0.182   8.936  0.00  0.00    +0.264 C 
ATOM     19  O   UNL     1      -2.071   0.547   8.394  0.00  0.00    -0.269 OA
BRANCH  17  20
ATOM     20  C   UNL     1      -4.630   1.325   8.366  0.00  0.00    +0.046 A 
ATOM     21  C   UNL     1      -5.037   1.324   7.039  0.00  0.00    +0.027 A 
ATOM     22  C   UNL     1      -5.466   2.497   6.449  0.00  0.00    +0.040 A 
ATOM     23  C   UNL     1      -5.491   3.673   7.179  0.00  0.00    +0.124 A 
ATOM     24  C   UNL     1      -5.085   3.675   8.504  0.00  0.00    +0.040 A 
ATOM     25  C   UNL     1      -4.660   2.504   9.099  0.00  0.00    +0.027 A 
ATOM     26  F   UNL     1      -5.911   4.819   6.600  0.00  0.00    -0.205 F 
ENDBRANCH  17  20
ENDBRANCH   3  10
BRANCH   1  27
ATOM     27  C   UNL     1       1.007   0.403   5.731  0.00  0.00    +0.163 C 
BRANCH  27  28
ATOM     28  C   UNL     1       1.743  -0.625   4.869  0.00  0.00    +0.250 C 
BRANCH  28  29
ATOM     29  O   UNL     1       1.948  -0.091   3.560  0.00  0.00    -0.490 OA
BRANCH  29  36
ATOM     30  C   UNL     1       2.362   0.946   0.965  0.00  0.00    +0.047 C 
ATOM     31  C   UNL     1       2.825  -0.428   1.374  0.00  0.00    -0.009 A 
ATOM     32  C   UNL     1       3.486  -1.234   0.467  0.00  0.00    +0.007 A 
ATOM     33  C   UNL     1       3.910  -2.495   0.842  0.00  0.00    +0.000 A 
ATOM     34  C   UNL     1       3.674  -2.954   2.125  0.00  0.00    +0.004 A 
ATOM     35  C   UNL     1       3.014  -2.152   3.036  0.00  0.00    +0.046 A 
ATOM     36  C   UNL     1       2.592  -0.884   2.664  0.00  0.00    +0.123 A 
ENDBRANCH  29  36
ENDBRANCH  28  29
ENDBRANCH  27  28
ENDBRANCH   1  27
TORSDOF 6
