REMARK  Name = ZINC27742424
REMARK  5 active torsions:
REMARK  status: ('A' for Active; 'I' for Inactive)
REMARK    1  A    between atoms: C_3  and  C_6
REMARK    2  A    between atoms: C_6  and  C_8
REMARK    3  A    between atoms: C_6  and  N_22
REMARK    4  A    between atoms: C_8  and  N_9
REMARK    5  A    between atoms: C_10  and  C_12
REMARK                            x       y       z     vdW  Elec       q    Type
REMARK                         _______ _______ _______ _____ _____    ______ ____
ROOT
ATOM      1  C   UNL     1       2.798   4.014   0.110  0.00  0.00    +0.094 C 
ENDROOT
BRANCH   1   2
ATOM      2  N   UNL     1       3.320   3.442   1.354  0.00  0.00    -0.316 N 
ATOM      3  C   UNL     1       4.520   3.834   1.824  0.00  0.00    +0.219 C 
ATOM      4  O   UNL     1       5.169   4.660   1.217  0.00  0.00    -0.275 OA
ATOM      5  H   UNL     1       2.731   2.693   1.904  0.00  0.00    +0.149 HD
BRANCH   3   6
ATOM      6  C   UNL     1       5.057   3.246   3.103  0.00  0.00    +0.048 C 
ATOM      7  C   UNL     1       4.093   3.554   4.250  0.00  0.00    +0.019 C 
ATOM      8  C   UNL     1       4.638   2.957   5.549  0.00  0.00    -0.009 C 
ATOM      9  C   UNL     1       6.007   3.567   5.856  0.00  0.00    +0.007 C 
ATOM     10  C   UNL     1       6.971   3.259   4.709  0.00  0.00    -0.009 C 
ATOM     11  C   UNL     1       6.426   3.856   3.410  0.00  0.00    +0.019 C 
ATOM     12  C   UNL     1       7.112   1.743   4.554  0.00  0.00    +0.007 C 
ATOM     13  C   UNL     1       5.743   1.133   4.247  0.00  0.00    -0.009 C 
ATOM     14  C   UNL     1       4.778   1.441   5.394  0.00  0.00    +0.007 C 
ATOM     15  C   UNL     1       5.198   1.730   2.948  0.00  0.00    +0.019 C 
ENDBRANCH   3   6
ENDBRANCH   1   2
BRANCH   1  16
ATOM     16  C   UNL     1       1.492   3.311  -0.266  0.00  0.00    -0.013 C 
BRANCH  16  17
ATOM     17  N   UNL     1       1.726   1.864  -0.365  0.00  0.00    +0.386 N 
ATOM     18  C   UNL     1       2.912   1.577  -1.182  0.00  0.00    -0.078 C 
ATOM     19  C   UNL     1       3.208   0.076  -1.143  0.00  0.00    -0.019 C 
ATOM     20  C   UNL     1       1.998  -0.692  -1.680  0.00  0.00    -0.004 C 
ATOM     21  C   UNL     1       0.766  -0.339  -0.842  0.00  0.00    -0.019 C 
ATOM     22  C   UNL     1       0.540   1.174  -0.889  0.00  0.00    -0.078 C 
ATOM     23  H   UNL     1       1.916   1.481   0.648  0.00  0.00    -0.081 HD
ENDBRANCH  16  17
BRANCH  16  26
ATOM     24  C   UNL     1      -0.239   5.085  -3.159  0.00  0.00    +0.008 A 
ATOM     25  C   UNL     1       0.045   4.756  -1.847  0.00  0.00    +0.009 A 
ATOM     26  C   UNL     1       1.004   3.833  -1.593  0.00  0.00    -0.022 A 
ATOM     27  S   UNL     1       1.546   3.401  -3.239  0.00  0.00    -0.103 S 
ATOM     28  C   UNL     1       0.451   4.474  -4.154  0.00  0.00    +0.045 A 
ENDBRANCH  16  26
ENDBRANCH   1  16
TORSDOF 5
