REMARK  Name = ZINC35106180
REMARK  9 active torsions:
REMARK  status: ('A' for Active; 'I' for Inactive)
REMARK    1  A    between atoms: C_4  and  O_7
REMARK    2  A    between atoms: O_7  and  C_8
REMARK    3  A    between atoms: C_11  and  N_14
REMARK    4  A    between atoms: N_14  and  C_15
REMARK    5  A    between atoms: C_15  and  C_16
REMARK    6  A    between atoms: C_16  and  C_17
REMARK    7  A    between atoms: C_17  and  N_18
REMARK    8  A    between atoms: N_21  and  C_22
REMARK    9  A    between atoms: C_32  and  C_34
REMARK                            x       y       z     vdW  Elec       q    Type
REMARK                         _______ _______ _______ _____ _____    ______ ____
ROOT
ATOM      1  N   UNL     1       3.866  -6.178   0.054  0.00  0.00    -0.265 N 
ATOM      2  C   UNL     1       2.707  -6.858  -0.054  0.00  0.00    +0.286 C 
ATOM      3  O   UNL     1       1.670  -6.262  -0.276  0.00  0.00    -0.266 OA
ENDROOT
BRANCH   1   7
ATOM      4  C   UNL     1       3.844  -2.009   0.046  0.00  0.00    +0.129 A 
ATOM      5  C   UNL     1       2.648  -2.709   0.104  0.00  0.00    +0.048 A 
ATOM      6  C   UNL     1       2.654  -4.090   0.107  0.00  0.00    +0.027 A 
ATOM      7  C   UNL     1       3.859  -4.778   0.051  0.00  0.00    +0.037 A 
ATOM      8  C   UNL     1       5.056  -4.077  -0.007  0.00  0.00    +0.027 A 
ATOM      9  C   UNL     1       5.048  -2.697  -0.016  0.00  0.00    +0.048 A 
BRANCH   4  10
ATOM     10  O   UNL     1       3.837  -0.650   0.044  0.00  0.00    -0.456 OA
BRANCH  10  14
ATOM     11  C   UNL     1       3.092   1.289   3.608  0.00  0.00    +0.000 A 
ATOM     12  C   UNL     1       3.424   2.019   2.481  0.00  0.00    +0.004 A 
ATOM     13  C   UNL     1       3.674   1.372   1.287  0.00  0.00    +0.046 A 
ATOM     14  C   UNL     1       3.592  -0.011   1.218  0.00  0.00    +0.128 A 
ATOM     15  C   UNL     1       3.259  -0.741   2.350  0.00  0.00    +0.046 A 
ATOM     16  C   UNL     1       3.010  -0.089   3.542  0.00  0.00    +0.004 A 
ENDBRANCH  10  14
ENDBRANCH   4  10
ENDBRANCH   1   7
BRANCH   2  17
ATOM     17  C   UNL     1       2.697  -8.317   0.097  0.00  0.00    +0.190 A 
ATOM     18  C   UNL     1       1.622  -9.136  -0.101  0.00  0.00    +0.054 A 
ATOM     19  C   UNL     1       2.061 -10.445   0.153  0.00  0.00    +0.042 A 
ATOM     20  C   UNL     1       3.367 -10.368   0.491  0.00  0.00    +0.196 A 
ATOM     21  O   UNL     1       3.748  -9.085   0.450  0.00  0.00    -0.458 OA
ENDBRANCH   2  17
BRANCH   1  22
ATOM     22  C   UNL     1       5.133  -6.904   0.173  0.00  0.00    +0.115 C 
BRANCH  22  23
ATOM     23  C   UNL     1       5.489  -7.068   1.652  0.00  0.00    +0.038 C 
BRANCH  23  24
ATOM     24  C   UNL     1       6.812  -7.826   1.777  0.00  0.00    +0.107 C 
BRANCH  24  25
ATOM     25  N   UNL     1       7.153  -7.983   3.193  0.00  0.00    -0.299 N 
ATOM     26  C   UNL     1       8.285  -8.624   3.547  0.00  0.00    +0.300 C 
ATOM     27  O   UNL     1       9.023  -9.072   2.691  0.00  0.00    -0.253 OA
ATOM     28  N   UNL     1       8.598  -8.768   4.850  0.00  0.00    -0.294 N 
ATOM     29  H   UNL     1       6.565  -7.625   3.876  0.00  0.00    +0.150 HD
ATOM     30  H   UNL     1       8.010  -8.411   5.533  0.00  0.00    +0.151 HD
BRANCH  28  31
ATOM     31  C   UNL     1       9.828  -9.465   5.234  0.00  0.00    +0.037 C 
ATOM     32  C   UNL     1       9.789 -10.899   4.702  0.00  0.00    +0.029 C 
ATOM     33  C   UNL     1      11.074 -11.627   5.104  0.00  0.00    -0.008 C 
ATOM     34  C   UNL     1      11.191 -11.652   6.629  0.00  0.00    +0.007 C 
ATOM     35  C   UNL     1      11.229 -10.218   7.161  0.00  0.00    -0.008 C 
ATOM     36  C   UNL     1       9.945  -9.490   6.759  0.00  0.00    +0.029 C 
ATOM     37  C   UNL     1      12.436  -9.487   6.569  0.00  0.00    +0.007 C 
ATOM     38  C   UNL     1      12.319  -9.462   5.043  0.00  0.00    -0.008 C 
ATOM     39  C   UNL     1      12.281 -10.896   4.512  0.00  0.00    +0.007 C 
ATOM     40  C   UNL     1      11.035  -8.734   4.642  0.00  0.00    +0.029 C 
ENDBRANCH  28  31
ENDBRANCH  24  25
ENDBRANCH  23  24
ENDBRANCH  22  23
ENDBRANCH   1  22
TORSDOF 9
