REMARK  Name = ZINC07784252
REMARK  10 active torsions:
REMARK  status: ('A' for Active; 'I' for Inactive)
REMARK    1  A    between atoms: C_1  and  N_2
REMARK    2  A    between atoms: N_2  and  C_3
REMARK    3  A    between atoms: N_2  and  C_4
REMARK    4  A    between atoms: C_7  and  C_10
REMARK    5  A    between atoms: C_14  and  C_17
REMARK    6  A    between atoms: C_17  and  S_18
REMARK    7  A    between atoms: S_18  and  C_19
REMARK    8  A    between atoms: C_22  and  C_27
REMARK    9  A    between atoms: N_23  and  C_24
REMARK   10  A    between atoms: C_24  and  C_25
REMARK                            x       y       z     vdW  Elec       q    Type
REMARK                         _______ _______ _______ _____ _____    ______ ____
ROOT
ATOM      1  C   UNL     1      -2.497  12.636   2.000  0.00  0.00    +0.094 C 
ATOM      2  N   UNL     1      -1.851  13.442   0.933  0.00  0.00    +0.401 N 
ATOM      3  C   UNL     1      -1.352  12.393   0.001  0.00  0.00    -0.046 C 
ATOM      4  C   UNL     1      -2.454  11.314   0.084  0.00  0.00    +0.110 C 
ATOM      5  O   UNL     1      -3.136  11.538   1.328  0.00  0.00    -0.388 OA
ATOM      6  H   UNL     1      -2.597  14.105   0.472  0.00  0.00    -0.081 HD
ATOM      7  H   UNL     1      -1.042  14.047   1.370  0.00  0.00    -0.081 HD
ENDROOT
BRANCH   1  11
ATOM      8  C   UNL     1      -5.403  14.989   4.071  0.00  0.00    +0.029 A 
ATOM      9  C   UNL     1      -4.763  13.941   4.722  0.00  0.00    +0.023 A 
ATOM     10  C   UNL     1      -3.825  13.183   4.050  0.00  0.00    +0.006 A 
ATOM     11  C   UNL     1      -3.522  13.465   2.730  0.00  0.00    -0.036 A 
ATOM     12  C   UNL     1      -4.152  14.511   2.081  0.00  0.00    +0.006 A 
ATOM     13  C   UNL     1      -5.096  15.270   2.746  0.00  0.00    +0.023 A 
BRANCH   8  15
ATOM     14  C   UNL     1      -6.674  15.460   6.146  0.00  0.00    +0.129 C 
ATOM     15  N   UNL     1      -6.352  15.758   4.748  0.00  0.00    -0.336 N 
ATOM     16  C   UNL     1      -7.025  16.862   4.060  0.00  0.00    +0.129 C 
ENDBRANCH   8  15
ENDBRANCH   1  11
BRANCH   4  17
ATOM     17  C   UNL     1      -1.826   9.918   0.071  0.00  0.00    +0.107 C 
BRANCH  17  18
ATOM     18  S   UNL     1      -3.136   8.669   0.077  0.00  0.00    -0.084 S 
BRANCH  18  19
ATOM     19  C   UNL     1      -2.159   7.202   0.060  0.00  0.00    +0.192 A 
ATOM     20  N   UNL     1      -0.848   7.138   0.047  0.00  0.00    -0.122 NA
ATOM     21  N   UNL     1      -0.471   5.909   0.038  0.00  0.00    -0.133 NA
ATOM     22  C   UNL     1      -1.510   5.123   0.044  0.00  0.00    +0.137 A 
ATOM     23  N   UNL     1      -2.623   5.918   0.053  0.00  0.00    -0.302 N 
BRANCH  22  24
ATOM     24  C   UNL     1      -1.490   3.616   0.036  0.00  0.00    +0.057 C 
ATOM     25  C   UNL     1      -0.773   3.123  -1.223  0.00  0.00    +0.011 C 
ATOM     26  C   UNL     1      -0.753   1.593  -1.232  0.00  0.00    +0.001 C 
ATOM     27  C   UNL     1      -0.013   1.086   0.008  0.00  0.00    +0.000 C 
ATOM     28  C   UNL     1      -0.729   1.579   1.267  0.00  0.00    +0.001 C 
ATOM     29  C   UNL     1      -0.750   3.109   1.275  0.00  0.00    +0.011 C 
ENDBRANCH  22  24
BRANCH  23  30
ATOM     30  C   UNL     1      -4.021   5.483   0.058  0.00  0.00    +0.152 C 
BRANCH  30  31
ATOM     31  C   UNL     1      -4.494   5.326   1.480  0.00  0.00    -0.013 C 
ATOM     32  C   UNL     1      -5.562   5.964   1.889  0.00  0.00    +0.005 C 
ENDBRANCH  30  31
ENDBRANCH  23  30
ENDBRANCH  18  19
ENDBRANCH  17  18
ENDBRANCH   4  17
TORSDOF 8
