REMARK  Name = ZINC08820983
REMARK  4 active torsions:
REMARK  status: ('A' for Active; 'I' for Inactive)
REMARK    1  A    between atoms: C_3  and  C_28
REMARK    2  A    between atoms: C_5  and  N_7
REMARK    3  A    between atoms: C_13  and  C_14
REMARK    4  A    between atoms: C_17  and  C_19
REMARK                            x       y       z     vdW  Elec       q    Type
REMARK                         _______ _______ _______ _____ _____    ______ ____
ROOT
ATOM      1  N   UNL     1       1.345  -2.064   0.067  0.00  0.00    -0.226 NA
ATOM      2  C   UNL     1       0.500  -2.733   0.820  0.00  0.00    +0.166 C 
ATOM      3  N   UNL     1       0.184  -4.073   0.772  0.00  0.00    -0.260 N 
ATOM      4  C   UNL     1      -0.697  -4.588   1.612  0.00  0.00    +0.257 C 
ATOM      5  O   UNL     1      -0.987  -5.771   1.583  0.00  0.00    -0.269 OA
ATOM      6  C   UNL     1      -1.312  -3.671   2.583  0.00  0.00    +0.081 C 
ATOM      7  C   UNL     1      -2.238  -3.929   3.553  0.00  0.00    +0.066 C 
ATOM      8  S   UNL     1      -0.514  -2.129   2.160  0.00  0.00    -0.049 S 
ATOM      9  H   UNL     1       0.612  -4.644   0.115  0.00  0.00    +0.157 HD
ENDROOT
BRANCH   1  14
ATOM     10  C   UNL     1       0.625   1.466   0.668  0.00  0.00    +0.003 A 
ATOM     11  C   UNL     1       1.906   1.988   0.686  0.00  0.00    +0.012 A 
ATOM     12  C   UNL     1       3.000   1.163   0.498  0.00  0.00    +0.057 A 
ATOM     13  C   UNL     1       2.821  -0.189   0.292  0.00  0.00    +0.040 A 
ATOM     14  C   UNL     1       1.530  -0.724   0.272  0.00  0.00    +0.067 A 
ATOM     15  C   UNL     1       0.430   0.116   0.462  0.00  0.00    +0.028 A 
BRANCH  12  16
ATOM     16  C   UNL     1       4.391   1.742   0.519  0.00  0.00    +0.417 C 
ATOM     17  F   UNL     1       4.319   3.121   0.742  0.00  0.00    -0.166 F 
ATOM     18  F   UNL     1       5.131   1.141   1.544  0.00  0.00    -0.166 F 
ATOM     19  F   UNL     1       5.015   1.500  -0.710  0.00  0.00    -0.166 F 
ENDBRANCH  12  16
ENDBRANCH   1  14
BRANCH   7  20
ATOM     20  C   UNL     1      -2.626  -5.259   3.822  0.00  0.00    +0.130 A 
ATOM     21  C   UNL     1      -3.628  -5.654   4.690  0.00  0.00    +0.050 A 
ATOM     22  C   UNL     1      -3.670  -7.050   4.648  0.00  0.00    +0.050 A 
ATOM     23  C   UNL     1      -2.707  -7.456   3.768  0.00  0.00    +0.137 A 
ATOM     24  O   UNL     1      -2.088  -6.369   3.273  0.00  0.00    -0.455 OA
BRANCH  23  25
ATOM     25  C   UNL     1      -2.400  -8.855   3.415  0.00  0.00    +0.037 A 
ATOM     26  C   UNL     1      -2.203  -9.806   4.420  0.00  0.00    +0.033 A 
ATOM     27  C   UNL     1      -1.916 -11.113   4.082  0.00  0.00    +0.042 A 
ATOM     28  C   UNL     1      -1.823 -11.483   2.750  0.00  0.00    +0.021 A 
ATOM     29  C   UNL     1      -2.016 -10.548   1.750  0.00  0.00    +0.022 A 
ATOM     30  C   UNL     1      -2.310  -9.238   2.073  0.00  0.00    +0.052 A 
ATOM     31 CL   UNL     1      -2.561  -8.067   0.816  0.00  0.00    -0.083 Cl
ATOM     32 CL   UNL     1      -1.671 -12.296   5.329  0.00  0.00    -0.084 Cl
ENDBRANCH  23  25
ENDBRANCH   7  20
TORSDOF 4
