REMARK  Name = ZINC46915686
REMARK  7 active torsions:
REMARK  status: ('A' for Active; 'I' for Inactive)
REMARK    1  A    between atoms: C_1  and  N_2
REMARK    2  A    between atoms: N_2  and  C_3
REMARK    3  A    between atoms: C_3  and  C_4
REMARK    4  A    between atoms: C_16  and  C_18
REMARK    5  A    between atoms: C_23  and  N_24
REMARK    6  A    between atoms: N_24  and  C_25
REMARK    7  A    between atoms: C_26  and  C_28
REMARK                            x       y       z     vdW  Elec       q    Type
REMARK                         _______ _______ _______ _____ _____    ______ ____
ROOT
ATOM      1  C   UNL     1       0.174   1.455  -0.001  0.00  0.00    +0.133 C 
ATOM      2  N   UNL     1       0.091  -0.008  -0.004  0.00  0.00    -0.293 N 
ATOM      3  C   UNL     1      -0.101  -0.670  -1.162  0.00  0.00    +0.249 C 
ATOM      4  O   UNL     1      -0.255  -1.876  -1.154  0.00  0.00    -0.270 OA
ENDROOT
BRANCH   3   5
ATOM      5  C   UNL     1      -0.124   0.069  -2.438  0.00  0.00    +0.058 A 
ATOM      6  C   UNL     1      -1.065   1.080  -2.648  0.00  0.00    +0.015 A 
ATOM      7  C   UNL     1      -1.081   1.766  -3.843  0.00  0.00    +0.001 A 
ATOM      8  C   UNL     1      -0.168   1.458  -4.840  0.00  0.00    +0.002 A 
ATOM      9  C   UNL     1       0.767   0.462  -4.647  0.00  0.00    +0.024 A 
ATOM     10  C   UNL     1       0.803  -0.236  -3.447  0.00  0.00    +0.048 A 
BRANCH  10  11
ATOM     11  N   UNL     1       1.749  -1.237  -3.248  0.00  0.00    -0.267 N 
ATOM     12  C   UNL     1       3.051  -0.908  -2.663  0.00  0.00    +0.139 C 
ATOM     13  C   UNL     1       1.468  -2.509  -3.593  0.00  0.00    +0.286 C 
ATOM     14  O   UNL     1       2.257  -3.398  -3.335  0.00  0.00    -0.266 OA
BRANCH  13  15
ATOM     15  C   UNL     1       0.211  -2.821  -4.279  0.00  0.00    +0.191 A 
ATOM     16  C   UNL     1      -0.244  -4.071  -4.592  0.00  0.00    +0.056 A 
ATOM     17  C   UNL     1      -1.478  -3.901  -5.238  0.00  0.00    +0.058 A 
ATOM     18  C   UNL     1      -1.720  -2.571  -5.291  0.00  0.00    +0.171 A 
ATOM     19  O   UNL     1      -0.703  -1.924  -4.707  0.00  0.00    -0.444 OA
ATOM     20 BR   UNL     1      -3.247  -1.759  -6.056  0.00  0.00    -0.008 Br
ENDBRANCH  13  15
ENDBRANCH  10  11
ENDBRANCH   3   5
BRANCH   2  21
ATOM     21  C   UNL     1       0.215  -0.751   1.253  0.00  0.00    +0.181 C 
BRANCH  21  22
ATOM     22  C   UNL     1      -1.148  -0.926   1.871  0.00  0.00    +0.128 A 
ATOM     23  N   UNL     1      -1.240  -1.590   3.052  0.00  0.00    -0.309 N 
ATOM     24  H   UNL     1      -0.438  -1.936   3.473  0.00  0.00    +0.170 HD
ATOM     25  C   UNL     1      -2.442  -1.773   3.648  0.00  0.00    +0.259 A 
ATOM     26  O   UNL     1      -2.538  -2.366   4.707  0.00  0.00    -0.267 OA
ATOM     27  C   UNL     1      -3.625  -1.228   2.967  0.00  0.00    +0.065 A 
ATOM     28  C   UNL     1      -4.907  -1.362   3.495  0.00  0.00    +0.015 A 
ATOM     29  C   UNL     1      -5.981  -0.832   2.814  0.00  0.00    +0.001 A 
ATOM     30  C   UNL     1      -5.795  -0.168   1.609  0.00  0.00    +0.002 A 
ATOM     31  C   UNL     1      -4.537  -0.024   1.070  0.00  0.00    +0.028 A 
ATOM     32  C   UNL     1      -3.432  -0.552   1.741  0.00  0.00    +0.078 A 
ATOM     33  N   UNL     1      -2.174  -0.429   1.249  0.00  0.00    -0.232 NA
ENDBRANCH  21  22
ENDBRANCH   2  21
TORSDOF 5
