REMARK  Name = ZINC09450062
REMARK  8 active torsions:
REMARK  status: ('A' for Active; 'I' for Inactive)
REMARK    1  A    between atoms: C_1  and  C_2
REMARK    2  A    between atoms: C_7  and  N_8
REMARK    3  A    between atoms: C_9  and  C_11
REMARK    4  A    between atoms: C_11  and  S_12
REMARK    5  A    between atoms: S_12  and  C_13
REMARK    6  A    between atoms: C_16  and  C_19
REMARK    7  A    between atoms: N_17  and  N_18
REMARK    8  A    between atoms: C_21  and  C_25
REMARK                            x       y       z     vdW  Elec       q    Type
REMARK                         _______ _______ _______ _____ _____    ______ ____
ROOT
ATOM      1  C   UNL     1      -0.353  -0.152   7.718  0.00  0.00    +0.209 A 
ATOM      2  N   UNL     1      -0.465   1.157   7.682  0.00  0.00    -0.120 NA
ATOM      3  N   UNL     1      -0.576   1.624   8.874  0.00  0.00    -0.125 NA
ATOM      4  C   UNL     1      -0.542   0.641   9.745  0.00  0.00    +0.199 A 
ATOM      5  N   UNL     1      -0.404  -0.527   9.030  0.00  0.00    -0.223 N 
ENDROOT
BRANCH   4   6
ATOM      6  C   UNL     1      -0.640   0.765  11.210  0.00  0.00    +0.105 A 
ATOM      7  C   UNL     1      -1.085   1.857  11.902  0.00  0.00    +0.061 A 
ATOM      8  C   UNL     1      -1.015   1.555  13.271  0.00  0.00    +0.093 A 
ATOM      9  N   UNL     1      -0.547   0.331  13.403  0.00  0.00    -0.173 NA
ATOM     10  N   UNL     1      -0.308  -0.193  12.126  0.00  0.00    -0.273 N 
ATOM     11  H   UNL     1       0.035  -1.078  11.927  0.00  0.00    +0.189 HD
BRANCH   8  12
ATOM     12  C   UNL     1      -1.402   2.461  14.381  0.00  0.00    +0.002 A 
ATOM     13  C   UNL     1      -1.891   3.736  14.105  0.00  0.00    +0.011 A 
ATOM     14  C   UNL     1      -2.249   4.575  15.140  0.00  0.00    +0.020 A 
ATOM     15  C   UNL     1      -2.124   4.151  16.452  0.00  0.00    +0.041 A 
ATOM     16  C   UNL     1      -1.640   2.885  16.732  0.00  0.00    +0.020 A 
ATOM     17  C   UNL     1      -1.284   2.037  15.703  0.00  0.00    +0.011 A 
ATOM     18 CL   UNL     1      -2.577   5.211  17.750  0.00  0.00    -0.084 Cl
ENDBRANCH   8  12
ENDBRANCH   4   6
BRANCH   5  19
ATOM     19  N   UNL     1      -0.330  -1.797   9.529  0.00  0.00    -0.295 N 
ATOM     20  H   UNL     1       0.630  -2.083   9.650  0.00  0.00    +0.163 HD
ATOM     21  H   UNL     1      -0.843  -1.876  10.394  0.00  0.00    +0.163 HD
ENDBRANCH   5  19
BRANCH   1  22
ATOM     22  S   UNL     1      -0.177  -1.224   6.330  0.00  0.00    -0.075 S 
BRANCH  22  23
ATOM     23  C   UNL     1      -0.181  -0.101   4.905  0.00  0.00    +0.173 C 
BRANCH  23  25
ATOM     24  N   UNL     1      -0.012  -0.273   2.443  0.00  0.00    -0.285 N 
ATOM     25  C   UNL     1      -0.035  -0.900   3.636  0.00  0.00    +0.227 C 
ATOM     26  O   UNL     1       0.062  -2.108   3.687  0.00  0.00    -0.275 OA
ATOM     27  H   UNL     1      -0.021   0.697   2.405  0.00  0.00    +0.155 HD
BRANCH  24  34
ATOM     28  C   UNL     1      -1.370   0.754   0.164  0.00  0.00    +0.046 C 
ATOM     29  C   UNL     1      -0.625  -0.555   0.124  0.00  0.00    -0.028 A 
ATOM     30  C   UNL     1      -0.583  -1.291  -1.044  0.00  0.00    +0.025 A 
ATOM     31  C   UNL     1       0.101  -2.493  -1.081  0.00  0.00    +0.041 A 
ATOM     32  C   UNL     1       0.745  -2.961   0.051  0.00  0.00    +0.022 A 
ATOM     33  C   UNL     1       0.706  -2.229   1.222  0.00  0.00    +0.025 A 
ATOM     34  C   UNL     1       0.025  -1.019   1.260  0.00  0.00    +0.036 A 
ATOM     35 CL   UNL     1       0.151  -3.417  -2.550  0.00  0.00    -0.084 Cl
ENDBRANCH  24  34
ENDBRANCH  23  25
ENDBRANCH  22  23
ENDBRANCH   1  22
TORSDOF 7
