REMARK  Name = ZINC04926237
REMARK  11 active torsions:
REMARK  status: ('A' for Active; 'I' for Inactive)
REMARK    1  A    between atoms: C_1  and  C_2
REMARK    2  A    between atoms: C_2  and  C_3
REMARK    3  A    between atoms: C_2  and  C_4
REMARK    4  A    between atoms: C_2  and  N_5
REMARK    5  A    between atoms: C_6  and  C_10
REMARK    6  A    between atoms: C_10  and  C_12
REMARK    7  A    between atoms: C_10  and  N_56
REMARK    8  A    between atoms: C_18  and  C_19
REMARK    9  A    between atoms: C_18  and  N_56
REMARK   10  A    between atoms: C_25  and  C_26
REMARK   11  A    between atoms: C_25  and  N_56
REMARK                            x       y       z     vdW  Elec       q    Type
REMARK                         _______ _______ _______ _____ _____    ______ ____
ROOT
ATOM      1  C   UNL     1       5.816  -1.281  -2.113  0.00  0.00    +0.053 C 
ENDROOT
BRANCH   1   2
ATOM      2  C   UNL     1       6.390  -0.950  -3.467  0.00  0.00    +0.035 A 
ATOM      3  C   UNL     1       7.758  -0.815  -3.614  0.00  0.00    +0.022 A 
ATOM      4  C   UNL     1       8.276  -0.517  -4.865  0.00  0.00    +0.003 A 
ATOM      5  C   UNL     1       7.394  -0.354  -5.923  0.00  0.00    +0.020 A 
ATOM      6  C   UNL     1       6.038  -0.499  -5.698  0.00  0.00    +0.111 A 
ATOM      7  N   UNL     1       5.581  -0.788  -4.496  0.00  0.00    -0.261 NA
ENDBRANCH   1   2
BRANCH   1   9
ATOM      8  N   UNL     1       6.696  -3.435  -1.070  0.00  0.00    -0.225 N 
ATOM      9  C   UNL     1       5.866  -2.771  -1.896  0.00  0.00    +0.144 A 
ATOM     10  N   UNL     1       5.115  -3.673  -2.479  0.00  0.00    -0.115 NA
ATOM     11  N   UNL     1       5.461  -4.830  -2.031  0.00  0.00    -0.023 NA
ATOM     12  N   UNL     1       6.414  -4.690  -1.177  0.00  0.00    -0.043 NA
BRANCH   8  14
ATOM     13  C   UNL     1       7.052  -2.028   0.898  0.00  0.00    +0.036 C 
ATOM     14  C   UNL     1       7.723  -2.844  -0.208  0.00  0.00    +0.059 C 
ATOM     15  C   UNL     1       8.565  -3.958   0.418  0.00  0.00    +0.036 C 
ATOM     16  C   UNL     1       8.623  -1.931  -1.042  0.00  0.00    +0.036 C 
ENDBRANCH   8  14
ENDBRANCH   1   9
BRANCH   1  17
ATOM     17  N   UNL     1       4.421  -0.795  -2.056  0.00  0.00    +0.396 N 
ATOM     18  H   UNL     1       4.399   0.191  -2.338  0.00  0.00    -0.079 HD
BRANCH  17  19
ATOM     19  C   UNL     1       3.902  -0.912  -0.676  0.00  0.00    -0.041 C 
BRANCH  19  20
ATOM     20  C   UNL     1       3.491  -2.332  -0.386  0.00  0.00    -0.064 A 
ATOM     21  C   UNL     1       4.388  -3.205   0.201  0.00  0.00    +0.002 A 
ATOM     22  C   UNL     1       4.011  -4.508   0.468  0.00  0.00    +0.000 A 
ATOM     23  C   UNL     1       2.737  -4.938   0.148  0.00  0.00    +0.000 A 
ATOM     24  C   UNL     1       1.839  -4.065  -0.439  0.00  0.00    +0.000 A 
ATOM     25  C   UNL     1       2.217  -2.762  -0.706  0.00  0.00    +0.002 A 
ENDBRANCH  19  20
ENDBRANCH  17  19
BRANCH  17  26
ATOM     26  C   UNL     1       3.575  -1.579  -2.981  0.00  0.00    -0.034 C 
BRANCH  26  27
ATOM     27  C   UNL     1       2.393  -0.735  -3.382  0.00  0.00    -0.027 A 
ATOM     28  C   UNL     1       2.241   0.061  -4.469  0.00  0.00    +0.009 A 
ATOM     29  C   UNL     1       1.054   0.750  -4.635  0.00  0.00    +0.008 A 
ATOM     30  C   UNL     1       0.077   0.608  -3.707  0.00  0.00    +0.045 A 
ATOM     31  S   UNL     1       0.824  -0.531  -2.554  0.00  0.00    -0.103 S 
ENDBRANCH  26  27
ENDBRANCH  17  26
ENDBRANCH   1  17
TORSDOF 8
