REMARK  Name = ZINC08618112
REMARK  7 active torsions:
REMARK  status: ('A' for Active; 'I' for Inactive)
REMARK    1  A    between atoms: C_6  and  C_7
REMARK    2  A    between atoms: N_8  and  O_9
REMARK    3  A    between atoms: O_9  and  C_10
REMARK    4  A    between atoms: C_10  and  C_12
REMARK    5  A    between atoms: N_15  and  C_21
REMARK    6  A    between atoms: C_16  and  C_17
REMARK    7  A    between atoms: C_24  and  N_27
REMARK                            x       y       z     vdW  Elec       q    Type
REMARK                         _______ _______ _______ _____ _____    ______ ____
ROOT
ATOM      1  C   UNL     1      -3.478  -5.014   0.010  0.00  0.00    +0.111 A 
ATOM      2  C   UNL     1      -4.833  -4.608   0.019  0.00  0.00    +0.150 A 
ATOM      3  N   UNL     1      -5.576  -5.680   0.022  0.00  0.00    -0.173 NA
ATOM      4  N   UNL     1      -4.747  -6.808   0.016  0.00  0.00    -0.227 N 
ATOM      5  C   UNL     1      -3.467  -6.395   0.002  0.00  0.00    +0.161 A 
ENDROOT
BRANCH   4   6
ATOM      6  C   UNL     1      -5.178  -8.141   0.017  0.00  0.00    +0.066 A 
ATOM      7  C   UNL     1      -4.457  -9.106  -0.674  0.00  0.00    +0.030 A 
ATOM      8  C   UNL     1      -4.884 -10.419  -0.671  0.00  0.00    +0.035 A 
ATOM      9  C   UNL     1      -6.030 -10.774   0.018  0.00  0.00    +0.126 A 
ATOM     10  C   UNL     1      -6.750  -9.815   0.706  0.00  0.00    +0.035 A 
ATOM     11  C   UNL     1      -6.325  -8.501   0.712  0.00  0.00    +0.030 A 
BRANCH   9  12
ATOM     12  N   UNL     1      -6.485 -12.182   0.018  0.00  0.00    +0.056 N 
ATOM     13  O   UNL     1      -5.856 -13.021  -0.583  0.00  0.00    -0.126 OA
ATOM     14  O   UNL     1      -7.487 -12.493   0.620  0.00  0.00    -0.126 OA
ENDBRANCH   9  12
ENDBRANCH   4   6
BRANCH   5  15
ATOM     15  C   UNL     1      -2.245  -7.277  -0.014  0.00  0.00    +0.435 C 
ATOM     16  F   UNL     1      -1.879  -7.543  -1.338  0.00  0.00    -0.164 F 
ATOM     17  F   UNL     1      -1.192  -6.628   0.639  0.00  0.00    -0.164 F 
ATOM     18  F   UNL     1      -2.530  -8.480   0.641  0.00  0.00    -0.164 F 
ENDBRANCH   5  15
BRANCH   1  19
ATOM     19  C   UNL     1      -2.301  -4.130   0.003  0.00  0.00    +0.370 C 
ATOM     20  O   UNL     1      -1.183  -4.606  -0.011  0.00  0.00    -0.242 OA
BRANCH  19  21
ATOM     21  O   UNL     1      -2.462  -2.793   0.011  0.00  0.00    -0.310 OA
BRANCH  21  23
ATOM     22  C   UNL     1      -1.268  -0.764   0.011  0.00  0.00    +0.163 C 
ATOM     23  N   UNL     1      -1.248  -2.066   0.003  0.00  0.00    -0.059 NA
ATOM     24  N   UNL     1      -2.476  -0.091   0.026  0.00  0.00    -0.340 N 
ATOM     25  H   UNL     1      -2.492   0.878   0.032  0.00  0.00    +0.144 HD
ATOM     26  H   UNL     1      -3.309  -0.590   0.032  0.00  0.00    +0.144 HD
BRANCH  22  32
ATOM     27  C   UNL     1      -0.017   1.391   0.010  0.00  0.00    +0.013 A 
ATOM     28  C   UNL     1       1.170   2.094   0.002  0.00  0.00    +0.021 A 
ATOM     29  C   UNL     1       2.378   1.418  -0.013  0.00  0.00    +0.041 A 
ATOM     30  C   UNL     1       2.403   0.034  -0.021  0.00  0.00    +0.021 A 
ATOM     31  C   UNL     1       1.222  -0.680  -0.013  0.00  0.00    +0.013 A 
ATOM     32  C   UNL     1       0.002  -0.004   0.002  0.00  0.00    +0.018 A 
ATOM     33 CL   UNL     1       3.868   2.310  -0.023  0.00  0.00    -0.084 Cl
ENDBRANCH  22  32
ENDBRANCH  21  23
ENDBRANCH  19  21
ENDBRANCH   1  19
TORSDOF 7
