REMARK  Name = ZINC05041303
REMARK  8 active torsions:
REMARK  status: ('A' for Active; 'I' for Inactive)
REMARK    1  A    between atoms: C_1  and  C_2
REMARK    2  A    between atoms: C_2  and  C_3
REMARK    3  A    between atoms: C_3  and  C_4
REMARK    4  A    between atoms: C_4  and  C_5
REMARK    5  A    between atoms: C_8  and  S_11
REMARK    6  A    between atoms: S_11  and  N_14
REMARK    7  A    between atoms: N_14  and  N_15
REMARK    8  A    between atoms: N_18  and  C_19
REMARK                            x       y       z     vdW  Elec       q    Type
REMARK                         _______ _______ _______ _____ _____    ______ ____
ROOT
ATOM      1  N   UNL     1       7.436  -0.730   3.466  0.00  0.00    -0.107 NA
ATOM      2  H   UNL     1       7.694  -0.320   2.626  0.00  0.00    +0.172 HD
ENDROOT
BRANCH   1   3
ATOM      3  N   UNL     1       6.587  -1.845   3.469  0.00  0.00    -0.215 N 
ATOM      4  C   UNL     1       5.391  -1.783   2.852  0.00  0.00    +0.319 C 
ATOM      5  O   UNL     1       4.654  -2.751   2.854  0.00  0.00    -0.251 OA
ATOM      6  N   UNL     1       5.011  -0.649   2.230  0.00  0.00    -0.268 N 
ATOM      7  H   UNL     1       6.860  -2.661   3.917  0.00  0.00    +0.172 HD
ATOM      8  H   UNL     1       5.628   0.096   2.161  0.00  0.00    +0.156 HD
BRANCH   6   9
ATOM      9  C   UNL     1       3.724  -0.546   1.685  0.00  0.00    +0.038 A 
ATOM     10  C   UNL     1       2.657  -1.190   2.296  0.00  0.00    +0.027 A 
ATOM     11  C   UNL     1       1.388  -1.089   1.760  0.00  0.00    +0.051 A 
ATOM     12  C   UNL     1       1.176  -0.346   0.610  0.00  0.00    +0.166 A 
ATOM     13  C   UNL     1       2.245   0.302  -0.006  0.00  0.00    +0.168 A 
ATOM     14  C   UNL     1       3.517   0.200   0.533  0.00  0.00    +0.073 A 
ATOM     15  O   UNL     1       1.780   0.960  -1.108  0.00  0.00    -0.453 OA
ATOM     16  C   UNL     1       0.353   1.046  -0.931  0.00  0.00    +0.466 C 
ATOM     17  O   UNL     1       0.041  -0.093  -0.107  0.00  0.00    -0.453 OA
ENDBRANCH   6   9
ENDBRANCH   1   3
BRANCH   1  18
ATOM     18  S   UNL     1       7.998  -0.113   4.896  0.00  0.00    +0.074 S 
ATOM     19  O   UNL     1       8.933   0.903   4.561  0.00  0.00    -0.152 OA
ATOM     20  O   UNL     1       6.857   0.139   5.706  0.00  0.00    -0.152 OA
BRANCH  18  24
ATOM     21  C   UNL     1      10.339  -3.401   6.944  0.00  0.00    -0.047 A 
ATOM     22  C   UNL     1      10.979  -2.532   6.081  0.00  0.00    +0.005 A 
ATOM     23  C   UNL     1      10.264  -1.528   5.456  0.00  0.00    +0.029 A 
ATOM     24  C   UNL     1       8.909  -1.393   5.693  0.00  0.00    +0.107 A 
ATOM     25  C   UNL     1       8.270  -2.259   6.561  0.00  0.00    +0.029 A 
ATOM     26  C   UNL     1       8.985  -3.266   7.183  0.00  0.00    +0.005 A 
BRANCH  21  27
ATOM     27  C   UNL     1      11.119  -4.497   7.625  0.00  0.00    +0.035 C 
BRANCH  27  28
ATOM     28  C   UNL     1      11.665  -3.981   8.958  0.00  0.00    +0.004 C 
BRANCH  28  30
ATOM     29  C   UNL     1      13.004  -4.577  10.982  0.00  0.00    +0.004 C 
ATOM     30  C   UNL     1      12.457  -5.093   9.649  0.00  0.00    -0.003 C 
ENDBRANCH  28  30
ENDBRANCH  27  28
ENDBRANCH  21  27
ENDBRANCH  18  24
ENDBRANCH   1  18
TORSDOF 7
