REMARK  Name = ZINC13132410
REMARK  10 active torsions:
REMARK  status: ('A' for Active; 'I' for Inactive)
REMARK    1  A    between atoms: C_1  and  C_2
REMARK    2  A    between atoms: N_5  and  C_7
REMARK    3  A    between atoms: C_12  and  C_14
REMARK    4  A    between atoms: C_12  and  C_15
REMARK    5  A    between atoms: C_17  and  O_32
REMARK    6  A    between atoms: C_20  and  C_22
REMARK    7  A    between atoms: C_25  and  O_28
REMARK    8  A    between atoms: O_28  and  C_29
REMARK    9  A    between atoms: C_29  and  C_30
REMARK   10  A    between atoms: C_29  and  C_31
REMARK                            x       y       z     vdW  Elec       q    Type
REMARK                         _______ _______ _______ _____ _____    ______ ____
ROOT
ATOM      1  C   UNL     1       0.280   1.004  -0.552  0.00  0.00    +0.068 C 
ATOM      2  C   UNL     1       0.400  -0.476  -0.810  0.00  0.00    +0.067 A 
ATOM      3  C   UNL     1       0.428  -1.086  -2.077  0.00  0.00    +0.036 A 
ATOM      4  C   UNL     1       0.549  -2.436  -1.887  0.00  0.00    +0.160 A 
ATOM      5  N   UNL     1       0.585  -2.641  -0.523  0.00  0.00    -0.243 N 
ATOM      6  N   UNL     1       0.500  -1.399   0.105  0.00  0.00    -0.174 NA
ATOM      7  N   UNL     1       0.636  -3.461  -2.752  0.00  0.00    -0.197 NA
ATOM      8  C   UNL     1       0.638  -3.602  -3.997  0.00  0.00    +0.199 C 
ATOM      9  C   UNL     1       0.475  -2.594  -5.065  0.00  0.00    +0.165 C 
ATOM     10  S   UNL     1       1.278  -1.030  -4.691  0.00  0.00    -0.138 S 
ATOM     11  C   UNL     1       0.331  -0.301  -3.350  0.00  0.00    +0.112 C 
ENDROOT
BRANCH   5  12
ATOM     12  C   UNL     1       0.700  -3.938   0.148  0.00  0.00    +0.114 C 
ATOM     13  C   UNL     1       1.966  -3.958   1.010  0.00  0.00    +0.055 C 
ATOM     14  C   UNL     1       2.036  -5.286   1.768  0.00  0.00    +0.162 C 
ATOM     15  O   UNL     1       0.858  -5.443   2.561  0.00  0.00    -0.374 OA
ATOM     16  C   UNL     1      -0.354  -5.478   1.805  0.00  0.00    +0.066 C 
ATOM     17  C   UNL     1      -0.521  -4.159   1.046  0.00  0.00    +0.061 C 
ATOM     18  C   UNL     1      -1.540  -5.677   2.751  0.00  0.00    +0.041 C 
ATOM     19  C   UNL     1      -0.298  -6.636   0.806  0.00  0.00    +0.041 C 
ENDBRANCH   5  12
BRANCH  11  20
ATOM     20  C   UNL     1       0.838   1.096  -3.100  0.00  0.00    -0.030 A 
ATOM     21  C   UNL     1       2.140   1.292  -2.678  0.00  0.00    +0.008 A 
ATOM     22  C   UNL     1       2.608   2.571  -2.448  0.00  0.00    +0.046 A 
ATOM     23  C   UNL     1       1.769   3.660  -2.640  0.00  0.00    +0.121 A 
ATOM     24  C   UNL     1       0.463   3.461  -3.064  0.00  0.00    +0.046 A 
ATOM     25  C   UNL     1       0.002   2.179  -3.298  0.00  0.00    +0.008 A 
BRANCH  23  26
ATOM     26  O   UNL     1       2.227   4.920  -2.414  0.00  0.00    -0.489 OA
BRANCH  26  27
ATOM     27  C   UNL     1       3.541   5.044  -1.867  0.00  0.00    +0.167 C 
ATOM     28  C   UNL     1       4.570   4.999  -2.998  0.00  0.00    +0.051 C 
ATOM     29  C   UNL     1       3.659   6.375  -1.122  0.00  0.00    +0.051 C 
ENDBRANCH  26  27
ENDBRANCH  23  26
ENDBRANCH  11  20
BRANCH   8  30
ATOM     30  O   UNL     1       0.816  -4.868  -4.427  0.00  0.00    -0.495 OA
ATOM     31  H   UNL     1       0.921  -5.514  -3.716  0.00  0.00    +0.293 HD
ENDBRANCH   8  30
TORSDOF 5
