REMARK  Name = ZINC50322171
REMARK  10 active torsions:
REMARK  status: ('A' for Active; 'I' for Inactive)
REMARK    1  A    between atoms: C_1  and  C_2
REMARK    2  A    between atoms: C_2  and  C_3
REMARK    3  A    between atoms: C_3  and  C_4
REMARK    4  A    between atoms: C_5  and  N_18
REMARK    5  A    between atoms: C_6  and  C_10
REMARK    6  A    between atoms: N_12  and  C_13
REMARK    7  A    between atoms: N_12  and  C_14
REMARK    8  A    between atoms: C_14  and  C_15
REMARK    9  A    between atoms: C_15  and  C_16
REMARK   10  A    between atoms: C_15  and  C_17
REMARK                            x       y       z     vdW  Elec       q    Type
REMARK                         _______ _______ _______ _____ _____    ______ ____
ROOT
ATOM      1  C   UNL     1       0.327  -2.148  -0.361  0.00  0.00    +0.057 A 
ATOM      2  C   UNL     1      -0.563  -2.934  -1.022  0.00  0.00    +0.078 A 
ATOM      3  C   UNL     1       0.021  -4.226  -1.050  0.00  0.00    +0.168 A 
ATOM      4  N   UNL     1       1.181  -4.140  -0.427  0.00  0.00    -0.167 NA
ATOM      5  N   UNL     1       1.381  -2.937  -0.023  0.00  0.00    -0.279 N 
ATOM      6  H   UNL     1       2.168  -2.636   0.456  0.00  0.00    +0.189 HD
ENDROOT
BRANCH   3   7
ATOM      7  C   UNL     1      -0.559  -5.438  -1.659  0.00  0.00    +0.268 C 
ATOM      8  O   UNL     1      -1.683  -5.407  -2.122  0.00  0.00    -0.268 OA
ATOM      9  N   UNL     1       0.156  -6.579  -1.701  0.00  0.00    -0.299 N 
ATOM     10  C   UNL     1       1.487  -6.633  -1.090  0.00  0.00    +0.132 C 
BRANCH   9  11
ATOM     11  C   UNL     1      -0.397  -7.766  -2.357  0.00  0.00    +0.110 C 
BRANCH  11  12
ATOM     12  C   UNL     1       0.001  -7.764  -3.835  0.00  0.00    +0.000 C 
ATOM     13  C   UNL     1       1.519  -7.905  -3.955  0.00  0.00    +0.009 C 
ATOM     14  C   UNL     1      -0.679  -8.935  -4.548  0.00  0.00    +0.009 C 
ENDBRANCH  11  12
ENDBRANCH   9  11
ENDBRANCH   3   7
BRANCH   2  15
ATOM     15  N   UNL     1      -1.799  -2.548  -1.563  0.00  0.00    -0.355 N 
ATOM     16  H   UNL     1      -2.098  -1.629  -1.483  0.00  0.00    +0.142 HD
ATOM     17  H   UNL     1      -2.354  -3.201  -2.017  0.00  0.00    +0.142 HD
ENDBRANCH   2  15
BRANCH   1  18
ATOM     18  C   UNL     1       0.177  -0.678  -0.064  0.00  0.00    +0.056 C 
BRANCH  18  20
ATOM     19  C   UNL     1      -0.775   0.995   1.528  0.00  0.00    +0.004 C 
ATOM     20  C   UNL     1      -0.623  -0.498   1.227  0.00  0.00    +0.003 C 
ENDBRANCH  18  20
ENDBRANCH   1  18
TORSDOF 6
