REMARK  Name = ZINC67386722
REMARK  5 active torsions:
REMARK  status: ('A' for Active; 'I' for Inactive)
REMARK    1  A    between atoms: C_1  and  N_2
REMARK    2  A    between atoms: C_6  and  C_7
REMARK    3  A    between atoms: C_7  and  C_9
REMARK    4  A    between atoms: C_7  and  N_15
REMARK    5  A    between atoms: C_22  and  C_25
REMARK                            x       y       z     vdW  Elec       q    Type
REMARK                         _______ _______ _______ _____ _____    ______ ____
ROOT
ATOM      1  N   UNL     1      -0.929  -1.153   3.287  0.00  0.00    -0.285 N 
ATOM      2  C   UNL     1      -2.229  -0.798   3.320  0.00  0.00    +0.303 C 
ATOM      3  O   UNL     1      -2.591   0.233   2.786  0.00  0.00    -0.253 OA
ATOM      4  N   UNL     1      -3.127  -1.585   3.944  0.00  0.00    -0.281 N 
ATOM      5  C   UNL     1      -2.699  -2.773   4.698  0.00  0.00    +0.137 C 
ATOM      6  C   UNL     1      -3.341  -2.720   6.089  0.00  0.00    +0.179 C 
ATOM      7  O   UNL     1      -4.751  -2.531   5.950  0.00  0.00    -0.369 OA
ATOM      8  C   UNL     1      -5.117  -1.301   5.321  0.00  0.00    +0.168 C 
ATOM      9  C   UNL     1      -4.566  -1.278   3.896  0.00  0.00    +0.145 C 
ATOM     10  H   UNL     1      -0.628  -1.937   3.773  0.00  0.00    +0.151 HD
ENDROOT
BRANCH   8  11
ATOM     11  C   UNL     1      -6.619  -1.182   5.285  0.00  0.00    +0.018 A 
ATOM     12  C   UNL     1      -7.404  -2.319   5.321  0.00  0.00    +0.009 A 
ATOM     13  C   UNL     1      -8.781  -2.211   5.288  0.00  0.00    +0.001 A 
ATOM     14  C   UNL     1      -9.376  -0.965   5.218  0.00  0.00    +0.003 A 
ATOM     15  C   UNL     1      -8.594   0.174   5.182  0.00  0.00    +0.039 A 
ATOM     16  C   UNL     1      -7.214   0.067   5.221  0.00  0.00    +0.129 A 
ATOM     17  F   UNL     1      -6.448   1.179   5.190  0.00  0.00    -0.205 F 
ENDBRANCH   8  11
BRANCH   1  18
ATOM     18  C   UNL     1       0.029  -0.356   2.517  0.00  0.00    +0.171 C 
BRANCH  18  24
ATOM     19  C   UNL     1      -0.021   1.467   0.012  0.00  0.00    +0.150 C 
ATOM     20  N   UNL     1      -0.004   0.002  -0.000  0.00  0.00    -0.336 N 
ATOM     21  C   UNL     1      -0.001  -0.801  -1.109  0.00  0.00    +0.106 A 
ATOM     22  C   UNL     1       0.018  -2.074  -0.668  0.00  0.00    +0.130 A 
ATOM     23  N   UNL     1       0.026  -2.048   0.672  0.00  0.00    -0.238 NA
ATOM     24  C   UNL     1       0.018  -0.809   1.080  0.00  0.00    +0.134 A 
ENDBRANCH  18  24
BRANCH  18  25
ATOM     25  C   UNL     1       1.410  -0.539   3.091  0.00  0.00    -0.020 A 
ATOM     26  C   UNL     1       1.824  -1.789   3.512  0.00  0.00    +0.006 A 
ATOM     27  C   UNL     1       3.091  -1.957   4.039  0.00  0.00    +0.000 A 
ATOM     28  C   UNL     1       3.945  -0.875   4.144  0.00  0.00    +0.000 A 
ATOM     29  C   UNL     1       3.531   0.375   3.722  0.00  0.00    +0.000 A 
ATOM     30  C   UNL     1       2.266   0.542   3.192  0.00  0.00    +0.006 A 
ENDBRANCH  18  25
ENDBRANCH   1  18
TORSDOF 4
