REMARK  Name = ZINC12183729
REMARK  6 active torsions:
REMARK  status: ('A' for Active; 'I' for Inactive)
REMARK    1  A    between atoms: C_1  and  C_2
REMARK    2  A    between atoms: C_6  and  C_13
REMARK    3  A    between atoms: C_13  and  C_14
REMARK    4  A    between atoms: C_22  and  C_25
REMARK    5  A    between atoms: C_25  and  N_26
REMARK    6  A    between atoms: C_27  and  C_29
REMARK                            x       y       z     vdW  Elec       q    Type
REMARK                         _______ _______ _______ _____ _____    ______ ____
ROOT
ATOM      1  C   UNL     1       0.673  10.047  -4.884  0.00  0.00    +0.220 C 
ATOM      2  O   UNL     1       1.129   9.862  -5.993  0.00  0.00    -0.275 OA
ATOM      3  N   UNL     1       1.247   9.464  -3.813  0.00  0.00    -0.301 N 
ATOM      4  C   UNL     1       2.427   8.602  -3.972  0.00  0.00    +0.110 C 
ATOM      5  C   UNL     1       3.538   9.113  -3.049  0.00  0.00    +0.054 C 
ATOM      6  C   UNL     1       3.007   9.204  -1.619  0.00  0.00    +0.073 C 
ATOM      7  C   UNL     1       4.132   9.695  -0.685  0.00  0.00    +0.038 C 
ATOM      8  C   UNL     1       4.650   8.366  -0.069  0.00  0.00    +0.036 C 
ATOM      9  C   UNL     1       3.338   7.546   0.010  0.00  0.00    +0.136 C 
ATOM     10  O   UNL     1       2.596   7.911  -1.165  0.00  0.00    -0.369 OA
ATOM     11  C   UNL     1       1.832  10.180  -1.554  0.00  0.00    +0.054 C 
ATOM     12  C   UNL     1       0.705   9.679  -2.464  0.00  0.00    +0.110 C 
ENDROOT
BRANCH   1  13
ATOM     13  C   UNL     1      -0.536  10.928  -4.705  0.00  0.00    +0.132 C 
BRANCH  13  19
ATOM     14  C   UNL     1      -4.449   8.405  -9.453  0.00  0.00    +0.044 C 
ATOM     15  C   UNL     1      -3.538   9.207  -8.560  0.00  0.00    -0.047 A 
ATOM     16  C   UNL     1      -3.151   8.690  -7.332  0.00  0.00    +0.004 A 
ATOM     17  C   UNL     1      -2.326   9.403  -6.508  0.00  0.00    +0.012 A 
ATOM     18  C   UNL     1      -1.867  10.662  -6.907  0.00  0.00    +0.021 A 
ATOM     19  C   UNL     1      -0.980  11.451  -6.047  0.00  0.00    -0.021 A 
ATOM     20  C   UNL     1      -0.574  12.668  -6.489  0.00  0.00    +0.096 A 
ATOM     21  C   UNL     1      -1.001  13.133  -7.752  0.00  0.00    +0.337 A 
ATOM     22  O   UNL     1      -0.627  14.225  -8.140  0.00  0.00    -0.245 OA
ATOM     23  O   UNL     1      -1.813  12.405  -8.534  0.00  0.00    -0.422 OA
ATOM     24  C   UNL     1      -2.256  11.189  -8.151  0.00  0.00    +0.140 A 
ATOM     25  C   UNL     1      -3.096  10.447  -8.972  0.00  0.00    +0.050 A 
ENDBRANCH  13  19
ENDBRANCH   1  13
BRANCH   9  26
ATOM     26  C   UNL     1       3.646   6.048  -0.000  0.00  0.00    +0.136 C 
BRANCH  26  27
ATOM     27  N   UNL     1       2.392   5.291   0.007  0.00  0.00    -0.309 N 
ATOM     28  C   UNL     1       2.418   3.943   0.000  0.00  0.00    +0.247 C 
ATOM     29  O   UNL     1       3.482   3.356  -0.012  0.00  0.00    -0.270 OA
ATOM     30  H   UNL     1       1.543   5.760   0.017  0.00  0.00    +0.149 HD
BRANCH  28  31
ATOM     31  C   UNL     1       1.154   3.180   0.008  0.00  0.00    +0.072 A 
ATOM     32  C   UNL     1      -0.071   3.852   0.022  0.00  0.00    +0.016 A 
ATOM     33  C   UNL     1      -1.248   3.134   0.030  0.00  0.00    +0.001 A 
ATOM     34  C   UNL     1      -1.219   1.749   0.017  0.00  0.00    +0.003 A 
ATOM     35  C   UNL     1      -0.013   1.076   0.008  0.00  0.00    +0.039 A 
ATOM     36  C   UNL     1       1.177   1.782   0.000  0.00  0.00    +0.135 A 
ATOM     37  F   UNL     1       2.356   1.124  -0.014  0.00  0.00    -0.205 F 
ENDBRANCH  28  31
ENDBRANCH  26  27
ENDBRANCH   9  26
TORSDOF 5
