REMARK  Name = ZINC31486420
REMARK  8 active torsions:
REMARK  status: ('A' for Active; 'I' for Inactive)
REMARK    1  A    between atoms: C_1  and  C_2
REMARK    2  A    between atoms: C_2  and  C_3
REMARK    3  A    between atoms: C_3  and  N_4
REMARK    4  A    between atoms: N_4  and  C_5
REMARK    5  A    between atoms: C_5  and  N_7
REMARK    6  A    between atoms: N_7  and  N_8
REMARK    7  A    between atoms: C_9  and  C_11
REMARK    8  A    between atoms: C_14  and  C_16
REMARK                            x       y       z     vdW  Elec       q    Type
REMARK                         _______ _______ _______ _____ _____    ______ ____
ROOT
ATOM      1  N   UNL     1      -1.191   1.871   0.018  0.00  0.00    -0.231 N 
ATOM      2  C   UNL     1      -0.014   1.213   0.009  0.00  0.00    +0.267 C 
ATOM      3  O   UNL     1       0.002  -0.004   0.002  0.00  0.00    -0.268 OA
ATOM      4  H   UNL     1      -1.206   2.971   0.024  0.00  0.00    +0.173 HD
ENDROOT
BRANCH   2   5
ATOM      5  C   UNL     1       1.244   1.963   0.001  0.00  0.00    +0.076 A 
ATOM      6  C   UNL     1       2.545   1.482  -0.009  0.00  0.00    +0.021 A 
ATOM      7  C   UNL     1       3.576   2.378  -0.018  0.00  0.00    +0.017 A 
ATOM      8  C   UNL     1       3.282   3.732  -0.008  0.00  0.00    +0.020 A 
ATOM      9  S   UNL     1       1.497   3.730   0.008  0.00  0.00    -0.084 S 
BRANCH   8  10
ATOM     10  C   UNL     1       4.209   4.883  -0.010  0.00  0.00    -0.011 A 
ATOM     11  C   UNL     1       5.589   4.672  -0.018  0.00  0.00    +0.010 A 
ATOM     12  C   UNL     1       6.449   5.751  -0.025  0.00  0.00    +0.016 A 
ATOM     13  C   UNL     1       5.946   7.041  -0.013  0.00  0.00    +0.018 A 
ATOM     14  C   UNL     1       4.578   7.257   0.001  0.00  0.00    +0.016 A 
ATOM     15  C   UNL     1       3.708   6.186   0.003  0.00  0.00    +0.010 A 
ATOM     16 BR   UNL     1       7.132   8.514  -0.014  0.00  0.00    -0.050 Br
ENDBRANCH   8  10
ENDBRANCH   2   5
BRANCH   1  17
ATOM     17  N   UNL     1      -2.394   1.154   0.020  0.00  0.00    -0.246 N 
ATOM     18  H   UNL     1      -2.379   0.054   0.014  0.00  0.00    +0.172 HD
BRANCH  17  19
ATOM     19  C   UNL     1      -3.571   1.812   0.029  0.00  0.00    +0.147 C 
ATOM     20  S   UNL     1      -5.041   0.936   0.031  0.00  0.00    -0.017 S 
BRANCH  19  21
ATOM     21  N   UNL     1      -3.589   3.160   0.036  0.00  0.00    -0.325 N 
ATOM     22  H   UNL     1      -2.644   3.723   0.035  0.00  0.00    +0.148 HD
BRANCH  21  23
ATOM     23  C   UNL     1      -4.867   3.875   0.046  0.00  0.00    +0.103 C 
BRANCH  23  25
ATOM     24  C   UNL     1      -5.944   6.130   0.064  0.00  0.00    +0.005 C 
ATOM     25  C   UNL     1      -4.608   5.383   0.053  0.00  0.00    +0.015 C 
ENDBRANCH  23  25
ENDBRANCH  21  23
ENDBRANCH  19  21
ENDBRANCH  17  19
ENDBRANCH   1  17
TORSDOF 7
