REMARK  Name = ZINC00530651
REMARK  7 active torsions:
REMARK  status: ('A' for Active; 'I' for Inactive)
REMARK    1  A    between atoms: C_1  and  C_2
REMARK    2  A    between atoms: C_2  and  C_3
REMARK    3  A    between atoms: C_3  and  C_5
REMARK    4  A    between atoms: C_3  and  N_6
REMARK    5  A    between atoms: C_10  and  N_11
REMARK    6  A    between atoms: N_11  and  C_12
REMARK    7  A    between atoms: C_18  and  N_20
REMARK                            x       y       z     vdW  Elec       q    Type
REMARK                         _______ _______ _______ _____ _____    ______ ____
ROOT
ATOM      1  N   UNL     1       0.008  -0.069  -2.477  0.00  0.00    -0.246 N 
ATOM      2  C   UNL     1       0.656   0.672  -3.399  0.00  0.00    +0.259 C 
ATOM      3  O   UNL     1       1.836   0.939  -3.269  0.00  0.00    -0.269 OA
ATOM      4  C   UNL     1      -0.104   1.149  -4.569  0.00  0.00    +0.113 C 
ATOM      5  C   UNL     1       0.493   1.912  -5.554  0.00  0.00    +0.086 C 
ATOM      6  C   UNL     1      -1.528   0.776  -4.641  0.00  0.00    +0.256 C 
ATOM      7  O   UNL     1      -2.220   1.132  -5.576  0.00  0.00    -0.270 OA
ATOM      8  N   UNL     1      -2.043   0.029  -3.643  0.00  0.00    -0.263 N 
ATOM      9  C   UNL     1      -1.291  -0.374  -2.610  0.00  0.00    +0.146 C 
ATOM     10  S   UNL     1      -2.028  -1.325  -1.393  0.00  0.00    -0.018 S 
ATOM     11  H   UNL     1      -2.979  -0.225  -3.675  0.00  0.00    +0.157 HD
ENDROOT
BRANCH   1  12
ATOM     12  C   UNL     1       0.741  -0.555  -1.306  0.00  0.00    +0.080 C 
ATOM     13  C   UNL     1       1.254   0.636  -0.494  0.00  0.00    +0.028 C 
BRANCH  12  15
ATOM     14  C   UNL     1       1.409  -2.640  -2.509  0.00  0.00    +0.006 C 
ATOM     15  C   UNL     1       1.925  -1.408  -1.764  0.00  0.00    +0.019 C 
ENDBRANCH  12  15
ENDBRANCH   1  12
BRANCH   5  16
ATOM     16  N   UNL     1      -0.189   2.217  -6.677  0.00  0.00    -0.348 N 
ATOM     17  H   UNL     1      -1.122   1.965  -6.761  0.00  0.00    +0.146 HD
BRANCH  16  18
ATOM     18  C   UNL     1       0.478   2.931  -7.768  0.00  0.00    +0.055 C 
ATOM     19  C   UNL     1       0.424   4.436  -7.502  0.00  0.00    +0.020 C 
ATOM     20  C   UNL     1       1.121   5.182  -8.642  0.00  0.00    +0.002 C 
ATOM     21  C   UNL     1       0.412   4.872  -9.962  0.00  0.00    -0.001 C 
ATOM     22  C   UNL     1       0.466   3.366 -10.229  0.00  0.00    -0.014 C 
ATOM     23  C   UNL     1      -0.231   2.621  -9.088  0.00  0.00    -0.055 C 
BRANCH  23  24
ATOM     24  N   UNL     1      -0.179   1.176  -9.345  0.00  0.00    +0.381 N 
ATOM     25  H   UNL     1      -0.639   0.684  -8.593  0.00  0.00    -0.090 HD
ATOM     26  H   UNL     1      -0.647   0.971 -10.215  0.00  0.00    -0.090 HD
ATOM     27  H   UNL     1       0.783   0.878  -9.402  0.00  0.00    -0.090 HD
ENDBRANCH  23  24
ENDBRANCH  16  18
ENDBRANCH   5  16
TORSDOF 5
