REMARK  Name = ZINC39710634
REMARK  12 active torsions:
REMARK  status: ('A' for Active; 'I' for Inactive)
REMARK    1  A    between atoms: C_1  and  C_2
REMARK    2  A    between atoms: C_7  and  C_14
REMARK    3  A    between atoms: C_14  and  C_16
REMARK    4  A    between atoms: C_14  and  N_26
REMARK    5  A    between atoms: N_21  and  C_22
REMARK    6  A    between atoms: C_22  and  C_23
REMARK    7  A    between atoms: C_22  and  C_24
REMARK    8  A    between atoms: C_22  and  C_25
REMARK    9  A    between atoms: N_26  and  C_27
REMARK   10  A    between atoms: N_26  and  C_34
REMARK   11  A    between atoms: C_27  and  C_28
REMARK   12  A    between atoms: C_34  and  C_35
REMARK                            x       y       z     vdW  Elec       q    Type
REMARK                         _______ _______ _______ _____ _____    ______ ____
ROOT
ATOM      1  C   UNL     1      -1.281  -6.156   1.509  0.00  0.00    -0.009 C 
ENDROOT
BRANCH   1   8
ATOM      2  C   UNL     1       0.417   0.265  -1.970  0.00  0.00    +0.044 C 
ATOM      3  C   UNL     1       0.334  -1.163  -1.494  0.00  0.00    -0.049 A 
ATOM      4  C   UNL     1       0.358  -2.187  -2.442  0.00  0.00    +0.004 A 
ATOM      5  C   UNL     1       0.286  -3.492  -2.075  0.00  0.00    +0.010 A 
ATOM      6  C   UNL     1       0.182  -3.821  -0.653  0.00  0.00    -0.007 A 
ATOM      7  C   UNL     1       0.108  -5.117  -0.238  0.00  0.00    -0.006 C 
ATOM      8  C   UNL     1       0.003  -5.365   1.254  0.00  0.00    +0.088 C 
ATOM      9  C   UNL     1      -0.011  -4.154   2.160  0.00  0.00    +0.223 C 
ATOM     10  O   UNL     1      -0.093  -4.295   3.365  0.00  0.00    -0.275 OA
ATOM     11  N   UNL     1       0.067  -2.942   1.636  0.00  0.00    -0.285 N 
ATOM     12  C   UNL     1       0.159  -2.720   0.326  0.00  0.00    +0.041 A 
ATOM     13  C   UNL     1       0.244  -1.402  -0.160  0.00  0.00    +0.027 A 
ATOM     14  H   UNL     1       0.056  -2.179   2.235  0.00  0.00    +0.155 HD
ENDBRANCH   1   8
BRANCH   1  15
ATOM     15  C   UNL     1      -1.223  -7.482   0.747  0.00  0.00    +0.205 C 
ATOM     16  N   UNL     1       0.142  -8.023   0.764  0.00  0.00    -0.152 NA
ATOM     17  N   UNL     1       0.552  -8.107  -0.396  0.00  0.00    -0.070 NA
ATOM     18  N   UNL     1      -0.383  -7.673  -1.335  0.00  0.00    -0.179 N 
ATOM     19  N   UNL     1      -1.523  -7.268  -0.684  0.00  0.00    -0.183 NA
ATOM     20  H   UNL     1      -0.251  -7.660  -2.295  0.00  0.00    +0.191 HD
BRANCH  19  21
ATOM     21  C   UNL     1      -2.683  -8.065  -1.104  0.00  0.00    +0.035 C 
ATOM     22  C   UNL     1      -3.890  -7.705  -0.236  0.00  0.00    +0.029 C 
ATOM     23  C   UNL     1      -3.002  -7.767  -2.571  0.00  0.00    +0.029 C 
ATOM     24  C   UNL     1      -2.365  -9.553  -0.944  0.00  0.00    +0.029 C 
ENDBRANCH  19  21
ENDBRANCH   1  15
BRANCH   1  25
ATOM     25  N   UNL     1      -1.414  -6.423   2.947  0.00  0.00    +0.390 N 
ATOM     26  H   UNL     1      -1.268  -5.568   3.463  0.00  0.00    -0.080 HD
BRANCH  25  27
ATOM     27  C   UNL     1      -2.760  -6.940   3.227  0.00  0.00    -0.040 C 
BRANCH  27  28
ATOM     28  C   UNL     1      -2.943  -7.085   4.716  0.00  0.00    -0.046 A 
ATOM     29  C   UNL     1      -2.606  -8.270   5.353  0.00  0.00    +0.005 A 
ATOM     30  C   UNL     1      -2.791  -8.358   6.724  0.00  0.00    +0.020 A 
ATOM     31  C   UNL     1      -3.303  -7.270   7.406  0.00  0.00    +0.111 A 
ATOM     32  N   UNL     1      -3.614  -6.159   6.767  0.00  0.00    -0.263 NA
ATOM     33  C   UNL     1      -3.445  -6.037   5.465  0.00  0.00    +0.112 A 
ENDBRANCH  27  28
ENDBRANCH  25  27
BRANCH  25  34
ATOM     34  C   UNL     1      -0.413  -7.418   3.355  0.00  0.00    -0.040 C 
BRANCH  34  35
ATOM     35  C   UNL     1       0.883  -6.722   3.682  0.00  0.00    -0.046 A 
ATOM     36  C   UNL     1       1.937  -6.767   2.788  0.00  0.00    +0.003 A 
ATOM     37  C   UNL     1       3.125  -6.128   3.088  0.00  0.00    +0.000 A 
ATOM     38  C   UNL     1       3.261  -5.444   4.282  0.00  0.00    +0.001 A 
ATOM     39  C   UNL     1       2.208  -5.398   5.176  0.00  0.00    +0.020 A 
ATOM     40  C   UNL     1       1.016  -6.032   4.874  0.00  0.00    +0.042 A 
ATOM     41 CL   UNL     1      -0.309  -5.970   5.994  0.00  0.00    -0.083 Cl
ENDBRANCH  34  35
ENDBRANCH  25  34
ENDBRANCH   1  25
TORSDOF 8
