REMARK  Name = ZINC16496608
REMARK  11 active torsions:
REMARK  status: ('A' for Active; 'I' for Inactive)
REMARK    1  A    between atoms: C_1  and  O_2
REMARK    2  A    between atoms: O_2  and  C_3
REMARK    3  A    between atoms: C_5  and  C_12
REMARK    4  A    between atoms: C_7  and  O_10
REMARK    5  A    between atoms: O_10  and  C_11
REMARK    6  A    between atoms: N_14  and  C_15
REMARK    7  A    between atoms: C_15  and  C_16
REMARK    8  A    between atoms: C_16  and  N_17
REMARK    9  A    between atoms: N_17  and  C_18
REMARK   10  A    between atoms: C_21  and  C_27
REMARK   11  A    between atoms: C_23  and  N_24
REMARK                            x       y       z     vdW  Elec       q    Type
REMARK                         _______ _______ _______ _____ _____    ______ ____
ROOT
ATOM      1  C   UNL     1       2.438  -4.437  -1.064  0.00  0.00    +0.123 C 
ENDROOT
BRANCH   1   4
ATOM      2  C   UNL     1       1.222  -2.381  -1.546  0.00  0.00    +0.244 C 
ATOM      3  O   UNL     1       0.192  -3.027  -1.552  0.00  0.00    -0.270 OA
ATOM      4  N   UNL     1       2.399  -2.993  -1.311  0.00  0.00    -0.310 N 
ATOM      5  H   UNL     1       3.221  -2.478  -1.306  0.00  0.00    +0.149 HD
BRANCH   2   8
ATOM      6  C   UNL     1      -0.069   1.075  -2.270  0.00  0.00    +0.138 A 
ATOM      7  C   UNL     1      -0.036  -0.289  -2.038  0.00  0.00    +0.060 A 
ATOM      8  C   UNL     1       1.182  -0.925  -1.795  0.00  0.00    +0.044 A 
ATOM      9  C   UNL     1       2.363  -0.181  -1.787  0.00  0.00    +0.060 A 
ATOM     10  C   UNL     1       2.322   1.183  -2.020  0.00  0.00    +0.138 A 
ATOM     11  C   UNL     1       1.108   1.811  -2.261  0.00  0.00    +0.101 A 
ATOM     12 BR   UNL     1       1.058   3.675  -2.580  0.00  0.00    -0.043 Br
BRANCH   6  14
ATOM     13  C   UNL     1      -2.426   0.876  -2.512  0.00  0.00    +0.277 C 
ATOM     14  O   UNL     1      -1.254   1.694  -2.512  0.00  0.00    -0.494 OA
ENDBRANCH   6  14
BRANCH  10  15
ATOM     15  O   UNL     1       3.472   1.907  -2.013  0.00  0.00    -0.494 OA
ATOM     16  C   UNL     1       4.686   1.196  -1.759  0.00  0.00    +0.277 C 
ENDBRANCH  10  15
ENDBRANCH   2   8
ENDBRANCH   1   4
BRANCH   1  17
ATOM     17  C   UNL     1       3.885  -4.875  -0.829  0.00  0.00    +0.120 C 
BRANCH  17  18
ATOM     18  N   UNL     1       3.924  -6.319  -0.582  0.00  0.00    -0.341 N 
ATOM     19  H   UNL     1       3.102  -6.834  -0.587  0.00  0.00    +0.146 HD
BRANCH  18  20
ATOM     20  C   UNL     1       5.144  -6.953  -0.339  0.00  0.00    +0.058 A 
ATOM     21  C   UNL     1       6.333  -6.242  -0.451  0.00  0.00    +0.026 A 
ATOM     22  C   UNL     1       7.538  -6.872  -0.210  0.00  0.00    +0.014 A 
ATOM     23  C   UNL     1       7.562  -8.209   0.142  0.00  0.00    +0.057 A 
ATOM     24  C   UNL     1       6.381  -8.920   0.255  0.00  0.00    +0.047 A 
ATOM     25  C   UNL     1       5.172  -8.294   0.021  0.00  0.00    +0.147 A 
BRANCH  23  26
ATOM     26  C   UNL     1       8.879  -8.894   0.405  0.00  0.00    +0.417 C 
ATOM     27  F   UNL     1       9.923  -7.979   0.231  0.00  0.00    -0.166 F 
ATOM     28  F   UNL     1       8.899  -9.379   1.716  0.00  0.00    -0.166 F 
ATOM     29  F   UNL     1       9.038  -9.958  -0.489  0.00  0.00    -0.166 F 
ENDBRANCH  23  26
BRANCH  25  30
ATOM     30  N   UNL     1       3.908  -9.054   0.147  0.00  0.00    +0.058 N 
ATOM     31  O   UNL     1       2.919  -8.517   0.613  0.00  0.00    -0.126 OA
ATOM     32  O   UNL     1       3.857 -10.216  -0.215  0.00  0.00    -0.126 OA
ENDBRANCH  25  30
ENDBRANCH  18  20
ENDBRANCH  17  18
ENDBRANCH   1  17
TORSDOF 9
