REMARK  Name = ZINC09665629
REMARK  12 active torsions:
REMARK  status: ('A' for Active; 'I' for Inactive)
REMARK    1  A    between atoms: C_1  and  C_2
REMARK    2  A    between atoms: C_2  and  O_3
REMARK    3  A    between atoms: O_3  and  C_4
REMARK    4  A    between atoms: C_4  and  C_6
REMARK    5  A    between atoms: C_10  and  N_11
REMARK    6  A    between atoms: C_12  and  C_14
REMARK    7  A    between atoms: C_14  and  C_16
REMARK    8  A    between atoms: C_14  and  S_17
REMARK    9  A    between atoms: S_17  and  C_18
REMARK   10  A    between atoms: C_21  and  C_24
REMARK   11  A    between atoms: N_22  and  C_23
REMARK   12  A    between atoms: C_29  and  C_33
REMARK                            x       y       z     vdW  Elec       q    Type
REMARK                         _______ _______ _______ _____ _____    ______ ____
ROOT
ATOM      1  N   UNL     1      -2.307  -5.916   0.764  0.00  0.00    -0.278 N 
ATOM      2  C   UNL     1      -3.572  -6.203   0.398  0.00  0.00    +0.231 C 
ATOM      3  O   UNL     1      -4.300  -5.323  -0.011  0.00  0.00    -0.274 OA
ATOM      4  H   UNL     1      -1.725  -6.620   1.091  0.00  0.00    +0.155 HD
ENDROOT
BRANCH   1   9
ATOM      5  C   UNL     1      -0.579  -4.127   1.000  0.00  0.00    +0.091 A 
ATOM      6  C   UNL     1      -0.341  -2.706   0.810  0.00  0.00    -0.021 A 
ATOM      7  C   UNL     1      -1.390  -2.006   0.327  0.00  0.00    -0.004 A 
ATOM      8  S   UNL     1      -2.679  -3.203   0.126  0.00  0.00    -0.077 S 
ATOM      9  C   UNL     1      -1.838  -4.615   0.674  0.00  0.00    +0.086 A 
ATOM     10  C   UNL     1      -1.437  -0.538   0.030  0.00  0.00    +0.046 C 
ATOM     11  C   UNL     1       0.002  -0.004   0.002  0.00  0.00    -0.009 C 
ATOM     12  C   UNL     1       0.742  -0.514   1.242  0.00  0.00    +0.008 C 
ATOM     13  C   UNL     1       0.984  -2.020   1.120  0.00  0.00    +0.037 C 
ATOM     14  C   UNL     1      -0.019   1.526   0.010  0.00  0.00    +0.008 C 
BRANCH   5  15
ATOM     15  C   UNL     1       0.468  -5.010   1.516  0.00  0.00    +0.342 C 
ATOM     16  O   UNL     1       0.575  -5.191   2.715  0.00  0.00    -0.245 OA
BRANCH  15  17
ATOM     17  O   UNL     1       1.313  -5.625   0.664  0.00  0.00    -0.461 OA
BRANCH  17  19
ATOM     18  C   UNL     1       3.185  -7.090   0.132  0.00  0.00    +0.048 C 
ATOM     19  C   UNL     1       2.327  -6.486   1.246  0.00  0.00    +0.229 C 
ENDBRANCH  17  19
ENDBRANCH  15  17
ENDBRANCH   5  15
ENDBRANCH   1   9
BRANCH   2  20
ATOM     20  C   UNL     1      -4.082  -7.618   0.497  0.00  0.00    +0.137 C 
ATOM     21  C   UNL     1      -3.591  -8.422  -0.709  0.00  0.00    +0.029 C 
BRANCH  20  22
ATOM     22  S   UNL     1      -5.892  -7.606   0.518  0.00  0.00    -0.074 S 
BRANCH  22  23
ATOM     23  C   UNL     1      -6.206  -9.319   0.785  0.00  0.00    +0.192 A 
ATOM     24  N   UNL     1      -5.306 -10.266   0.920  0.00  0.00    -0.122 NA
ATOM     25  N   UNL     1      -5.887 -11.398   1.101  0.00  0.00    -0.124 NA
ATOM     26  C   UNL     1      -7.181 -11.243   1.092  0.00  0.00    +0.238 A 
ATOM     27  N   UNL     1      -7.431  -9.912   0.897  0.00  0.00    -0.302 N 
ATOM     28  C   UNL     1      -8.740  -9.260   0.820  0.00  0.00    +0.153 C 
BRANCH  26  29
ATOM     29  C   UNL     1      -8.212 -12.328   1.272  0.00  0.00    +0.452 C 
ATOM     30  F   UNL     1      -7.597 -13.475   1.786  0.00  0.00    -0.163 F 
ATOM     31  F   UNL     1      -9.200 -11.890   2.160  0.00  0.00    -0.163 F 
ATOM     32  F   UNL     1      -8.795 -12.625   0.035  0.00  0.00    -0.163 F 
ENDBRANCH  26  29
ENDBRANCH  22  23
ENDBRANCH  20  22
ENDBRANCH   2  20
TORSDOF 8
