REMARK  Name = ZINC65466613
REMARK  4 active torsions:
REMARK  status: ('A' for Active; 'I' for Inactive)
REMARK    1  A    between atoms: C_1  and  C_2
REMARK    2  A    between atoms: C_7  and  O_8
REMARK    3  A    between atoms: C_13  and  C_15
REMARK    4  A    between atoms: C_19  and  C_26
REMARK                            x       y       z     vdW  Elec       q    Type
REMARK                         _______ _______ _______ _____ _____    ______ ____
ROOT
ATOM      1  C   UNL     1      -0.018   1.503   0.010  0.00  0.00    +0.047 C 
ATOM      2  C   UNL     1       0.002  -0.004   0.002  0.00  0.00    -0.009 A 
ATOM      3  C   UNL     1       0.006  -0.688  -1.199  0.00  0.00    +0.013 A 
ATOM      4  C   UNL     1       0.024  -2.068  -1.210  0.00  0.00    -0.018 A 
ATOM      5  C   UNL     1       0.040  -2.774  -0.014  0.00  0.00    +0.041 A 
ATOM      6  C   UNL     1       0.037  -2.090   1.193  0.00  0.00    +0.069 A 
ATOM      7  C   UNL     1       0.023  -0.703   1.200  0.00  0.00    +0.122 A 
ATOM      8  N   UNL     1       0.059  -4.172  -0.028  0.00  0.00    -0.285 N 
ATOM      9  C   UNL     1      -0.306  -4.848  -1.133  0.00  0.00    +0.218 C 
ATOM     10  O   UNL     1      -0.269  -6.060  -1.134  0.00  0.00    -0.275 OA
ATOM     11  C   UNL     1      -0.759  -4.117  -2.368  0.00  0.00    +0.109 C 
ATOM     12  C   UNL     1       0.028  -2.814  -2.520  0.00  0.00    +0.060 C 
ATOM     13  H   UNL     1       0.337  -4.658   0.764  0.00  0.00    +0.155 HD
ENDROOT
BRANCH  12  14
ATOM     14  C   UNL     1       1.447  -3.129  -2.915  0.00  0.00    -0.036 A 
ATOM     15  C   UNL     1       2.235  -3.911  -2.082  0.00  0.00    +0.005 A 
ATOM     16  C   UNL     1       3.524  -4.207  -2.424  0.00  0.00    +0.012 A 
ATOM     17  C   UNL     1       4.054  -3.718  -3.622  0.00  0.00    +0.021 A 
ATOM     18  C   UNL     1       5.433  -4.018  -4.018  0.00  0.00    -0.033 A 
ATOM     19  C   UNL     1       5.887  -3.514  -5.194  0.00  0.00    +0.096 A 
ATOM     20  C   UNL     1       5.033  -2.725  -5.994  0.00  0.00    +0.337 A 
ATOM     21  O   UNL     1       5.452  -2.278  -7.047  0.00  0.00    -0.245 OA
ATOM     22  O   UNL     1       3.771  -2.455  -5.626  0.00  0.00    -0.422 OA
ATOM     23  C   UNL     1       3.259  -2.925  -4.469  0.00  0.00    +0.140 A 
ATOM     24  C   UNL     1       1.949  -2.641  -4.104  0.00  0.00    +0.051 A 
ATOM     25  C   UNL     1       6.323  -4.863  -3.144  0.00  0.00    +0.045 C 
ENDBRANCH  12  14
BRANCH   7  26
ATOM     26  O   UNL     1       0.025  -0.030   2.381  0.00  0.00    -0.506 OA
ATOM     27  H   UNL     1      -0.858   0.153   2.731  0.00  0.00    +0.292 HD
ENDBRANCH   7  26
TORSDOF 2
