REMARK  Name = ZINC13499079
REMARK  14 active torsions:
REMARK  status: ('A' for Active; 'I' for Inactive)
REMARK    1  A    between atoms: C_1  and  C_2
REMARK    2  A    between atoms: C_4  and  C_35
REMARK    3  A    between atoms: C_7  and  C_14
REMARK    4  A    between atoms: C_14  and  N_67
REMARK    5  A    between atoms: C_15  and  C_16
REMARK    6  A    between atoms: C_15  and  N_67
REMARK    7  A    between atoms: C_16  and  O_17
REMARK    8  A    between atoms: C_18  and  C_20
REMARK    9  A    between atoms: C_18  and  C_32
REMARK   10  A    between atoms: C_18  and  N_67
REMARK   11  A    between atoms: N_24  and  C_25
REMARK   12  A    between atoms: C_25  and  C_26
REMARK   13  A    between atoms: C_32  and  C_33
REMARK   14  A    between atoms: C_32  and  C_34
REMARK                            x       y       z     vdW  Elec       q    Type
REMARK                         _______ _______ _______ _____ _____    ______ ____
ROOT
ATOM      1  N   UNL     1       2.847   1.353   1.163  0.00  0.00    +0.391 N 
ATOM      2  H   UNL     1       1.965   0.834   1.241  0.00  0.00    -0.080 HD
ENDROOT
BRANCH   1   3
ATOM      3  C   UNL     1       2.835   2.134  -0.092  0.00  0.00    -0.036 C 
BRANCH   3  10
ATOM      4  C   UNL     1      -3.822   6.515  -0.429  0.00  0.00    +0.044 C 
ATOM      5  C   UNL     1      -2.465   5.878  -0.275  0.00  0.00    -0.048 A 
ATOM      6  C   UNL     1      -1.415   6.618   0.254  0.00  0.00    +0.007 A 
ATOM      7  C   UNL     1      -0.177   6.060   0.401  0.00  0.00    -0.041 A 
ATOM      8  C   UNL     1       0.035   4.731   0.017  0.00  0.00    +0.002 A 
ATOM      9  C   UNL     1       1.349   4.102   0.162  0.00  0.00    +0.017 A 
ATOM     10  C   UNL     1       1.496   2.812  -0.228  0.00  0.00    +0.001 A 
ATOM     11  C   UNL     1       0.399   2.101  -0.759  0.00  0.00    +0.251 A 
ATOM     12  O   UNL     1       0.552   0.942  -1.103  0.00  0.00    -0.268 OA
ATOM     13  N   UNL     1      -0.811   2.671  -0.900  0.00  0.00    -0.322 N 
ATOM     14  H   UNL     1      -1.542   2.155  -1.272  0.00  0.00    +0.169 HD
ATOM     15  C   UNL     1      -1.026   3.978  -0.518  0.00  0.00    +0.050 A 
ATOM     16  C   UNL     1      -2.279   4.568  -0.659  0.00  0.00    +0.029 A 
ATOM     17  C   UNL     1       0.955   6.872   0.975  0.00  0.00    +0.044 C 
ENDBRANCH   3  10
ENDBRANCH   1   3
BRANCH   1  18
ATOM     18  C   UNL     1       2.972   2.262   2.322  0.00  0.00    -0.049 C 
BRANCH  18  19
ATOM     19  C   UNL     1       2.518   1.519   3.580  0.00  0.00    +0.137 C 
BRANCH  19  20
ATOM     20  O   UNL     1       3.451   0.480   3.882  0.00  0.00    -0.397 OA
ATOM     21  H   UNL     1       3.226  -0.034   4.670  0.00  0.00    +0.209 HD
ENDBRANCH  19  20
ENDBRANCH  18  19
ENDBRANCH   1  18
BRANCH   1  22
ATOM     22  C   UNL     1       3.970   0.393   1.151  0.00  0.00    +0.006 C 
BRANCH  22  23
ATOM     23  C   UNL     1       5.267   1.102   0.854  0.00  0.00    +0.138 A 
ATOM     24  N   UNL     1       5.521   1.868  -0.179  0.00  0.00    -0.115 NA
ATOM     25  N   UNL     1       6.736   2.286  -0.075  0.00  0.00    -0.023 NA
ATOM     26  N   UNL     1       7.263   1.806   0.997  0.00  0.00    -0.044 NA
ATOM     27  N   UNL     1       6.387   1.075   1.600  0.00  0.00    -0.228 N 
BRANCH  27  28
ATOM     28  C   UNL     1       6.577   0.349   2.858  0.00  0.00    +0.178 C 
BRANCH  28  29
ATOM     29  C   UNL     1       7.200  -1.018   2.570  0.00  0.00    +0.140 C 
ATOM     30  C   UNL     1       7.355  -1.812   3.885  0.00  0.00    +0.035 C 
ATOM     31  C   UNL     1       8.729  -2.508   3.690  0.00  0.00    +0.031 C 
ATOM     32  C   UNL     1       9.492  -1.431   2.880  0.00  0.00    +0.160 C 
ATOM     33  O   UNL     1       8.508  -0.847   2.011  0.00  0.00    -0.375 OA
ENDBRANCH  28  29
ENDBRANCH  27  28
ENDBRANCH  22  23
BRANCH  22  34
ATOM     34  C   UNL     1       3.707  -0.661   0.074  0.00  0.00    -0.024 C 
ATOM     35  C   UNL     1       4.831  -1.698   0.090  0.00  0.00    +0.006 C 
ATOM     36  C   UNL     1       2.371  -1.353   0.353  0.00  0.00    +0.006 C 
ENDBRANCH  22  34
ENDBRANCH   1  22
TORSDOF 10
