REMARK  Name = ZINC22344743
REMARK  9 active torsions:
REMARK  status: ('A' for Active; 'I' for Inactive)
REMARK    1  A    between atoms: C_1  and  C_2
REMARK    2  A    between atoms: C_2  and  C_3
REMARK    3  A    between atoms: C_3  and  C_4
REMARK    4  A    between atoms: C_4  and  N_5
REMARK    5  A    between atoms: N_5  and  C_6
REMARK    6  A    between atoms: C_6  and  C_7
REMARK    7  A    between atoms: C_8  and  C_10
REMARK    8  A    between atoms: C_12  and  C_15
REMARK    9  A    between atoms: C_18  and  C_21
REMARK                            x       y       z     vdW  Elec       q    Type
REMARK                         _______ _______ _______ _____ _____    ______ ____
ROOT
ATOM      1  C   UNL     1      -1.376   1.938  -0.326  0.00  0.00    +0.168 A 
ATOM      2  C   UNL     1      -1.596   3.313  -0.601  0.00  0.00    +0.086 A 
ATOM      3  C   UNL     1      -2.957   3.419  -0.669  0.00  0.00    +0.168 A 
ATOM      4  O   UNL     1      -3.444   2.187  -0.439  0.00  0.00    -0.354 OA
ATOM      5  N   UNL     1      -2.561   1.384  -0.252  0.00  0.00    -0.073 NA
ENDROOT
BRANCH   3   6
ATOM      6  C   UNL     1      -3.738   4.645  -0.936  0.00  0.00    +0.020 A 
ATOM      7  C   UNL     1      -3.085   5.859  -1.152  0.00  0.00    +0.012 A 
ATOM      8  C   UNL     1      -3.819   6.999  -1.407  0.00  0.00    +0.004 A 
ATOM      9  C   UNL     1      -5.202   6.942  -1.437  0.00  0.00    -0.044 A 
ATOM     10  C   UNL     1      -5.856   5.743  -1.218  0.00  0.00    +0.004 A 
ATOM     11  C   UNL     1      -5.133   4.595  -0.968  0.00  0.00    +0.012 A 
BRANCH   9  12
ATOM     12  C   UNL     1      -5.998   8.193  -1.709  0.00  0.00    +0.019 C 
ATOM     13  C   UNL     1      -5.619   8.750  -3.082  0.00  0.00    +0.008 C 
ATOM     14  C   UNL     1      -6.427  10.019  -3.359  0.00  0.00    +0.001 C 
ATOM     15  C   UNL     1      -6.121  11.063  -2.283  0.00  0.00    +0.000 C 
ATOM     16  C   UNL     1      -6.501  10.506  -0.909  0.00  0.00    +0.001 C 
ATOM     17  C   UNL     1      -5.692   9.236  -0.633  0.00  0.00    +0.008 C 
ENDBRANCH   9  12
ENDBRANCH   3   6
BRANCH   1  19
ATOM     18  N   UNL     1      -0.018  -0.031   0.215  0.00  0.00    -0.296 N 
ATOM     19  C   UNL     1      -0.066   1.264  -0.152  0.00  0.00    +0.268 C 
ATOM     20  O   UNL     1       0.964   1.879  -0.345  0.00  0.00    -0.268 OA
BRANCH  18  21
ATOM     21  C   UNL     1      -1.252  -0.741   0.561  0.00  0.00    +0.105 C 
ATOM     22  C   UNL     1      -1.883  -1.314  -0.710  0.00  0.00    +0.024 C 
ENDBRANCH  18  21
BRANCH  18  23
ATOM     23  C   UNL     1       1.268  -0.731   0.269  0.00  0.00    +0.108 C 
BRANCH  23  24
ATOM     24  C   UNL     1       1.874  -0.578   1.665  0.00  0.00    +0.019 C 
BRANCH  24  26
ATOM     25  C   UNL     1       3.823  -1.156   3.118  0.00  0.00    +0.004 C 
ATOM     26  C   UNL     1       3.217  -1.308   1.721  0.00  0.00    -0.002 C 
ENDBRANCH  24  26
ENDBRANCH  23  24
ENDBRANCH  18  23
ENDBRANCH   1  19
TORSDOF 7
