REMARK  Name = ZINC32979157
REMARK  8 active torsions:
REMARK  status: ('A' for Active; 'I' for Inactive)
REMARK    1  A    between atoms: C_1  and  C_2
REMARK    2  A    between atoms: C_5  and  C_7
REMARK    3  A    between atoms: N_9  and  C_10
REMARK    4  A    between atoms: C_14  and  C_16
REMARK    5  A    between atoms: N_18  and  C_19
REMARK    6  A    between atoms: C_19  and  C_20
REMARK    7  A    between atoms: C_20  and  N_21
REMARK    8  A    between atoms: C_25  and  C_26
REMARK                            x       y       z     vdW  Elec       q    Type
REMARK                         _______ _______ _______ _____ _____    ______ ____
ROOT
ATOM      1  C   UNL     1      -1.317   3.561   0.091  0.00  0.00    +0.244 C 
ATOM      2  O   UNL     1      -1.189   2.360  -0.042  0.00  0.00    -0.270 OA
ATOM      3  N   UNL     1      -2.520   4.080   0.408  0.00  0.00    -0.310 N 
ATOM      4  H   UNL     1      -2.636   5.167   0.528  0.00  0.00    +0.149 HD
ENDROOT
BRANCH   1   9
ATOM      5  C   UNL     1       2.174   4.764  -0.618  0.00  0.00    +0.034 A 
ATOM      6  C   UNL     1       2.020   6.137  -0.465  0.00  0.00    +0.023 A 
ATOM      7  C   UNL     1       0.787   6.666  -0.133  0.00  0.00    +0.003 A 
ATOM      8  C   UNL     1      -0.300   5.834   0.048  0.00  0.00    +0.013 A 
ATOM      9  C   UNL     1      -0.155   4.454  -0.103  0.00  0.00    +0.038 A 
ATOM     10  C   UNL     1       1.091   3.920  -0.432  0.00  0.00    +0.036 A 
BRANCH   5  13
ATOM     11  C   UNL     1       3.505   3.145  -1.745  0.00  0.00    +0.221 C 
ATOM     12  O   UNL     1       2.499   2.674  -2.232  0.00  0.00    -0.275 OA
ATOM     13  N   UNL     1       3.425   4.234  -0.954  0.00  0.00    -0.285 N 
ATOM     14  H   UNL     1       4.343   4.705  -0.573  0.00  0.00    +0.155 HD
BRANCH  11  18
ATOM     15  C   UNL     1       3.532   0.783  -3.483  0.00  0.00    +0.008 C 
ATOM     16  C   UNL     1       4.869   1.281  -2.930  0.00  0.00    -0.002 C 
ATOM     17  C   UNL     1       5.393   2.621  -3.449  0.00  0.00    +0.017 C 
ATOM     18  C   UNL     1       4.844   2.514  -2.025  0.00  0.00    +0.078 C 
ENDBRANCH  11  18
ENDBRANCH   5  13
ENDBRANCH   1   9
BRANCH   3  19
ATOM     19  C   UNL     1      -3.673   3.195   0.595  0.00  0.00    +0.124 C 
BRANCH  19  20
ATOM     20  C   UNL     1      -4.905   4.031   0.947  0.00  0.00    +0.136 C 
BRANCH  20  21
ATOM     21  N   UNL     1      -6.059   3.146   1.133  0.00  0.00    -0.227 N 
ATOM     22  C   UNL     1      -6.312   2.660   2.336  0.00  0.00    +0.260 C 
ATOM     23  O   UNL     1      -5.612   2.927   3.294  0.00  0.00    -0.269 OA
ATOM     24  C   UNL     1      -7.489   1.775   2.457  0.00  0.00    +0.080 C 
ATOM     25  C   UNL     1      -7.986   1.140   3.548  0.00  0.00    +0.028 C 
ATOM     26  S   UNL     1      -8.079   1.770   0.769  0.00  0.00    -0.026 S 
ATOM     27  C   UNL     1      -6.840   2.851   0.074  0.00  0.00    +0.286 C 
ATOM     28  O   UNL     1      -6.727   3.229  -1.077  0.00  0.00    -0.262 OA
BRANCH  25  29
ATOM     29  C   UNL     1      -9.281   0.451   3.471  0.00  0.00    -0.024 A 
ATOM     30  C   UNL     1     -10.166   0.731   2.423  0.00  0.00    +0.009 A 
ATOM     31  C   UNL     1     -11.377   0.076   2.355  0.00  0.00    +0.020 A 
ATOM     32  C   UNL     1     -11.724  -0.848   3.327  0.00  0.00    +0.041 A 
ATOM     33  C   UNL     1     -10.857  -1.126   4.371  0.00  0.00    +0.020 A 
ATOM     34  C   UNL     1      -9.640  -0.484   4.449  0.00  0.00    +0.009 A 
ATOM     35 CL   UNL     1     -13.255  -1.663   3.236  0.00  0.00    -0.084 Cl
ENDBRANCH  25  29
ENDBRANCH  20  21
ENDBRANCH  19  20
ENDBRANCH   3  19
TORSDOF 7
