REMARK  Name = ZINC12428478
REMARK  6 active torsions:
REMARK  status: ('A' for Active; 'I' for Inactive)
REMARK    1  A    between atoms: C_3  and  O_32
REMARK    2  A    between atoms: C_4  and  C_8
REMARK    3  A    between atoms: N_9  and  N_10
REMARK    4  A    between atoms: C_11  and  C_13
REMARK    5  A    between atoms: C_14  and  C_24
REMARK    6  A    between atoms: C_24  and  N_25
REMARK                            x       y       z     vdW  Elec       q    Type
REMARK                         _______ _______ _______ _____ _____    ______ ____
ROOT
ATOM      1  C   UNL     1       8.475  -0.736  -0.085  0.00  0.00    +0.170 A 
ATOM      2  C   UNL     1       9.712  -0.157  -0.089  0.00  0.00    +0.063 A 
ATOM      3  N   UNL     1      10.614  -1.164  -0.105  0.00  0.00    -0.194 N 
ATOM      4  N   UNL     1       9.883  -2.361  -0.110  0.00  0.00    -0.058 NA
ATOM      5  N   UNL     1       8.629  -2.071  -0.093  0.00  0.00    -0.124 NA
ATOM      6  C   UNL     1      12.007  -1.037  -0.114  0.00  0.00    +0.240 A 
ATOM      7  C   UNL     1      12.970  -2.142  -0.137  0.00  0.00    +0.206 A 
ATOM      8  N   UNL     1      14.173  -1.638  -0.140  0.00  0.00    -0.032 NA
ATOM      9  O   UNL     1      14.053  -0.227  -0.120  0.00  0.00    -0.239 OA
ATOM     10  N   UNL     1      12.671   0.085  -0.110  0.00  0.00    -0.027 NA
ATOM     11  N   UNL     1      12.654  -3.496  -0.153  0.00  0.00    -0.337 N 
ATOM     12  H   UNL     1      11.726  -3.777  -0.149  0.00  0.00    +0.144 HD
ATOM     13  H   UNL     1      13.362  -4.159  -0.168  0.00  0.00    +0.144 HD
ENDROOT
BRANCH   1  15
ATOM     14  N   UNL     1       6.030  -0.708  -0.061  0.00  0.00    -0.202 N 
ATOM     15  C   UNL     1       7.187  -0.017  -0.069  0.00  0.00    +0.285 C 
ATOM     16  O   UNL     1       7.170   1.199  -0.062  0.00  0.00    -0.267 OA
ATOM     17  H   UNL     1       6.044  -1.677  -0.066  0.00  0.00    +0.178 HD
BRANCH  14  19
ATOM     18  C   UNL     1       3.692  -0.690  -0.037  0.00  0.00    +0.142 C 
ATOM     19  N   UNL     1       4.806  -0.025  -0.045  0.00  0.00    -0.187 NA
BRANCH  18  23
ATOM     20  C   UNL     1      -0.017   1.381   0.010  0.00  0.00    +0.023 A 
ATOM     21  C   UNL     1       1.167   2.096   0.002  0.00  0.00    +0.047 A 
ATOM     22  C   UNL     1       2.381   1.430  -0.013  0.00  0.00    +0.126 A 
ATOM     23  C   UNL     1       2.405   0.029  -0.021  0.00  0.00    +0.037 A 
ATOM     24  C   UNL     1       1.204  -0.683  -0.013  0.00  0.00    +0.033 A 
ATOM     25  C   UNL     1       0.002  -0.004   0.002  0.00  0.00    +0.042 A 
ATOM     26 CL   UNL     1      -1.491  -0.889   0.012  0.00  0.00    -0.084 Cl
BRANCH  22  27
ATOM     27  O   UNL     1       3.543   2.132  -0.021  0.00  0.00    -0.506 OA
ATOM     28  H   UNL     1       3.889   2.331   0.860  0.00  0.00    +0.292 HD
ENDBRANCH  22  27
ENDBRANCH  18  23
ENDBRANCH  14  19
ENDBRANCH   1  15
BRANCH   2  29
ATOM     29  C   UNL     1      10.014   1.319  -0.078  0.00  0.00    -0.020 C 
BRANCH  29  30
ATOM     30  N   UNL     1      10.102   1.811  -1.460  0.00  0.00    +0.383 N 
ATOM     31  C   UNL     1      11.201   1.104  -2.145  0.00  0.00    -0.078 C 
ATOM     32  C   UNL     1      10.927   1.127  -3.628  0.00  0.00    -0.019 C 
ATOM     33  C   UNL     1      11.669   2.286  -4.320  0.00  0.00    -0.002 C 
ATOM     34  C   UNL     1      11.624   3.577  -3.478  0.00  0.00    -0.002 C 
ATOM     35  C   UNL     1      10.274   3.807  -2.849  0.00  0.00    -0.019 C 
ATOM     36  C   UNL     1      10.268   3.197  -1.432  0.00  0.00    -0.078 C 
ATOM     37  H   UNL     1       9.237   1.598  -1.934  0.00  0.00    -0.081 HD
ENDBRANCH  29  30
ENDBRANCH   2  29
TORSDOF 6
