REMARK  Name = ZINC05095386
REMARK  7 active torsions:
REMARK  status: ('A' for Active; 'I' for Inactive)
REMARK    1  A    between atoms: C_1  and  C_2
REMARK    2  A    between atoms: C_2  and  C_3
REMARK    3  A    between atoms: C_2  and  C_4
REMARK    4  A    between atoms: C_2  and  C_5
REMARK    5  A    between atoms: C_12  and  N_25
REMARK    6  A    between atoms: C_13  and  C_23
REMARK    7  A    between atoms: C_14  and  C_16
REMARK                            x       y       z     vdW  Elec       q    Type
REMARK                         _______ _______ _______ _____ _____    ______ ____
ROOT
ATOM      1  C   UNL     1       0.947  -0.939  -1.250  0.00  0.00    +0.076 A 
ATOM      2  C   UNL     1       1.081  -2.304  -1.462  0.00  0.00    +0.050 A 
ATOM      3  C   UNL     1       1.905  -2.488  -2.536  0.00  0.00    +0.222 A 
ATOM      4  N   UNL     1       2.273  -1.274  -2.978  0.00  0.00    -0.246 N 
ATOM      5  H   UNL     1       2.858  -1.093  -3.730  0.00  0.00    +0.192 HD
ATOM      6  N   UNL     1       1.655  -0.314  -2.161  0.00  0.00    -0.175 NA
ATOM      7  O   UNL     1       2.236  -3.717  -3.004  0.00  0.00    -0.423 OA
ATOM      8  C   UNL     1       1.518  -4.768  -2.559  0.00  0.00    +0.200 C 
ATOM      9  C   UNL     1       0.680  -4.713  -1.500  0.00  0.00    +0.098 C 
ATOM     10  C   UNL     1       0.470  -3.452  -0.700  0.00  0.00    +0.103 C 
ENDROOT
BRANCH  10  11
ATOM     11  C   UNL     1       1.139  -3.584   0.644  0.00  0.00    -0.016 A 
ATOM     12  C   UNL     1       2.518  -3.650   0.726  0.00  0.00    +0.006 A 
ATOM     13  C   UNL     1       3.132  -3.771   1.958  0.00  0.00    +0.000 A 
ATOM     14  C   UNL     1       2.368  -3.827   3.109  0.00  0.00    +0.001 A 
ATOM     15  C   UNL     1       0.990  -3.761   3.029  0.00  0.00    +0.020 A 
ATOM     16  C   UNL     1       0.375  -3.634   1.796  0.00  0.00    +0.045 A 
ATOM     17 CL   UNL     1      -1.356  -3.545   1.694  0.00  0.00    -0.083 Cl
ENDBRANCH  10  11
BRANCH   1  19
ATOM     18  C   UNL     1       0.073   1.224  -0.406  0.00  0.00    +0.017 C 
ATOM     19  C   UNL     1       0.125  -0.287  -0.168  0.00  0.00    +0.007 C 
ATOM     20  C   UNL     1       0.762  -0.567   1.194  0.00  0.00    +0.017 C 
ATOM     21  C   UNL     1      -1.295  -0.856  -0.193  0.00  0.00    +0.017 C 
ENDBRANCH   1  19
BRANCH   8  22
ATOM     22  N   UNL     1       1.645  -5.964  -3.221  0.00  0.00    -0.328 N 
ATOM     23  H   UNL     1       2.239  -6.035  -3.985  0.00  0.00    +0.145 HD
ATOM     24  H   UNL     1       1.142  -6.739  -2.924  0.00  0.00    +0.145 HD
ENDBRANCH   8  22
BRANCH   9  25
ATOM     25  C   UNL     1      -0.034  -5.896  -1.123  0.00  0.00    +0.101 C 
ATOM     26  N   UNL     1      -0.600  -6.834  -0.825  0.00  0.00    -0.191 NA
ENDBRANCH   9  25
TORSDOF 4
