REMARK  Name = ZINC64869884
REMARK  14 active torsions:
REMARK  status: ('A' for Active; 'I' for Inactive)
REMARK    1  A    between atoms: C_1  and  C_2
REMARK    2  A    between atoms: C_2  and  O_3
REMARK    3  A    between atoms: O_3  and  C_4
REMARK    4  A    between atoms: C_4  and  C_6
REMARK    5  A    between atoms: C_6  and  C_7
REMARK    6  A    between atoms: C_9  and  S_18
REMARK    7  A    between atoms: S_18  and  C_19
REMARK    8  A    between atoms: C_19  and  C_21
REMARK    9  A    between atoms: C_19  and  C_22
REMARK   10  A    between atoms: N_24  and  C_25
REMARK   11  A    between atoms: C_27  and  O_33
REMARK   12  A    between atoms: C_29  and  O_31
REMARK   13  A    between atoms: O_31  and  C_32
REMARK   14  A    between atoms: O_33  and  C_34
REMARK                            x       y       z     vdW  Elec       q    Type
REMARK                         _______ _______ _______ _____ _____    ______ ____
ROOT
ATOM      1  C   UNL     1       1.408  -4.025   2.992  0.00  0.00    +0.021 C 
ATOM      2  C   UNL     1       2.491  -4.604   2.460  0.00  0.00    +0.054 C 
ATOM      3  C   UNL     1       2.564  -6.044   2.253  0.00  0.00    +0.100 C 
ATOM      4  N   UNL     1       1.602  -6.806   1.839  0.00  0.00    -0.239 NA
ATOM      5  C   UNL     1       0.336  -6.425   1.504  0.00  0.00    +0.086 A 
ATOM      6  C   UNL     1      -0.287  -7.010   0.401  0.00  0.00    +0.029 A 
ATOM      7  C   UNL     1      -1.587  -6.668   0.074  0.00  0.00    +0.002 A 
ATOM      8  C   UNL     1      -2.276  -5.748   0.839  0.00  0.00    +0.002 A 
ATOM      9  C   UNL     1      -1.662  -5.147   1.927  0.00  0.00    +0.025 A 
ATOM     10  C   UNL     1      -0.357  -5.465   2.250  0.00  0.00    +0.057 A 
ATOM     11  N   UNL     1       0.292  -4.772   3.300  0.00  0.00    -0.316 N 
ATOM     12  H   UNL     1      -0.038  -4.820   4.211  0.00  0.00    +0.152 HD
ENDROOT
BRANCH   1  13
ATOM     13  C   UNL     1       1.412  -2.542   3.262  0.00  0.00    +0.171 C 
BRANCH  13  14
ATOM     14  C   UNL     1       0.781  -1.819   2.100  0.00  0.00    +0.313 C 
ATOM     15  O   UNL     1       0.370  -2.442   1.151  0.00  0.00    -0.250 OA
BRANCH  14  16
ATOM     16  O   UNL     1       0.675  -0.481   2.121  0.00  0.00    -0.465 OA
BRANCH  16  18
ATOM     17  C   UNL     1       0.034   1.656   1.190  0.00  0.00    +0.048 C 
ATOM     18  C   UNL     1       0.066   0.140   0.987  0.00  0.00    +0.229 C 
ENDBRANCH  16  18
ENDBRANCH  14  16
ENDBRANCH  13  14
ENDBRANCH   1  13
BRANCH   3  19
ATOM     19  S   UNL     1       4.106  -6.822   2.600  0.00  0.00    -0.093 S 
BRANCH  19  20
ATOM     20  C   UNL     1       3.807  -8.573   2.231  0.00  0.00    +0.136 C 
ATOM     21  C   UNL     1       2.771  -9.130   3.209  0.00  0.00    +0.029 C 
BRANCH  20  22
ATOM     22  C   UNL     1       5.095  -9.343   2.370  0.00  0.00    +0.230 C 
ATOM     23  O   UNL     1       5.976  -8.925   3.091  0.00  0.00    -0.274 OA
ATOM     24  N   UNL     1       5.267 -10.496   1.694  0.00  0.00    -0.284 N 
ATOM     25  H   UNL     1       4.536 -10.870   1.178  0.00  0.00    +0.155 HD
BRANCH  24  26
ATOM     26  C   UNL     1       6.502 -11.154   1.736  0.00  0.00    +0.040 A 
ATOM     27  C   UNL     1       6.552 -12.540   1.682  0.00  0.00    +0.069 A 
ATOM     28  C   UNL     1       7.775 -13.191   1.724  0.00  0.00    +0.125 A 
ATOM     29  C   UNL     1       8.948 -12.458   1.819  0.00  0.00    +0.091 A 
ATOM     30  C   UNL     1       8.899 -11.073   1.874  0.00  0.00    +0.125 A 
ATOM     31  C   UNL     1       7.677 -10.420   1.826  0.00  0.00    +0.069 A 
BRANCH  30  32
ATOM     32  O   UNL     1      10.049 -10.355   1.968  0.00  0.00    -0.495 OA
ATOM     33  C   UNL     1      11.273 -11.093   2.007  0.00  0.00    +0.277 C 
ENDBRANCH  30  32
BRANCH  28  34
ATOM     34  O   UNL     1       7.824 -14.548   1.671  0.00  0.00    -0.495 OA
ATOM     35  C   UNL     1       9.118 -15.153   1.718  0.00  0.00    +0.277 C 
ENDBRANCH  28  34
ENDBRANCH  24  26
ENDBRANCH  20  22
ENDBRANCH  19  20
ENDBRANCH   3  19
TORSDOF 10
