REMARK  Name = ZINC49735593
REMARK  4 active torsions:
REMARK  status: ('A' for Active; 'I' for Inactive)
REMARK    1  A    between atoms: N_11  and  C_14
REMARK    2  A    between atoms: N_21  and  C_22
REMARK    3  A    between atoms: C_22  and  C_24
REMARK    4  A    between atoms: C_24  and  N_25
REMARK                            x       y       z     vdW  Elec       q    Type
REMARK                         _______ _______ _______ _____ _____    ______ ____
ROOT
ATOM      1  C   UNL     1       0.106   1.326  -0.166  0.00  0.00    +0.001 A 
ATOM      2  C   UNL     1       1.306   2.024  -0.146  0.00  0.00    +0.002 A 
ATOM      3  C   UNL     1       2.508   1.355  -0.082  0.00  0.00    +0.026 A 
ATOM      4  C   UNL     1       2.524  -0.037  -0.036  0.00  0.00    +0.050 A 
ATOM      5  C   UNL     1       1.305  -0.736  -0.056  0.00  0.00    +0.022 A 
ATOM      6  C   UNL     1       0.098  -0.040  -0.121  0.00  0.00    +0.012 A 
ATOM      7  C   UNL     1       1.341  -2.208  -0.006  0.00  0.00    +0.072 A 
ATOM      8  C   UNL     1       2.590  -2.837   0.059  0.00  0.00    +0.016 A 
ATOM      9  C   UNL     1       3.753  -2.100   0.075  0.00  0.00    +0.109 A 
ATOM     10  N   UNL     1       3.709  -0.730   0.029  0.00  0.00    -0.342 N 
ATOM     11  N   UNL     1       4.868  -2.904   0.141  0.00  0.00    -0.286 N 
ATOM     12  C   UNL     1       4.483  -4.316   0.174  0.00  0.00    +0.117 C 
ATOM     13  C   UNL     1       2.946  -4.307   0.120  0.00  0.00    +0.060 C 
ATOM     14  N   UNL     1       0.207  -2.926  -0.022  0.00  0.00    -0.182 NA
ATOM     15  H   UNL     1       4.543  -0.234   0.042  0.00  0.00    +0.167 HD
ENDROOT
BRANCH  11  16
ATOM     16  C   UNL     1       6.186  -2.437   0.172  0.00  0.00    +0.036 A 
ATOM     17  C   UNL     1       6.637  -1.698   1.258  0.00  0.00    +0.023 A 
ATOM     18  C   UNL     1       7.939  -1.239   1.286  0.00  0.00    +0.003 A 
ATOM     19  C   UNL     1       8.794  -1.513   0.234  0.00  0.00    +0.020 A 
ATOM     20  C   UNL     1       8.348  -2.249  -0.850  0.00  0.00    +0.043 A 
ATOM     21  C   UNL     1       7.047  -2.717  -0.881  0.00  0.00    +0.043 A 
ATOM     22 CL   UNL     1       9.424  -2.590  -2.169  0.00  0.00    -0.083 Cl
ENDBRANCH  11  16
BRANCH  14  23
ATOM     23  C   UNL     1       0.260  -4.246  -0.125  0.00  0.00    +0.220 C 
ATOM     24  O   UNL     1       0.163  -4.939   0.870  0.00  0.00    -0.276 OA
BRANCH  23  25
ATOM     25  C   UNL     1       0.440  -4.889  -1.476  0.00  0.00    +0.021 C 
BRANCH  25  26
ATOM     26  N   UNL     1       0.588  -6.341  -1.312  0.00  0.00    +0.385 N 
ATOM     27  C   UNL     1      -0.649  -6.908  -0.826  0.00  0.00    -0.078 C 
ATOM     28  C   UNL     1      -0.386  -8.055   0.166  0.00  0.00    -0.019 C 
ATOM     29  C   UNL     1       0.774  -8.968  -0.277  0.00  0.00    -0.002 C 
ATOM     30  C   UNL     1       0.754  -9.286  -1.749  0.00  0.00    -0.002 C 
ATOM     31  C   UNL     1       1.597  -8.233  -2.509  0.00  0.00    -0.019 C 
ATOM     32  C   UNL     1       0.884  -6.964  -2.614  0.00  0.00    -0.078 C 
ATOM     33  H   UNL     1       1.335  -6.537  -0.661  0.00  0.00    -0.081 HD
ENDBRANCH  25  26
ENDBRANCH  23  25
ENDBRANCH  14  23
TORSDOF 4
