REMARK  Name = ZINC26574153
REMARK  11 active torsions:
REMARK  status: ('A' for Active; 'I' for Inactive)
REMARK    1  A    between atoms: C_1  and  N_2
REMARK    2  A    between atoms: N_2  and  C_3
REMARK    3  A    between atoms: C_8  and  C_10
REMARK    4  A    between atoms: C_10  and  C_12
REMARK    5  A    between atoms: C_10  and  N_21
REMARK    6  A    between atoms: C_12  and  C_13
REMARK    7  A    between atoms: C_16  and  C_19
REMARK    8  A    between atoms: C_19  and  N_20
REMARK    9  A    between atoms: N_21  and  S_22
REMARK   10  A    between atoms: S_22  and  C_25
REMARK   11  A    between atoms: C_28  and  C_30
REMARK                            x       y       z     vdW  Elec       q    Type
REMARK                         _______ _______ _______ _____ _____    ______ ____
ROOT
ATOM      1  C   UNL     1       7.029   4.274   2.398  0.00  0.00    +0.166 C 
ENDROOT
BRANCH   1   4
ATOM      2  C   UNL     1       6.457   2.168   4.206  0.00  0.00    +0.132 C 
ATOM      3  N   UNL     1       5.483   3.249   4.035  0.00  0.00    -0.300 N 
ATOM      4  C   UNL     1       5.740   4.258   3.179  0.00  0.00    +0.235 C 
ATOM      5  O   UNL     1       4.934   5.153   3.037  0.00  0.00    -0.274 OA
BRANCH   3   6
ATOM      6  C   UNL     1       4.230   3.234   4.793  0.00  0.00    +0.076 C 
ATOM      7  C   UNL     1       4.529   3.179   6.306  0.00  0.00    +0.022 C 
ATOM      8  C   UNL     1       3.420   2.262   6.879  0.00  0.00    +0.002 C 
ATOM      9  C   UNL     1       3.264   1.184   5.778  0.00  0.00    +0.002 C 
ATOM     10  C   UNL     1       3.426   1.966   4.457  0.00  0.00    +0.022 C 
ENDBRANCH   3   6
ENDBRANCH   1   4
BRANCH   1  11
ATOM     11  N   UNL     1       7.069   5.465   1.545  0.00  0.00    -0.177 NA
ATOM     12  H   UNL     1       7.268   6.452   1.988  0.00  0.00    +0.149 HD
BRANCH  11  13
ATOM     13  S   UNL     1       6.576   5.370  -0.032  0.00  0.00    +0.065 S 
ATOM     14  O   UNL     1       7.229   4.240  -0.595  0.00  0.00    -0.153 OA
ATOM     15  O   UNL     1       6.707   6.675  -0.578  0.00  0.00    -0.153 OA
BRANCH  13  16
ATOM     16  C   UNL     1       4.853   5.000  -0.018  0.00  0.00    +0.143 A 
ATOM     17  C   UNL     1       3.796   5.854  -0.003  0.00  0.00    +0.037 A 
ATOM     18  C   UNL     1       2.519   5.341   0.000  0.00  0.00    +0.019 A 
ATOM     19  C   UNL     1       2.356   3.981   0.001  0.00  0.00    +0.039 A 
ATOM     20  S   UNL     1       4.047   3.408  -0.019  0.00  0.00    -0.067 S 
BRANCH  19  21
ATOM     21  C   UNL     1       1.106   3.193   0.008  0.00  0.00    +0.078 A 
ATOM     22  C   UNL     1       1.166   1.798   0.001  0.00  0.00    +0.029 A 
ATOM     23  C   UNL     1      -0.013   1.076   0.008  0.00  0.00    +0.004 A 
ATOM     24  C   UNL     1      -1.216   1.769   0.017  0.00  0.00    +0.020 A 
ATOM     25  C   UNL     1      -1.203   3.151   0.030  0.00  0.00    +0.111 A 
ATOM     26  N   UNL     1      -0.066   3.818   0.023  0.00  0.00    -0.254 NA
ENDBRANCH  19  21
ENDBRANCH  13  16
ENDBRANCH  11  13
ENDBRANCH   1  11
BRANCH   1  27
ATOM     27  C   UNL     1       8.213   4.302   3.368  0.00  0.00    +0.065 C 
BRANCH  27  28
ATOM     28  C   UNL     1       9.500   4.194   2.593  0.00  0.00    -0.045 A 
ATOM     29  C   UNL     1      10.048   2.951   2.332  0.00  0.00    +0.004 A 
ATOM     30  C   UNL     1      11.227   2.852   1.617  0.00  0.00    +0.002 A 
ATOM     31  C   UNL     1      11.863   3.996   1.171  0.00  0.00    -0.065 A 
ATOM     32  C   UNL     1      11.318   5.238   1.436  0.00  0.00    +0.002 A 
ATOM     33  C   UNL     1      10.137   5.337   2.147  0.00  0.00    +0.004 A 
BRANCH  31  34
ATOM     34  C   UNL     1      13.150   3.888   0.394  0.00  0.00    -0.051 C 
BRANCH  34  35
ATOM     35  N   UNL     1      14.287   3.915   1.325  0.00  0.00    +0.381 N 
ATOM     36  H   UNL     1      15.226   3.836   0.758  0.00  0.00    -0.090 HD
ATOM     37  H   UNL     1      14.208   3.070   2.024  0.00  0.00    -0.090 HD
ATOM     38  H   UNL     1      14.276   4.860   1.888  0.00  0.00    -0.090 HD
ENDBRANCH  34  35
ENDBRANCH  31  34
ENDBRANCH  27  28
ENDBRANCH   1  27
TORSDOF 10
