REMARK  Name = ZINC16755155
REMARK  7 active torsions:
REMARK  status: ('A' for Active; 'I' for Inactive)
REMARK    1  A    between atoms: C_1  and  C_2
REMARK    2  A    between atoms: C_2  and  N_3
REMARK    3  A    between atoms: C_7  and  C_8
REMARK    4  A    between atoms: C_11  and  O_15
REMARK    5  A    between atoms: C_13  and  O_14
REMARK    6  A    between atoms: N_18  and  S_19
REMARK    7  A    between atoms: S_19  and  C_22
REMARK                            x       y       z     vdW  Elec       q    Type
REMARK                         _______ _______ _______ _____ _____    ______ ____
ROOT
ATOM      1  N   UNL     1      -1.490  -0.154   0.067  0.00  0.00    -0.245 N 
ATOM      2  C   UNL     1      -2.056  -0.516   1.206  0.00  0.00    +0.259 C 
ATOM      3  O   UNL     1      -1.491  -0.365   2.273  0.00  0.00    -0.269 OA
ATOM      4  C   UNL     1      -3.402  -1.111   1.125  0.00  0.00    +0.078 C 
ATOM      5  C   UNL     1      -4.205  -1.564   2.122  0.00  0.00    +0.032 C 
ATOM      6  S   UNL     1      -3.696  -1.074  -0.637  0.00  0.00    -0.047 S 
ATOM      7  C   UNL     1      -2.150  -0.329  -1.132  0.00  0.00    +0.189 C 
ATOM      8  N   UNL     1      -1.744  -0.027  -2.335  0.00  0.00    -0.105 NA
ENDROOT
BRANCH   5   9
ATOM      9  C   UNL     1      -5.588  -1.955   1.830  0.00  0.00    +0.018 A 
ATOM     10  C   UNL     1      -6.205  -1.528   0.648  0.00  0.00    +0.015 A 
ATOM     11  C   UNL     1      -7.503  -1.898   0.379  0.00  0.00    +0.046 A 
ATOM     12  C   UNL     1      -8.205  -2.696   1.277  0.00  0.00    +0.120 A 
ATOM     13  C   UNL     1      -7.604  -3.125   2.451  0.00  0.00    +0.091 A 
ATOM     14  C   UNL     1      -6.298  -2.766   2.733  0.00  0.00    +0.127 A 
BRANCH  14  15
ATOM     15  O   UNL     1      -5.707  -3.190   3.878  0.00  0.00    -0.506 OA
ATOM     16  H   UNL     1      -5.828  -2.591   4.628  0.00  0.00    +0.292 HD
ENDBRANCH  14  15
BRANCH  12  17
ATOM     17  O   UNL     1      -9.485  -3.055   1.003  0.00  0.00    -0.507 OA
ATOM     18  H   UNL     1      -9.564  -3.883   0.509  0.00  0.00    +0.292 HD
ENDBRANCH  12  17
ENDBRANCH   5   9
BRANCH   8  19
ATOM     19  S   UNL     1      -2.717  -0.331  -3.639  0.00  0.00    +0.107 S 
ATOM     20  O   UNL     1      -2.835  -1.744  -3.737  0.00  0.00    -0.146 OA
ATOM     21  O   UNL     1      -3.847   0.521  -3.510  0.00  0.00    -0.146 OA
BRANCH  19  22
ATOM     22  C   UNL     1      -1.846   0.203  -5.075  0.00  0.00    +0.150 A 
ATOM     23  C   UNL     1      -1.000  -0.497  -5.870  0.00  0.00    +0.037 A 
ATOM     24  C   UNL     1      -0.425   0.134  -6.957  0.00  0.00    +0.010 A 
ATOM     25  C   UNL     1      -0.723   1.434  -7.195  0.00  0.00    +0.047 A 
ATOM     26  S   UNL     1      -1.854   1.804  -5.865  0.00  0.00    -0.076 S 
ENDBRANCH  19  22
ENDBRANCH   8  19
BRANCH   1  28
ATOM     27  C   UNL     1      -0.273   1.962   0.215  0.00  0.00    +0.025 C 
ATOM     28  C   UNL     1      -0.152   0.443   0.079  0.00  0.00    +0.112 C 
ENDBRANCH   1  28
TORSDOF 6
