REMARK  Name = ZINC63557896
REMARK  10 active torsions:
REMARK  status: ('A' for Active; 'I' for Inactive)
REMARK    1  A    between atoms: C_1  and  C_2
REMARK    2  A    between atoms: C_2  and  C_3
REMARK    3  A    between atoms: C_3  and  C_4
REMARK    4  A    between atoms: C_8  and  N_11
REMARK    5  A    between atoms: C_12  and  C_14
REMARK    6  A    between atoms: N_19  and  C_21
REMARK    7  A    between atoms: C_21  and  C_22
REMARK    8  A    between atoms: C_22  and  C_23
REMARK    9  A    between atoms: C_26  and  O_32
REMARK   10  A    between atoms: O_32  and  C_33
REMARK                            x       y       z     vdW  Elec       q    Type
REMARK                         _______ _______ _______ _____ _____    ______ ____
ROOT
ATOM      1  C   UNL     1      -1.208  -7.821  -2.332  0.00  0.00    +0.101 C 
ATOM      2  C   UNL     1      -0.127  -7.814  -3.438  0.00  0.00    +0.110 C 
ATOM      3  C   UNL     1      -0.193  -9.205  -4.030  0.00  0.00    +0.216 C 
ATOM      4  O   UNL     1       0.664  -9.705  -4.727  0.00  0.00    -0.276 OA
ATOM      5  N   UNL     1      -1.341  -9.806  -3.671  0.00  0.00    -0.300 N 
ATOM      6  C   UNL     1      -2.164  -8.926  -2.832  0.00  0.00    +0.121 C 
ENDROOT
BRANCH   1   8
ATOM      7  N   UNL     1      -1.229  -5.385  -1.903  0.00  0.00    -0.290 N 
ATOM      8  C   UNL     1      -1.912  -6.491  -2.259  0.00  0.00    +0.220 C 
ATOM      9  O   UNL     1      -3.094  -6.415  -2.520  0.00  0.00    -0.275 OA
ATOM     10  H   UNL     1      -0.283  -5.445  -1.695  0.00  0.00    +0.151 HD
BRANCH   7  14
ATOM     11  C   UNL     1      -1.413  -2.063   0.004  0.00  0.00    +0.130 C 
ATOM     12  N   UNL     1      -2.796  -2.628  -0.089  0.00  0.00    -0.241 NA
ATOM     13  N   UNL     1      -2.743  -3.993  -0.599  0.00  0.00    -0.227 NA
ATOM     14  C   UNL     1      -1.913  -4.092  -1.832  0.00  0.00    +0.216 C 
ATOM     15  S   UNL     1      -0.710  -2.719  -1.571  0.00  0.00    -0.102 S 
ATOM     16  H   UNL     1      -3.261  -2.594   0.805  0.00  0.00    +0.142 HD
ATOM     17  H   UNL     1      -2.414  -4.632   0.110  0.00  0.00    +0.143 HD
BRANCH  11  18
ATOM     18  C   UNL     1      -1.433  -0.534   0.013  0.00  0.00    +0.031 C 
BRANCH  18  20
ATOM     19  C   UNL     1      -0.019   1.526   0.010  0.00  0.00    +0.004 C 
ATOM     20  C   UNL     1       0.002  -0.004   0.002  0.00  0.00    -0.001 C 
ENDBRANCH  18  20
ENDBRANCH  11  18
ENDBRANCH   7  14
ENDBRANCH   1   8
BRANCH   5  21
ATOM     21  C   UNL     1      -1.721 -11.165  -4.066  0.00  0.00    +0.112 C 
BRANCH  21  22
ATOM     22  C   UNL     1      -1.211 -12.160  -3.022  0.00  0.00    +0.052 C 
BRANCH  22  23
ATOM     23  C   UNL     1      -1.602 -13.558  -3.428  0.00  0.00    -0.040 C 
ATOM     24  C   UNL     1      -0.846 -14.448  -4.110  0.00  0.00    +0.002 A 
ATOM     25  C   UNL     1       0.512 -14.385  -4.660  0.00  0.00    +0.055 A 
ATOM     26  C   UNL     1       1.018 -15.459  -5.313  0.00  0.00    +0.121 A 
ATOM     27  C   UNL     1       0.284 -16.645  -5.488  0.00  0.00    +0.047 A 
ATOM     28  C   UNL     1      -0.973 -16.798  -5.019  0.00  0.00    +0.029 A 
ATOM     29  C   UNL     1      -1.618 -15.698  -4.295  0.00  0.00    +0.043 A 
ATOM     30  N   UNL     1      -2.803 -15.586  -3.748  0.00  0.00    -0.380 N 
ATOM     31  C   UNL     1      -2.916 -14.252  -3.147  0.00  0.00    +0.144 C 
ATOM     32  H   UNL     1      -3.489 -16.271  -3.738  0.00  0.00    +0.160 HD
BRANCH  26  33
ATOM     33  O   UNL     1       2.278 -15.386  -5.818  0.00  0.00    -0.495 OA
ATOM     34  C   UNL     1       2.772 -16.541  -6.499  0.00  0.00    +0.277 C 
ENDBRANCH  26  33
ENDBRANCH  22  23
ENDBRANCH  21  22
ENDBRANCH   5  21
TORSDOF 8
