REMARK  Name = ZINC34954805
REMARK  7 active torsions:
REMARK  status: ('A' for Active; 'I' for Inactive)
REMARK    1  A    between atoms: C_4  and  C_7
REMARK    2  A    between atoms: C_7  and  C_8
REMARK    3  A    between atoms: C_8  and  C_9
REMARK    4  A    between atoms: C_18  and  C_26
REMARK    5  A    between atoms: C_19  and  N_25
REMARK    6  A    between atoms: C_20  and  C_21
REMARK    7  A    between atoms: C_20  and  C_23
REMARK                            x       y       z     vdW  Elec       q    Type
REMARK                         _______ _______ _______ _____ _____    ______ ____
ROOT
ATOM      1  C   UNL     1       5.441  -1.817   1.384  0.00  0.00    +0.037 C 
ATOM      2  C   UNL     1       5.899  -2.079   2.820  0.00  0.00    +0.026 C 
ATOM      3  C   UNL     1       6.421  -0.826   3.482  0.00  0.00    +0.009 C 
ATOM      4  C   UNL     1       5.370  -0.177   4.381  0.00  0.00    +0.005 C 
ATOM      5  C   UNL     1       4.957  -1.195   5.453  0.00  0.00    +0.027 C 
ATOM      6  C   UNL     1       4.360  -2.387   4.751  0.00  0.00    -0.022 C 
ATOM      7  C   UNL     1       4.772  -2.732   3.563  0.00  0.00    -0.029 C 
ATOM      8  C   UNL     1       4.060  -3.838   2.869  0.00  0.00    +0.074 C 
ATOM      9  C   UNL     1       4.241  -4.011   1.535  0.00  0.00    +0.054 C 
ATOM     10  C   UNL     1       5.150  -3.155   0.702  0.00  0.00    +0.184 C 
ENDROOT
BRANCH   9  11
ATOM     11  N   UNL     1       3.558  -5.021   0.916  0.00  0.00    -0.358 N 
ATOM     12  H   UNL     1       2.964  -5.590   1.429  0.00  0.00    +0.142 HD
ATOM     13  H   UNL     1       3.668  -5.167  -0.036  0.00  0.00    +0.142 HD
ENDBRANCH   9  11
BRANCH  10  14
ATOM     14  C   UNL     1       6.418  -3.870   0.486  0.00  0.00    +0.091 C 
ATOM     15  N   UNL     1       7.397  -4.421   0.319  0.00  0.00    -0.195 NA
ENDBRANCH  10  14
BRANCH  10  16
ATOM     16  C   UNL     1       4.515  -2.901  -0.602  0.00  0.00    +0.091 C 
ATOM     17  N   UNL     1       4.025  -2.706  -1.608  0.00  0.00    -0.195 NA
ENDBRANCH  10  16
BRANCH   8  18
ATOM     18  C   UNL     1       3.193  -4.711   3.600  0.00  0.00    +0.101 C 
ATOM     19  N   UNL     1       2.505  -5.404   4.181  0.00  0.00    -0.191 NA
ENDBRANCH   8  18
BRANCH   1  20
ATOM     20  C   UNL     1       4.171  -0.963   1.399  0.00  0.00    +0.012 C 
BRANCH  20  21
ATOM     21  C   UNL     1       3.998  -0.283   0.039  0.00  0.00    +0.035 C 
BRANCH  21  25
ATOM     22  C   UNL     1       0.698   2.424   0.210  0.00  0.00    +0.000 A 
ATOM     23  C   UNL     1       1.970   2.863   0.528  0.00  0.00    +0.000 A 
ATOM     24  C   UNL     1       3.038   1.987   0.473  0.00  0.00    +0.003 A 
ATOM     25  C   UNL     1       2.834   0.672   0.100  0.00  0.00    -0.047 A 
ATOM     26  C   UNL     1       1.562   0.232  -0.217  0.00  0.00    +0.003 A 
ATOM     27  C   UNL     1       0.494   1.109  -0.163  0.00  0.00    +0.000 A 
ENDBRANCH  21  25
ENDBRANCH  20  21
ENDBRANCH   1  20
TORSDOF 7
