REMARK  Name = ZINC41340098
REMARK  14 active torsions:
REMARK  status: ('A' for Active; 'I' for Inactive)
REMARK    1  A    between atoms: C_1  and  C_2
REMARK    2  A    between atoms: C_2  and  C_3
REMARK    3  A    between atoms: C_3  and  C_5
REMARK    4  A    between atoms: C_3  and  S_9
REMARK    5  A    between atoms: C_5  and  O_7
REMARK    6  A    between atoms: O_7  and  C_8
REMARK    7  A    between atoms: S_9  and  C_10
REMARK    8  A    between atoms: C_13  and  C_17
REMARK    9  A    between atoms: N_14  and  C_15
REMARK   10  A    between atoms: C_15  and  C_16
REMARK   11  A    between atoms: C_17  and  C_18
REMARK   12  A    between atoms: C_18  and  N_19
REMARK   13  A    between atoms: C_20  and  C_25
REMARK   14  A    between atoms: C_22  and  C_24
REMARK                            x       y       z     vdW  Elec       q    Type
REMARK                         _______ _______ _______ _____ _____    ______ ____
ROOT
ATOM      1  C   UNL     1       2.708   1.594   1.397  0.00  0.00    +0.192 A 
ATOM      2  N   UNL     1       1.694   2.403   1.600  0.00  0.00    -0.122 NA
ATOM      3  N   UNL     1       2.122   3.601   1.784  0.00  0.00    -0.133 NA
ATOM      4  C   UNL     1       3.423   3.628   1.710  0.00  0.00    +0.136 A 
ATOM      5  N   UNL     1       3.843   2.350   1.467  0.00  0.00    -0.306 N 
ENDROOT
BRANCH   5   6
ATOM      6  C   UNL     1       5.225   1.888   1.310  0.00  0.00    +0.122 C 
ATOM      7  C   UNL     1       5.628   1.975  -0.163  0.00  0.00    +0.027 C 
ENDBRANCH   5   6
BRANCH   1   8
ATOM      8  S   UNL     1       2.621  -0.141   1.099  0.00  0.00    -0.071 S 
BRANCH   8   9
ATOM      9  C   UNL     1       0.860  -0.530   1.288  0.00  0.00    +0.162 C 
BRANCH   9  11
ATOM     10  C   UNL     1       0.892  -2.146  -0.618  0.00  0.00    +0.005 C 
ATOM     11  C   UNL     1       0.612  -1.983   0.878  0.00  0.00    +0.022 C 
ENDBRANCH   9  11
BRANCH   9  12
ATOM     12  C   UNL     1       0.454  -0.338   2.727  0.00  0.00    +0.320 C 
ATOM     13  O   UNL     1       1.293  -0.334   3.596  0.00  0.00    -0.250 OA
BRANCH  12  14
ATOM     14  O   UNL     1      -0.840  -0.172   3.043  0.00  0.00    -0.467 OA
ATOM     15  C   UNL     1      -1.153   0.005   4.426  0.00  0.00    +0.280 C 
ENDBRANCH  12  14
ENDBRANCH   9  12
ENDBRANCH   8   9
ENDBRANCH   1   8
BRANCH   4  16
ATOM     16  C   UNL     1       4.301   4.842   1.869  0.00  0.00    +0.099 C 
BRANCH  16  17
ATOM     17  C   UNL     1       4.685   5.005   3.341  0.00  0.00    +0.151 C 
BRANCH  17  18
ATOM     18  N   UNL     1       5.539   6.185   3.496  0.00  0.00    -0.268 N 
ATOM     19  C   UNL     1       6.885   6.207   3.413  0.00  0.00    +0.036 A 
ATOM     20  C   UNL     1       7.290   7.482   3.614  0.00  0.00    +0.047 A 
ATOM     21  C   UNL     1       6.152   8.267   3.827  0.00  0.00    +0.060 A 
ATOM     22  N   UNL     1       5.101   7.491   3.751  0.00  0.00    -0.176 NA
ATOM     23  C   UNL     1       6.138   9.750   4.092  0.00  0.00    +0.067 C 
ATOM     24  C   UNL     1       7.778   5.023   3.144  0.00  0.00    +0.065 C 
ENDBRANCH  17  18
ENDBRANCH  16  17
ENDBRANCH   4  16
TORSDOF 9
