REMARK  Name = ZINC12482333
REMARK  10 active torsions:
REMARK  status: ('A' for Active; 'I' for Inactive)
REMARK    1  A    between atoms: C_1  and  C_2
REMARK    2  A    between atoms: C_5  and  C_7
REMARK    3  A    between atoms: C_7  and  C_9
REMARK    4  A    between atoms: C_7  and  N_19
REMARK    5  A    between atoms: N_11  and  C_12
REMARK    6  A    between atoms: C_12  and  C_13
REMARK    7  A    between atoms: N_19  and  C_20
REMARK    8  A    between atoms: C_20  and  C_21
REMARK    9  A    between atoms: C_28  and  C_30
REMARK   10  A    between atoms: C_30  and  N_31
REMARK                            x       y       z     vdW  Elec       q    Type
REMARK                         _______ _______ _______ _____ _____    ______ ____
ROOT
ATOM      1  N   UNL     1      -0.761  -4.838  -1.324  0.00  0.00    -0.278 N 
ATOM      2  C   UNL     1      -0.201  -4.158  -0.303  0.00  0.00    +0.238 C 
ATOM      3  O   UNL     1       0.694  -3.369  -0.518  0.00  0.00    -0.274 OA
ENDROOT
BRANCH   1   4
ATOM      4  C   UNL     1      -0.209  -4.715  -2.675  0.00  0.00    +0.228 C 
BRANCH   4   9
ATOM      5  C   UNL     1      -4.757  -4.375  -4.830  0.00  0.00    +0.086 C 
ATOM      6  C   UNL     1      -3.285  -4.183  -4.570  0.00  0.00    +0.102 A 
ATOM      7  C   UNL     1      -2.442  -3.452  -5.322  0.00  0.00    +0.045 A 
ATOM      8  C   UNL     1      -1.167  -3.547  -4.718  0.00  0.00    +0.047 A 
ATOM      9  C   UNL     1      -1.308  -4.331  -3.633  0.00  0.00    +0.135 A 
ATOM     10  O   UNL     1      -2.591  -4.717  -3.552  0.00  0.00    -0.462 OA
ENDBRANCH   4   9
BRANCH   4  11
ATOM     11  C   UNL     1       0.387  -6.033  -3.097  0.00  0.00    +0.241 C 
ATOM     12  O   UNL     1       0.616  -6.888  -2.267  0.00  0.00    -0.273 OA
ATOM     13  N   UNL     1       0.665  -6.263  -4.395  0.00  0.00    -0.311 N 
ATOM     14  H   UNL     1       0.481  -5.579  -5.059  0.00  0.00    +0.149 HD
BRANCH  13  15
ATOM     15  C   UNL     1       1.244  -7.544  -4.805  0.00  0.00    +0.135 C 
BRANCH  15  16
ATOM     16  C   UNL     1       1.460  -7.546  -6.319  0.00  0.00    +0.135 C 
ATOM     17  C   UNL     1       1.990  -8.920  -6.786  0.00  0.00    +0.035 C 
ATOM     18  C   UNL     1       2.997  -8.573  -7.905  0.00  0.00    +0.031 C 
ATOM     19  C   UNL     1       2.956  -7.031  -7.983  0.00  0.00    +0.160 C 
ATOM     20  O   UNL     1       2.496  -6.606  -6.681  0.00  0.00    -0.375 OA
ENDBRANCH  15  16
ENDBRANCH  13  15
ENDBRANCH   4  11
ENDBRANCH   1   4
BRANCH   1  21
ATOM     21  C   UNL     1      -1.921  -5.699  -1.082  0.00  0.00    +0.145 C 
BRANCH  21  22
ATOM     22  C   UNL     1      -1.453  -7.101  -0.788  0.00  0.00    -0.012 A 
ATOM     23  C   UNL     1      -1.171  -7.479   0.511  0.00  0.00    +0.006 A 
ATOM     24  C   UNL     1      -0.741  -8.764   0.780  0.00  0.00    +0.000 A 
ATOM     25  C   UNL     1      -0.594  -9.674  -0.250  0.00  0.00    +0.001 A 
ATOM     26  C   UNL     1      -0.875  -9.298  -1.550  0.00  0.00    +0.020 A 
ATOM     27  C   UNL     1      -1.310  -8.013  -1.819  0.00  0.00    +0.046 A 
ATOM     28 CL   UNL     1      -1.671  -7.542  -3.451  0.00  0.00    -0.083 Cl
ENDBRANCH  21  22
ENDBRANCH   1  21
BRANCH   2  29
ATOM     29  C   UNL     1      -0.688  -4.380   1.106  0.00  0.00    +0.241 C 
BRANCH  29  30
ATOM     30  N   UNL     1      -0.069  -3.394   1.997  0.00  0.00    -0.235 N 
ATOM     31  C   UNL     1      -0.560  -2.151   2.316  0.00  0.00    +0.090 A 
ATOM     32  C   UNL     1      -1.700  -1.440   1.954  0.00  0.00    +0.029 A 
ATOM     33  C   UNL     1      -1.907  -0.186   2.458  0.00  0.00    +0.002 A 
ATOM     34  C   UNL     1      -0.989   0.386   3.329  0.00  0.00    +0.002 A 
ATOM     35  C   UNL     1       0.137  -0.291   3.699  0.00  0.00    +0.032 A 
ATOM     36  C   UNL     1       0.373  -1.577   3.197  0.00  0.00    +0.113 A 
ATOM     37  N   UNL     1       1.368  -2.469   3.376  0.00  0.00    -0.129 NA
ATOM     38  N   UNL     1       1.141  -3.535   2.692  0.00  0.00    -0.064 NA
ENDBRANCH  29  30
ENDBRANCH   2  29
TORSDOF 9
