REMARK  Name = ZINC09926716
REMARK  3 active torsions:
REMARK  status: ('A' for Active; 'I' for Inactive)
REMARK    1  A    between atoms: N_9  and  C_21
REMARK    2  A    between atoms: N_12  and  C_13
REMARK    3  A    between atoms: C_13  and  C_14
REMARK                            x       y       z     vdW  Elec       q    Type
REMARK                         _______ _______ _______ _____ _____    ______ ____
ROOT
ATOM      1  C   UNL     1      -1.181   2.333   6.000  0.00  0.00    +0.001 A 
ATOM      2  C   UNL     1      -2.314   3.112   5.818  0.00  0.00    +0.002 A 
ATOM      3  C   UNL     1      -2.762   3.417   4.549  0.00  0.00    +0.027 A 
ATOM      4  C   UNL     1      -2.073   2.942   3.443  0.00  0.00    +0.059 A 
ATOM      5  C   UNL     1      -0.924   2.153   3.626  0.00  0.00    +0.063 A 
ATOM      6  C   UNL     1      -0.483   1.851   4.913  0.00  0.00    +0.015 A 
ATOM      7  C   UNL     1      -0.219   1.659   2.430  0.00  0.00    +0.265 A 
ATOM      8  O   UNL     1       0.777   0.970   2.533  0.00  0.00    -0.267 OA
ATOM      9  N   UNL     1      -0.704   1.998   1.216  0.00  0.00    -0.257 N 
ATOM     10  C   UNL     1      -1.806   2.755   1.092  0.00  0.00    +0.333 A 
ATOM     11  O   UNL     1      -2.203   3.026  -0.024  0.00  0.00    -0.246 OA
ATOM     12  N   UNL     1      -2.489   3.226   2.150  0.00  0.00    -0.289 N 
ENDROOT
BRANCH   9  13
ATOM     13  C   UNL     1      -0.019   1.526   0.010  0.00  0.00    +0.095 C 
ATOM     14  C   UNL     1       1.417   2.055  -0.000  0.00  0.00    +0.025 C 
ATOM     15  C   UNL     1       2.133   1.562  -1.259  0.00  0.00    +0.002 C 
ATOM     16  C   UNL     1       2.154   0.032  -1.268  0.00  0.00    +0.000 C 
ATOM     17  C   UNL     1       0.718  -0.497  -1.257  0.00  0.00    +0.002 C 
ATOM     18  C   UNL     1       0.002  -0.004   0.002  0.00  0.00    +0.025 C 
ENDBRANCH   9  13
BRANCH  12  19
ATOM     19  C   UNL     1      -3.683   4.046   1.936  0.00  0.00    +0.162 C 
BRANCH  19  20
ATOM     20  C   UNL     1      -4.898   3.157   1.864  0.00  0.00    -0.028 A 
ATOM     21  C   UNL     1      -5.314   2.653   0.646  0.00  0.00    +0.007 A 
ATOM     22  C   UNL     1      -6.425   1.833   0.580  0.00  0.00    +0.020 A 
ATOM     23  C   UNL     1      -7.126   1.525   1.732  0.00  0.00    +0.041 A 
ATOM     24  C   UNL     1      -6.712   2.034   2.950  0.00  0.00    +0.020 A 
ATOM     25  C   UNL     1      -5.598   2.849   3.016  0.00  0.00    +0.007 A 
ATOM     26 CL   UNL     1      -8.524   0.500   1.650  0.00  0.00    -0.084 Cl
ENDBRANCH  19  20
ENDBRANCH  12  19
TORSDOF 3
