REMARK  Name = ZINC13023387
REMARK  10 active torsions:
REMARK  status: ('A' for Active; 'I' for Inactive)
REMARK    1  A    between atoms: C_1  and  C_2
REMARK    2  A    between atoms: C_4  and  C_26
REMARK    3  A    between atoms: C_6  and  S_10
REMARK    4  A    between atoms: C_7  and  C_8
REMARK    5  A    between atoms: S_10  and  C_11
REMARK    6  A    between atoms: C_11  and  C_13
REMARK    7  A    between atoms: C_11  and  C_14
REMARK    8  A    between atoms: N_16  and  C_17
REMARK    9  A    between atoms: N_16  and  C_18
REMARK   10  A    between atoms: C_18  and  C_24
REMARK                            x       y       z     vdW  Elec       q    Type
REMARK                         _______ _______ _______ _____ _____    ______ ____
ROOT
ATOM      1  C   UNL     1      -2.068   5.763   0.053  0.00  0.00    +0.136 C 
ATOM      2  C   UNL     1      -2.654   5.220  -1.252  0.00  0.00    +0.029 C 
ENDROOT
BRANCH   1   3
ATOM      3  C   UNL     1      -2.411   7.224   0.189  0.00  0.00    +0.230 C 
ATOM      4  O   UNL     1      -1.623   8.069  -0.178  0.00  0.00    -0.274 OA
ATOM      5  N   UNL     1      -3.595   7.591   0.718  0.00  0.00    -0.285 N 
ATOM      6  C   UNL     1      -4.548   6.571   1.162  0.00  0.00    +0.133 C 
BRANCH   5   7
ATOM      7  C   UNL     1      -3.929   9.012   0.850  0.00  0.00    +0.124 C 
ATOM      8  C   UNL     1      -2.894   9.698   1.744  0.00  0.00    +0.041 C 
ATOM      9  C   UNL     1      -3.243  11.181   1.882  0.00  0.00    +0.003 C 
ATOM     10  C   UNL     1      -4.632  11.323   2.507  0.00  0.00    +0.000 C 
ATOM     11  C   UNL     1      -5.667  10.637   1.612  0.00  0.00    +0.003 C 
ATOM     12  C   UNL     1      -5.318   9.153   1.475  0.00  0.00    +0.041 C 
BRANCH   7  13
ATOM     13  C   UNL     1      -3.922   9.643  -0.480  0.00  0.00    +0.089 C 
ATOM     14  N   UNL     1      -3.918  10.130  -1.507  0.00  0.00    -0.194 NA
ENDBRANCH   7  13
ENDBRANCH   5   7
ENDBRANCH   1   3
BRANCH   1  15
ATOM     15  S   UNL     1      -0.269   5.565   0.035  0.00  0.00    -0.093 S 
BRANCH  15  21
ATOM     16  C   UNL     1       2.502   1.077  -0.017  0.00  0.00    +0.045 C 
ATOM     17  C   UNL     1       1.173   1.789   0.001  0.00  0.00    -0.032 A 
ATOM     18  C   UNL     1      -0.013   1.076   0.008  0.00  0.00    +0.027 A 
ATOM     19  C   UNL     1      -1.218   1.756   0.017  0.00  0.00    +0.040 A 
ATOM     20  N   UNL     1      -1.259   3.074   0.031  0.00  0.00    -0.245 NA
ATOM     21  C   UNL     1      -0.155   3.806   0.024  0.00  0.00    +0.112 A 
ATOM     22  C   UNL     1       1.109   3.187   0.009  0.00  0.00    +0.098 A 
ATOM     23  C   UNL     1      -2.507   0.976   0.019  0.00  0.00    +0.065 C 
BRANCH  22  24
ATOM     24  C   UNL     1       2.340   3.995   0.002  0.00  0.00    +0.389 C 
ATOM     25  O   UNL     1       2.838   4.334  -1.054  0.00  0.00    -0.240 OA
ATOM     26  O   UNL     1       2.914   4.358   1.166  0.00  0.00    -0.240 OA
ENDBRANCH  22  24
ENDBRANCH  15  21
ENDBRANCH   1  15
TORSDOF 6
