REMARK  Name = ZINC15229604
REMARK  8 active torsions:
REMARK  status: ('A' for Active; 'I' for Inactive)
REMARK    1  A    between atoms: C_1  and  C_2
REMARK    2  A    between atoms: C_4  and  C_36
REMARK    3  A    between atoms: C_10  and  C_14
REMARK    4  A    between atoms: C_11  and  C_13
REMARK    5  A    between atoms: C_16  and  C_28
REMARK    6  A    between atoms: C_18  and  C_23
REMARK    7  A    between atoms: C_18  and  O_27
REMARK    8  A    between atoms: C_28  and  C_30
REMARK                            x       y       z     vdW  Elec       q    Type
REMARK                         _______ _______ _______ _____ _____    ______ ____
ROOT
ATOM      1  C   UNL     1      -1.125  -0.781  -0.039  0.00  0.00    +0.123 C 
ATOM      2  C   UNL     1      -1.549  -1.313  -1.413  0.00  0.00    +0.144 C 
ATOM      3  C   UNL     1      -2.796  -2.186  -1.235  0.00  0.00    +0.243 C 
ATOM      4  N   UNL     1      -3.834  -1.409  -0.557  0.00  0.00    -0.264 N 
ATOM      5  C   UNL     1      -3.522  -0.422   0.297  0.00  0.00    +0.302 C 
ATOM      6  O   UNL     1      -4.423   0.186   0.842  0.00  0.00    -0.253 OA
ATOM      7  N   UNL     1      -2.254  -0.080   0.574  0.00  0.00    -0.292 N 
ATOM      8  H   UNL     1      -4.767  -1.611  -0.728  0.00  0.00    +0.153 HD
ATOM      9  H   UNL     1      -2.083   0.647   1.193  0.00  0.00    +0.151 HD
ENDROOT
BRANCH   1  19
ATOM     10  C   UNL     1       2.038   3.070  -5.595  0.00  0.00    +0.066 C 
ATOM     11  C   UNL     1       2.474   3.063  -4.152  0.00  0.00    +0.044 A 
ATOM     12  C   UNL     1       3.561   3.821  -3.744  0.00  0.00    +0.046 A 
ATOM     13  C   UNL     1       3.929   3.786  -2.408  0.00  0.00    +0.044 A 
ATOM     14  N   UNL     1       3.236   3.034  -1.569  0.00  0.00    -0.216 NA
ATOM     15  C   UNL     1       2.203   2.323  -1.991  0.00  0.00    +0.252 A 
ATOM     16  N   UNL     1       1.829   2.330  -3.260  0.00  0.00    -0.216 NA
ATOM     17  N   UNL     1       1.496   1.542  -1.078  0.00  0.00    -0.205 N 
ATOM     18  C   UNL     1       0.419   0.760  -1.357  0.00  0.00    +0.123 A 
ATOM     19  C   UNL     1       0.031   0.172  -0.203  0.00  0.00    +0.015 A 
ATOM     20  C   UNL     1       0.892   0.603   0.813  0.00  0.00    +0.065 A 
ATOM     21  N   UNL     1       1.768   1.422   0.291  0.00  0.00    -0.169 NA
ATOM     22  C   UNL     1       0.822   0.193   2.262  0.00  0.00    +0.068 C 
ATOM     23  C   UNL     1       5.104   4.592  -1.918  0.00  0.00    +0.066 C 
ENDBRANCH   1  19
BRANCH   3  24
ATOM     24  C   UNL     1      -3.306  -2.635  -2.605  0.00  0.00    +0.436 C 
ATOM     25  F   UNL     1      -2.310  -3.372  -3.256  0.00  0.00    -0.166 F 
ATOM     26  F   UNL     1      -4.444  -3.432  -2.441  0.00  0.00    -0.166 F 
ATOM     27  F   UNL     1      -3.631  -1.511  -3.373  0.00  0.00    -0.166 F 
ENDBRANCH   3  24
BRANCH   3  28
ATOM     28  O   UNL     1      -2.467  -3.333  -0.447  0.00  0.00    -0.364 OA
ATOM     29  H   UNL     1      -3.211  -3.931  -0.294  0.00  0.00    +0.212 HD
ENDBRANCH   3  28
BRANCH   2  30
ATOM     30  C   UNL     1      -0.434  -2.137  -2.003  0.00  0.00    +0.173 C 
ATOM     31  O   UNL     1       0.193  -2.901  -1.300  0.00  0.00    -0.292 OA
BRANCH  30  32
ATOM     32  C   UNL     1      -0.105  -2.014  -3.432  0.00  0.00    +0.018 A 
ATOM     33  C   UNL     1      -0.829  -1.137  -4.247  0.00  0.00    +0.011 A 
ATOM     34  C   UNL     1      -0.511  -1.023  -5.584  0.00  0.00    +0.001 A 
ATOM     35  C   UNL     1       0.514  -1.782  -6.122  0.00  0.00    +0.000 A 
ATOM     36  C   UNL     1       1.231  -2.656  -5.324  0.00  0.00    +0.001 A 
ATOM     37  C   UNL     1       0.929  -2.777  -3.984  0.00  0.00    +0.011 A 
ENDBRANCH  30  32
ENDBRANCH   2  30
TORSDOF 5
