REMARK  Name = ZINC09494377
REMARK  6 active torsions:
REMARK  status: ('A' for Active; 'I' for Inactive)
REMARK    1  A    between atoms: C_1  and  C_2
REMARK    2  A    between atoms: C_2  and  C_3
REMARK    3  A    between atoms: C_3  and  C_5
REMARK    4  A    between atoms: C_3  and  S_6
REMARK    5  A    between atoms: S_6  and  C_7
REMARK    6  A    between atoms: C_18  and  C_20
REMARK                            x       y       z     vdW  Elec       q    Type
REMARK                         _______ _______ _______ _____ _____    ______ ____
ROOT
ATOM      1  C   UNL     1      -3.436   0.188   3.501  0.00  0.00    +0.171 A 
ATOM      2  N   UNL     1      -2.385  -0.673   3.590  0.00  0.00    -0.302 N 
ATOM      3  H   UNL     1      -2.142  -1.053   4.449  0.00  0.00    +0.171 HD
ATOM      4  C   UNL     1      -1.681  -1.000   2.486  0.00  0.00    +0.258 A 
ATOM      5  O   UNL     1      -0.735  -1.769   2.557  0.00  0.00    -0.267 OA
ATOM      6  C   UNL     1      -2.055  -0.439   1.258  0.00  0.00    +0.069 A 
ATOM      7  C   UNL     1      -3.133   0.426   1.221  0.00  0.00    +0.135 A 
ATOM      8  N   UNL     1      -3.793   0.717   2.348  0.00  0.00    -0.208 NA
ATOM      9  N   UNL     1      -3.521   0.984   0.019  0.00  0.00    -0.302 N 
ATOM     10  C   UNL     1      -3.136   0.419  -1.167  0.00  0.00    +0.017 C 
ATOM     11  C   UNL     1      -2.084  -0.423  -1.225  0.00  0.00    +0.024 C 
ATOM     12  C   UNL     1      -1.294  -0.774   0.011  0.00  0.00    +0.093 C 
ATOM     13  C   UNL     1      -1.686  -1.002  -2.443  0.00  0.00    +0.162 C 
ATOM     14  O   UNL     1      -0.746  -1.771  -2.459  0.00  0.00    -0.292 OA
ATOM     15  C   UNL     1      -2.401  -0.686  -3.728  0.00  0.00    +0.080 C 
ATOM     16  C   UNL     1      -3.006   0.718  -3.629  0.00  0.00    +0.014 C 
ATOM     17  C   UNL     1      -3.925   0.763  -2.407  0.00  0.00    +0.051 C 
ATOM     18  H   UNL     1      -4.071   1.783   0.015  0.00  0.00    +0.153 HD
ENDROOT
BRANCH  12  19
ATOM     19  C   UNL     1       0.002  -0.004   0.002  0.00  0.00    -0.032 A 
ATOM     20  C   UNL     1      -0.017   1.378   0.010  0.00  0.00    +0.008 A 
ATOM     21  C   UNL     1       1.169   2.089   0.002  0.00  0.00    +0.050 A 
ATOM     22  C   UNL     1       2.380   1.416  -0.013  0.00  0.00    +0.166 A 
ATOM     23  C   UNL     1       2.399   0.024  -0.021  0.00  0.00    +0.167 A 
ATOM     24  C   UNL     1       1.207  -0.682  -0.013  0.00  0.00    +0.054 A 
ATOM     25  O   UNL     1       3.698  -0.395  -0.036  0.00  0.00    -0.453 OA
ATOM     26  C   UNL     1       4.475   0.746   0.374  0.00  0.00    +0.466 C 
ATOM     27  O   UNL     1       3.668   1.870  -0.024  0.00  0.00    -0.453 OA
ENDBRANCH  12  19
BRANCH   1  28
ATOM     28  S   UNL     1      -4.338   0.603   4.956  0.00  0.00    -0.085 S 
BRANCH  28  29
ATOM     29  C   UNL     1      -5.565   1.734   4.254  0.00  0.00    +0.051 C 
ATOM     30  C   UNL     1      -6.473   0.966   3.291  0.00  0.00    +0.019 C 
BRANCH  29  32
ATOM     31  C   UNL     1      -5.522   3.204   6.274  0.00  0.00    +0.005 C 
ATOM     32  C   UNL     1      -6.409   2.334   5.380  0.00  0.00    +0.011 C 
ENDBRANCH  29  32
ENDBRANCH  28  29
ENDBRANCH   1  28
TORSDOF 4
