REMARK  Name = ZINC40172569
REMARK  10 active torsions:
REMARK  status: ('A' for Active; 'I' for Inactive)
REMARK    1  A    between atoms: C_1  and  C_2
REMARK    2  A    between atoms: C_2  and  C_4
REMARK    3  A    between atoms: C_2  and  N_22
REMARK    4  A    between atoms: N_6  and  C_7
REMARK    5  A    between atoms: C_10  and  S_13
REMARK    6  A    between atoms: S_13  and  N_16
REMARK    7  A    between atoms: C_26  and  S_27
REMARK    8  A    between atoms: S_27  and  C_28
REMARK    9  A    between atoms: C_28  and  C_29
REMARK   10  A    between atoms: C_29  and  C_30
REMARK                            x       y       z     vdW  Elec       q    Type
REMARK                         _______ _______ _______ _____ _____    ______ ____
ROOT
ATOM      1  C   UNL     1      -0.009   1.520   0.022  0.00  0.00    +0.041 C 
ATOM      2  C   UNL     1       0.004  -0.009   0.005  0.00  0.00    +0.175 C 
ENDROOT
BRANCH   2   3
ATOM      3  N   UNL     1       0.689  -0.479  -1.202  0.00  0.00    -0.279 N 
ATOM      4  C   UNL     1       0.321  -0.210  -2.490  0.00  0.00    +0.216 A 
ATOM      5  N   UNL     1       1.176  -0.801  -3.287  0.00  0.00    -0.113 NA
ATOM      6  N   UNL     1       2.119  -1.468  -2.494  0.00  0.00    -0.121 NA
ATOM      7  C   UNL     1       1.811  -1.258  -1.237  0.00  0.00    +0.194 A 
ATOM      8  N   UNL     1      -0.769   0.556  -2.884  0.00  0.00    -0.328 N 
ATOM      9  H   UNL     1      -1.348   0.955  -2.216  0.00  0.00    +0.145 HD
ATOM     10  H   UNL     1      -0.950   0.692  -3.827  0.00  0.00    +0.145 HD
BRANCH   7  11
ATOM     11  S   UNL     1       2.689  -1.874   0.161  0.00  0.00    -0.086 S 
BRANCH  11  12
ATOM     12  C   UNL     1       4.058  -2.820  -0.562  0.00  0.00    +0.082 C 
BRANCH  12  13
ATOM     13  C   UNL     1       4.912  -3.418   0.557  0.00  0.00    +0.046 C 
BRANCH  13  14
ATOM     14  C   UNL     1       6.048  -4.204  -0.044  0.00  0.00    -0.047 A 
ATOM     15  C   UNL     1       5.885  -5.547  -0.330  0.00  0.00    +0.003 A 
ATOM     16  C   UNL     1       6.928  -6.268  -0.881  0.00  0.00    +0.000 A 
ATOM     17  C   UNL     1       8.134  -5.646  -1.146  0.00  0.00    +0.000 A 
ATOM     18  C   UNL     1       8.297  -4.303  -0.861  0.00  0.00    +0.000 A 
ATOM     19  C   UNL     1       7.252  -3.581  -0.314  0.00  0.00    +0.003 A 
ENDBRANCH  13  14
ENDBRANCH  12  13
ENDBRANCH  11  12
ENDBRANCH   7  11
ENDBRANCH   2   3
BRANCH   2  20
ATOM     20  C   UNL     1      -1.412  -0.524   0.012  0.00  0.00    +0.240 C 
ATOM     21  O   UNL     1      -1.810  -1.215  -0.902  0.00  0.00    -0.273 OA
ATOM     22  N   UNL     1      -2.236  -0.217   1.033  0.00  0.00    -0.284 N 
ATOM     23  H   UNL     1      -1.899   0.279   1.796  0.00  0.00    +0.155 HD
BRANCH  22  24
ATOM     24  C   UNL     1      -3.578  -0.613   0.993  0.00  0.00    +0.034 A 
ATOM     25  C   UNL     1      -4.561   0.206   1.532  0.00  0.00    +0.025 A 
ATOM     26  C   UNL     1      -5.885  -0.187   1.491  0.00  0.00    +0.030 A 
ATOM     27  C   UNL     1      -6.231  -1.395   0.914  0.00  0.00    +0.106 A 
ATOM     28  C   UNL     1      -5.253  -2.213   0.376  0.00  0.00    +0.030 A 
ATOM     29  C   UNL     1      -3.929  -1.822   0.409  0.00  0.00    +0.025 A 
BRANCH  27  30
ATOM     30  S   UNL     1      -7.920  -1.894   0.863  0.00  0.00    +0.061 S 
ATOM     31  O   UNL     1      -7.922  -3.311   0.759  0.00  0.00    -0.153 OA
ATOM     32  O   UNL     1      -8.578  -1.206   1.919  0.00  0.00    -0.153 OA
BRANCH  30  33
ATOM     33  N   UNL     1      -8.559  -1.314  -0.550  0.00  0.00    -0.177 NA
ATOM     34  C   UNL     1      -9.175   0.018  -0.602  0.00  0.00    +0.109 C 
ATOM     35  C   UNL     1      -8.521   0.820  -1.732  0.00  0.00    +0.017 C 
ATOM     36  C   UNL     1      -8.622   0.030  -3.038  0.00  0.00    +0.003 C 
ATOM     37  C   UNL     1      -7.874  -1.297  -2.892  0.00  0.00    +0.017 C 
ATOM     38  C   UNL     1      -8.515  -2.121  -1.778  0.00  0.00    +0.109 C 
ENDBRANCH  30  33
ENDBRANCH  27  30
ENDBRANCH  22  24
ENDBRANCH   2  20
TORSDOF 9
