REMARK  Name = ZINC09476611
REMARK  10 active torsions:
REMARK  status: ('A' for Active; 'I' for Inactive)
REMARK    1  A    between atoms: C_1  and  C_2
REMARK    2  A    between atoms: C_2  and  C_3
REMARK    3  A    between atoms: C_3  and  C_5
REMARK    4  A    between atoms: C_3  and  N_12
REMARK    5  A    between atoms: N_7  and  C_8
REMARK    6  A    between atoms: C_8  and  C_9
REMARK    7  A    between atoms: C_9  and  C_10
REMARK    8  A    between atoms: C_13  and  C_15
REMARK    9  A    between atoms: C_15  and  C_16
REMARK   10  A    between atoms: C_17  and  C_36
REMARK                            x       y       z     vdW  Elec       q    Type
REMARK                         _______ _______ _______ _____ _____    ______ ____
ROOT
ATOM      1  C   UNL     1       1.429  -0.487  -0.014  0.00  0.00    +0.049 A 
ATOM      2  C   UNL     1       2.088  -0.712   1.153  0.00  0.00    -0.029 A 
ATOM      3  C   UNL     1       3.474  -1.181   1.074  0.00  0.00    +0.021 A 
ATOM      4  C   UNL     1       4.214  -1.435   2.232  0.00  0.00    +0.019 A 
ATOM      5  C   UNL     1       5.509  -1.869   2.140  0.00  0.00    -0.005 A 
ATOM      6  C   UNL     1       6.095  -2.060   0.893  0.00  0.00    +0.128 A 
ATOM      7  C   UNL     1       5.371  -1.813  -0.267  0.00  0.00    +0.093 A 
ATOM      8  C   UNL     1       4.058  -1.373  -0.191  0.00  0.00    +0.143 A 
ATOM      9  O   UNL     1       3.353  -1.135  -1.315  0.00  0.00    -0.422 OA
ATOM     10  C   UNL     1       2.087  -0.713  -1.239  0.00  0.00    +0.341 A 
ATOM     11  O   UNL     1       1.477  -0.511  -2.274  0.00  0.00    -0.245 OA
ATOM     12  O   UNL     1       7.377  -2.491   0.768  0.00  0.00    -0.485 OA
ATOM     13  C   UNL     1       8.228  -2.391   1.909  0.00  0.00    +0.111 C 
ATOM     14  C   UNL     1       9.524  -3.162   1.659  0.00  0.00    +0.048 C 
ATOM     15  C   UNL     1      10.257  -2.557   0.460  0.00  0.00    +0.004 C 
ATOM     16  C   UNL     1      10.580  -1.089   0.747  0.00  0.00    +0.000 C 
ATOM     17  C   UNL     1       9.280  -0.319   0.989  0.00  0.00    +0.004 C 
ATOM     18  C   UNL     1       8.547  -0.922   2.189  0.00  0.00    +0.048 C 
ATOM     19  C   UNL     1       7.498  -2.993   3.115  0.00  0.00    +0.053 C 
ATOM     20  C   UNL     1       6.272  -2.127   3.415  0.00  0.00    +0.043 C 
ATOM     21  C   UNL     1       1.416  -0.489   2.483  0.00  0.00    +0.045 C 
ENDROOT
BRANCH   1  22
ATOM     22  C   UNL     1       0.002  -0.004   0.002  0.00  0.00    +0.138 C 
BRANCH  22  24
ATOM     23  N   UNL     1      -1.195   2.161   0.019  0.00  0.00    -0.304 N 
ATOM     24  C   UNL     1      -0.018   1.503   0.010  0.00  0.00    +0.218 C 
ATOM     25  O   UNL     1       1.024   2.123   0.004  0.00  0.00    -0.275 OA
ATOM     26  H   UNL     1      -2.028   1.664   0.021  0.00  0.00    +0.149 HD
BRANCH  23  27
ATOM     27  C   UNL     1      -1.214   3.626   0.028  0.00  0.00    +0.159 C 
BRANCH  27  28
ATOM     28  C   UNL     1      -2.506   4.107   0.637  0.00  0.00    +0.233 C 
ATOM     29  O   UNL     1      -3.329   3.306   1.026  0.00  0.00    -0.274 OA
ATOM     30  N   UNL     1      -2.747   5.428   0.749  0.00  0.00    -0.313 N 
ATOM     31  H   UNL     1      -2.088   6.069   0.438  0.00  0.00    +0.149 HD
BRANCH  30  32
ATOM     32  C   UNL     1      -4.002   5.896   1.341  0.00  0.00    +0.115 C 
BRANCH  32  33
ATOM     33  C   UNL     1      -4.023   7.426   1.350  0.00  0.00    +0.144 C 
BRANCH  33  34
ATOM     34  C   UNL     1      -5.314   7.908   1.959  0.00  0.00    +0.357 C 
ATOM     35  O   UNL     1      -6.134   7.109   2.347  0.00  0.00    -0.246 OA
ATOM     36  O   UNL     1      -5.554   9.224   2.071  0.00  0.00    -0.246 OA
ENDBRANCH  33  34
ENDBRANCH  32  33
ENDBRANCH  30  32
ENDBRANCH  27  28
BRANCH  27  38
ATOM     37  C   UNL     1       0.262   3.762  -1.983  0.00  0.00    +0.006 C 
ATOM     38  C   UNL     1      -1.103   4.145  -1.407  0.00  0.00    +0.028 C 
ENDBRANCH  27  38
ENDBRANCH  23  27
ENDBRANCH  22  24
ENDBRANCH   1  22
TORSDOF 8
