REMARK  Name = ZINC09174061
REMARK  15 active torsions:
REMARK  status: ('A' for Active; 'I' for Inactive)
REMARK    1  A    between atoms: C_1  and  C_2
REMARK    2  A    between atoms: C_2  and  N_72
REMARK    3  A    between atoms: C_3  and  C_4
REMARK    4  A    between atoms: C_3  and  N_72
REMARK    5  A    between atoms: C_5  and  C_6
REMARK    6  A    between atoms: C_5  and  N_72
REMARK    7  A    between atoms: C_6  and  C_7
REMARK    8  A    between atoms: C_7  and  N_8
REMARK    9  A    between atoms: C_9  and  C_28
REMARK   10  A    between atoms: C_12  and  C_13
REMARK   11  A    between atoms: C_12  and  O_23
REMARK   12  A    between atoms: C_14  and  C_22
REMARK   13  A    between atoms: C_31  and  C_34
REMARK   14  A    between atoms: C_34  and  C_35
REMARK   15  A    between atoms: C_34  and  C_36
REMARK                            x       y       z     vdW  Elec       q    Type
REMARK                         _______ _______ _______ _____ _____    ______ ____
ROOT
ATOM      1  N   UNL     1       2.626   3.695  -0.014  0.00  0.00    -0.284 N 
ATOM      2  C   UNL     1       2.604   2.532   0.878  0.00  0.00    +0.145 C 
ATOM      3  C   UNL     1       2.538   3.073   2.288  0.00  0.00    +0.073 C 
ATOM      4  C   UNL     1       2.499   2.332   3.466  0.00  0.00    +0.151 C 
ATOM      5  C   UNL     1       2.524   4.462   2.173  0.00  0.00    +0.249 C 
ATOM      6  O   UNL     1       2.474   5.255   3.099  0.00  0.00    -0.282 OA
ATOM      7  C   UNL     1       2.579   4.813   0.731  0.00  0.00    +0.288 C 
ATOM      8  O   UNL     1       2.583   5.944   0.290  0.00  0.00    -0.266 OA
ENDROOT
BRANCH   4   9
ATOM      9  C   UNL     1       2.438   2.990   4.711  0.00  0.00    +0.111 A 
ATOM     10  C   UNL     1       3.453   3.726   5.316  0.00  0.00    +0.068 A 
ATOM     11  N   UNL     1       2.998   4.181   6.470  0.00  0.00    -0.232 NA
ATOM     12  C   UNL     1       1.742   3.774   6.656  0.00  0.00    +0.138 A 
ATOM     13  N   UNL     1       1.360   3.027   5.578  0.00  0.00    -0.297 N 
ATOM     14  C   UNL     1       0.114   2.487   5.514  0.00  0.00    +0.093 A 
ATOM     15  C   UNL     1      -0.772   2.678   6.519  0.00  0.00    +0.018 A 
ATOM     16  C   UNL     1      -0.412   3.439   7.639  0.00  0.00    +0.005 A 
ATOM     17  C   UNL     1       0.837   3.984   7.710  0.00  0.00    +0.047 A 
ATOM     18  C   UNL     1       4.830   3.965   4.752  0.00  0.00    +0.068 C 
ENDBRANCH   4   9
BRANCH   2  19
ATOM     19  C   UNL     1       1.391   1.684   0.593  0.00  0.00    -0.022 A 
ATOM     20  C   UNL     1       0.183   2.285   0.293  0.00  0.00    +0.006 A 
ATOM     21  C   UNL     1      -0.929   1.508   0.030  0.00  0.00    +0.004 A 
ATOM     22  C   UNL     1      -0.834   0.129   0.069  0.00  0.00    -0.045 A 
ATOM     23  C   UNL     1       0.374  -0.472   0.370  0.00  0.00    +0.004 A 
ATOM     24  C   UNL     1       1.487   0.306   0.632  0.00  0.00    +0.006 A 
BRANCH  22  25
ATOM     25  C   UNL     1      -2.046  -0.719  -0.217  0.00  0.00    +0.013 C 
ATOM     26  C   UNL     1      -1.768  -1.615  -1.425  0.00  0.00    +0.012 C 
ATOM     27  C   UNL     1      -2.360  -1.588   1.002  0.00  0.00    +0.012 C 
ENDBRANCH  22  25
ENDBRANCH   2  19
BRANCH   4  28
ATOM     28  O   UNL     1       2.521   0.980   3.416  0.00  0.00    -0.504 OA
ATOM     29  H   UNL     1       2.487   0.612   4.345  0.00  0.00    +0.292 HD
ENDBRANCH   4  28
BRANCH   1  30
ATOM     30  C   UNL     1       2.688   3.647  -1.477  0.00  0.00    +0.107 C 
BRANCH  30  31
ATOM     31  C   UNL     1       1.268   3.611  -2.047  0.00  0.00    +0.000 C 
BRANCH  31  32
ATOM     32  C   UNL     1       1.333   3.561  -3.574  0.00  0.00    -0.077 C 
BRANCH  32  33
ATOM     33  N   UNL     1      -0.044   3.547  -4.110  0.00  0.00    +0.379 N 
ATOM     34  H   UNL     1      -0.571   4.325  -3.695  0.00  0.00    -0.082 HD
BRANCH  33  36
ATOM     35  C   UNL     1       0.234   5.190  -5.898  0.00  0.00    -0.017 C 
ATOM     36  C   UNL     1      -0.017   3.715  -5.578  0.00  0.00    -0.082 C 
ENDBRANCH  33  36
BRANCH  33  37
ATOM     37  C   UNL     1      -0.710   2.275  -3.760  0.00  0.00    -0.082 C 
ATOM     38  C   UNL     1      -2.215   2.429  -3.987  0.00  0.00    -0.017 C 
ENDBRANCH  33  37
ENDBRANCH  32  33
ENDBRANCH  31  32
ENDBRANCH  30  31
ENDBRANCH   1  30
TORSDOF 10
