REMARK  Name = ZINC11912411
REMARK  10 active torsions:
REMARK  status: ('A' for Active; 'I' for Inactive)
REMARK    1  A    between atoms: C_1  and  C_2
REMARK    2  A    between atoms: C_2  and  C_3
REMARK    3  A    between atoms: C_3  and  C_4
REMARK    4  A    between atoms: C_4  and  N_5
REMARK    5  A    between atoms: C_6  and  C_8
REMARK    6  A    between atoms: N_10  and  C_30
REMARK    7  A    between atoms: C_12  and  C_15
REMARK    8  A    between atoms: N_17  and  C_18
REMARK    9  A    between atoms: C_18  and  C_20
REMARK   10  A    between atoms: C_18  and  C_26
REMARK                            x       y       z     vdW  Elec       q    Type
REMARK                         _______ _______ _______ _____ _____    ______ ____
ROOT
ATOM      1  C   UNL     1       0.094   3.874   0.022  0.00  0.00    +0.100 A 
ATOM      2  C   UNL     1       1.227   3.090   0.007  0.00  0.00    +0.102 A 
ATOM      3  N   UNL     1       1.150   1.749   0.001  0.00  0.00    -0.349 N 
ATOM      4  C   UNL     1      -0.013   1.076   0.008  0.00  0.00    +0.102 A 
ATOM      5  C   UNL     1      -1.223   1.733   0.017  0.00  0.00    +0.100 A 
ATOM      6  C   UNL     1      -1.218   3.206   0.031  0.00  0.00    +0.206 A 
ATOM      7  O   UNL     1      -2.257   3.845   0.045  0.00  0.00    -0.286 OA
ENDROOT
BRANCH   3   8
ATOM      8  C   UNL     1       2.397   0.981  -0.015  0.00  0.00    +0.087 C 
ATOM      9  C   UNL     1       3.221   1.322   1.228  0.00  0.00    +0.025 C 
ATOM     10  C   UNL     1       4.524   0.520   1.212  0.00  0.00    +0.002 C 
ATOM     11  C   UNL     1       5.325   0.873  -0.043  0.00  0.00    +0.000 C 
ATOM     12  C   UNL     1       4.501   0.533  -1.286  0.00  0.00    +0.002 C 
ATOM     13  C   UNL     1       3.198   1.334  -1.270  0.00  0.00    +0.025 C 
ENDBRANCH   3   8
BRANCH   1  15
ATOM     14  N   UNL     1       1.403   5.937   0.022  0.00  0.00    -0.311 N 
ATOM     15  C   UNL     1       0.193   5.344   0.030  0.00  0.00    +0.249 C 
ATOM     16  O   UNL     1      -0.817   6.021   0.044  0.00  0.00    -0.270 OA
ATOM     17  H   UNL     1       2.208   5.397   0.011  0.00  0.00    +0.149 HD
BRANCH  14  18
ATOM     18  C   UNL     1       1.502   7.399   0.030  0.00  0.00    +0.104 C 
BRANCH  18  19
ATOM     19  C   UNL     1       2.975   7.811   0.019  0.00  0.00    +0.018 C 
BRANCH  19  21
ATOM     20  C   UNL     1       4.552   9.749   0.015  0.00  0.00    +0.004 C 
ATOM     21  C   UNL     1       3.078   9.337   0.027  0.00  0.00    -0.002 C 
ENDBRANCH  19  21
ENDBRANCH  18  19
ENDBRANCH  14  18
ENDBRANCH   1  15
BRANCH   5  22
ATOM     22  C   UNL     1      -2.490   0.983   0.019  0.00  0.00    +0.250 C 
ATOM     23  O   UNL     1      -3.550   1.579   0.028  0.00  0.00    -0.270 OA
ATOM     24  N   UNL     1      -2.475  -0.365   0.012  0.00  0.00    -0.296 N 
ATOM     25  H   UNL     1      -1.630  -0.841   0.005  0.00  0.00    +0.150 HD
BRANCH  24  26
ATOM     26  C   UNL     1      -3.736  -1.112   0.014  0.00  0.00    +0.209 C 
BRANCH  26  27
ATOM     27  C   UNL     1      -3.514  -2.473  -0.595  0.00  0.00    -0.001 A 
ATOM     28  C   UNL     1      -4.466  -3.029  -1.436  0.00  0.00    +0.009 A 
ATOM     29  C   UNL     1      -4.218  -4.281  -1.977  0.00  0.00    +0.020 A 
ATOM     30  C   UNL     1      -3.043  -4.933  -1.654  0.00  0.00    +0.111 A 
ATOM     31  N   UNL     1      -2.162  -4.375  -0.847  0.00  0.00    -0.263 NA
ATOM     32  C   UNL     1      -2.363  -3.184  -0.318  0.00  0.00    +0.116 A 
ENDBRANCH  26  27
BRANCH  26  33
ATOM     33  C   UNL     1      -4.231  -1.272   1.453  0.00  0.00    +0.412 C 
ATOM     34  F   UNL     1      -4.437  -0.008   2.018  0.00  0.00    -0.168 F 
ATOM     35  F   UNL     1      -5.435  -1.985   1.454  0.00  0.00    -0.168 F 
ATOM     36  F   UNL     1      -3.276  -1.967   2.201  0.00  0.00    -0.168 F 
ENDBRANCH  26  33
ENDBRANCH  24  26
ENDBRANCH   5  22
TORSDOF 9
