REMARK  Name = ZINC63350897
REMARK  12 active torsions:
REMARK  status: ('A' for Active; 'I' for Inactive)
REMARK    1  A    between atoms: C_1  and  C_2
REMARK    2  A    between atoms: C_4  and  C_13
REMARK    3  A    between atoms: N_14  and  N_15
REMARK    4  A    between atoms: C_16  and  C_18
REMARK    5  A    between atoms: C_18  and  C_20
REMARK    6  A    between atoms: C_18  and  N_30
REMARK    7  A    between atoms: C_20  and  C_21
REMARK    8  A    between atoms: C_31  and  O_33
REMARK    9  A    between atoms: O_33  and  C_34
REMARK   10  A    between atoms: C_34  and  C_35
REMARK   11  A    between atoms: C_34  and  C_36
REMARK   12  A    between atoms: C_34  and  C_37
REMARK                            x       y       z     vdW  Elec       q    Type
REMARK                         _______ _______ _______ _____ _____    ______ ____
ROOT
ATOM      1  C   UNL     1      -7.076   0.925  -1.739  0.00  0.00    +0.168 C 
ENDROOT
BRANCH   1   3
ATOM      2  N   UNL     1      -4.705   0.568  -1.133  0.00  0.00    -0.205 N 
ATOM      3  C   UNL     1      -5.970   0.102  -1.131  0.00  0.00    +0.253 C 
ATOM      4  O   UNL     1      -6.217  -0.979  -0.640  0.00  0.00    -0.272 OA
ATOM      5  H   UNL     1      -4.507   1.432  -1.526  0.00  0.00    +0.177 HD
BRANCH   2   7
ATOM      6  C   UNL     1      -2.454   0.253  -0.570  0.00  0.00    +0.137 C 
ATOM      7  N   UNL     1      -3.676  -0.197  -0.568  0.00  0.00    -0.188 NA
BRANCH   6  10
ATOM      8  C   UNL     1      -0.019   1.526   0.010  0.00  0.00    +0.057 C 
ATOM      9  C   UNL     1       0.002  -0.004   0.002  0.00  0.00    +0.202 C 
ATOM     10  C   UNL     1      -1.413  -0.521   0.002  0.00  0.00    +0.013 C 
ATOM     11  C   UNL     1      -1.686  -1.729   0.552  0.00  0.00    +0.020 C 
ATOM     12  C   UNL     1      -0.571  -2.482   1.151  0.00  0.00    +0.017 A 
ATOM     13  C   UNL     1      -0.680  -3.842   1.434  0.00  0.00    +0.011 A 
ATOM     14  C   UNL     1       0.391  -4.507   1.995  0.00  0.00    +0.001 A 
ATOM     15  C   UNL     1       1.566  -3.830   2.276  0.00  0.00    +0.004 A 
ATOM     16  C   UNL     1       1.685  -2.480   1.998  0.00  0.00    +0.046 A 
ATOM     17  C   UNL     1       0.622  -1.797   1.436  0.00  0.00    +0.128 A 
ATOM     18  O   UNL     1       0.702  -0.473   1.155  0.00  0.00    -0.484 OA
ENDBRANCH   6  10
ENDBRANCH   2   7
ENDBRANCH   1   3
BRANCH   1  19
ATOM     19  N   UNL     1      -8.216   0.058  -2.050  0.00  0.00    -0.269 N 
ATOM     20  C   UNL     1      -8.826  -0.631  -1.065  0.00  0.00    +0.401 C 
ATOM     21  O   UNL     1      -8.431  -0.534   0.080  0.00  0.00    -0.226 OA
ATOM     22  H   UNL     1      -8.531  -0.020  -2.963  0.00  0.00    +0.153 HD
BRANCH  20  23
ATOM     23  O   UNL     1      -9.873  -1.429  -1.350  0.00  0.00    -0.445 OA
BRANCH  23  24
ATOM     24  C   UNL     1     -10.471  -2.129  -0.258  0.00  0.00    +0.107 C 
ATOM     25  C   UNL     1     -10.989  -1.123   0.771  0.00  0.00    +0.055 C 
ATOM     26  C   UNL     1     -11.636  -2.977  -0.773  0.00  0.00    +0.055 C 
ATOM     27  C   UNL     1      -9.429  -3.038   0.397  0.00  0.00    +0.055 C 
ENDBRANCH  23  24
ENDBRANCH  20  23
ENDBRANCH   1  19
BRANCH   1  28
ATOM     28  C   UNL     1      -7.513   2.005  -0.747  0.00  0.00    +0.065 C 
BRANCH  28  29
ATOM     29  C   UNL     1      -8.532   2.904  -1.399  0.00  0.00    -0.039 C 
ATOM     30  C   UNL     1      -9.878   2.801  -1.317  0.00  0.00    -0.001 A 
ATOM     31  C   UNL     1     -10.762   1.857  -0.623  0.00  0.00    +0.010 A 
ATOM     32  C   UNL     1     -12.101   2.013  -0.730  0.00  0.00    +0.001 A 
ATOM     33  C   UNL     1     -12.665   3.050  -1.486  0.00  0.00    +0.002 A 
ATOM     34  C   UNL     1     -11.917   3.956  -2.152  0.00  0.00    +0.026 A 
ATOM     35  C   UNL     1     -10.497   3.888  -2.108  0.00  0.00    +0.043 A 
ATOM     36  N   UNL     1      -9.570   4.633  -2.659  0.00  0.00    -0.380 N 
ATOM     37  C   UNL     1      -8.256   4.107  -2.273  0.00  0.00    +0.144 C 
ATOM     38  H   UNL     1      -9.727   5.407  -3.223  0.00  0.00    +0.160 HD
ENDBRANCH  28  29
ENDBRANCH   1  28
TORSDOF 8
