REMARK  Name = ZINC12914002
REMARK  10 active torsions:
REMARK  status: ('A' for Active; 'I' for Inactive)
REMARK    1  A    between atoms: C_1  and  C_2
REMARK    2  A    between atoms: C_7  and  N_8
REMARK    3  A    between atoms: C_9  and  C_11
REMARK    4  A    between atoms: C_19  and  C_22
REMARK    5  A    between atoms: C_20  and  O_21
REMARK    6  A    between atoms: C_22  and  N_23
REMARK    7  A    between atoms: C_29  and  C_31
REMARK    8  A    between atoms: C_31  and  C_32
REMARK    9  A    between atoms: C_32  and  O_34
REMARK   10  A    between atoms: O_34  and  C_35
REMARK                            x       y       z     vdW  Elec       q    Type
REMARK                         _______ _______ _______ _____ _____    ______ ____
ROOT
ATOM      1  C   UNL     1      -0.229   0.032   4.838  0.00  0.00    +0.079 A 
ATOM      2  C   UNL     1      -0.261   1.418   4.835  0.00  0.00    +0.025 A 
ATOM      3  C   UNL     1      -0.357   2.109   6.051  0.00  0.00    -0.017 A 
ATOM      4  C   UNL     1      -0.393   3.516   6.084  0.00  0.00    +0.008 A 
ATOM      5  C   UNL     1      -0.487   4.159   7.279  0.00  0.00    +0.001 A 
ATOM      6  C   UNL     1      -0.549   3.445   8.475  0.00  0.00    +0.001 A 
ATOM      7  C   UNL     1      -0.517   2.084   8.482  0.00  0.00    +0.009 A 
ATOM      8  C   UNL     1      -0.421   1.383   7.268  0.00  0.00    -0.010 A 
ATOM      9  C   UNL     1      -0.388  -0.021   7.244  0.00  0.00    +0.016 A 
ATOM     10  C   UNL     1      -0.299  -0.681   6.054  0.00  0.00    +0.134 A 
ENDROOT
BRANCH   1  12
ATOM     11  N   UNL     1      -0.060  -0.025   2.399  0.00  0.00    -0.281 N 
ATOM     12  C   UNL     1      -0.127  -0.702   3.562  0.00  0.00    +0.252 C 
ATOM     13  O   UNL     1      -0.104  -1.917   3.561  0.00  0.00    -0.270 OA
ATOM     14  H   UNL     1      -0.015   0.944   2.404  0.00  0.00    +0.155 HD
BRANCH  11  21
ATOM     15  C   UNL     1      -1.372   1.159   0.168  0.00  0.00    +0.045 C 
ATOM     16  C   UNL     1      -0.683  -0.178   0.071  0.00  0.00    -0.029 A 
ATOM     17  C   UNL     1      -0.671  -0.864  -1.128  0.00  0.00    +0.005 A 
ATOM     18  C   UNL     1      -0.040  -2.091  -1.218  0.00  0.00    +0.000 A 
ATOM     19  C   UNL     1       0.583  -2.635  -0.109  0.00  0.00    +0.002 A 
ATOM     20  C   UNL     1       0.575  -1.954   1.092  0.00  0.00    +0.023 A 
ATOM     21  C   UNL     1      -0.055  -0.719   1.185  0.00  0.00    +0.037 A 
ENDBRANCH  11  21
ENDBRANCH   1  12
BRANCH  10  22
ATOM     22  O   UNL     1      -0.273  -2.038   6.038  0.00  0.00    -0.506 OA
ATOM     23  H   UNL     1       0.616  -2.415   6.094  0.00  0.00    +0.292 HD
ENDBRANCH  10  22
BRANCH   9  24
ATOM     24  C   UNL     1      -0.455  -0.798   8.533  0.00  0.00    +0.124 C 
BRANCH  24  25
ATOM     25  N   UNL     1      -1.858  -1.082   8.861  0.00  0.00    -0.285 NA
ATOM     26  C   UNL     1      -2.416  -2.100   7.956  0.00  0.00    +0.104 C 
ATOM     27  C   UNL     1      -3.936  -2.133   8.131  0.00  0.00    +0.119 C 
ATOM     28  N   UNL     1      -4.274  -2.241   9.548  0.00  0.00    -0.313 N 
ATOM     29  C   UNL     1      -3.409  -1.949  10.525  0.00  0.00    +0.231 C 
ATOM     30  O   UNL     1      -3.782  -2.036  11.676  0.00  0.00    -0.274 OA
ATOM     31  C   UNL     1      -1.995  -1.518  10.258  0.00  0.00    +0.154 C 
ATOM     32  H   UNL     1      -5.165  -2.537   9.790  0.00  0.00    +0.149 HD
BRANCH  31  33
ATOM     33  C   UNL     1      -1.633  -0.359  11.189  0.00  0.00    +0.149 C 
BRANCH  33  34
ATOM     34  C   UNL     1      -2.551   0.806  10.922  0.00  0.00    +0.309 C 
ATOM     35  O   UNL     1      -3.461   0.690  10.136  0.00  0.00    -0.251 OA
BRANCH  34  36
ATOM     36  O   UNL     1      -2.357   1.972  11.557  0.00  0.00    -0.468 OA
ATOM     37  C   UNL     1      -3.265   3.034  11.256  0.00  0.00    +0.280 C 
ENDBRANCH  34  36
ENDBRANCH  33  34
ENDBRANCH  31  33
ENDBRANCH  24  25
ENDBRANCH   9  24
TORSDOF 8
