REMARK  Name = ZINC59922366
REMARK  6 active torsions:
REMARK  status: ('A' for Active; 'I' for Inactive)
REMARK    1  A    between atoms: C_1  and  C_2
REMARK    2  A    between atoms: C_4  and  C_7
REMARK    3  A    between atoms: C_7  and  N_14
REMARK    4  A    between atoms: C_15  and  C_17
REMARK    5  A    between atoms: C_17  and  C_18
REMARK    6  A    between atoms: C_25  and  C_30
REMARK                            x       y       z     vdW  Elec       q    Type
REMARK                         _______ _______ _______ _____ _____    ______ ____
ROOT
ATOM      1  N   UNL     1      -2.515  -3.158   1.122  0.00  0.00    -0.303 N 
ATOM      2  C   UNL     1      -3.346  -2.102   1.224  0.00  0.00    +0.215 C 
ATOM      3  O   UNL     1      -3.327  -1.232   0.380  0.00  0.00    -0.276 OA
ATOM      4  H   UNL     1      -2.531  -3.855   1.797  0.00  0.00    +0.150 HD
ENDROOT
BRANCH   1   5
ATOM      5  C   UNL     1      -1.588  -3.254  -0.008  0.00  0.00    +0.097 C 
ATOM      6  C   UNL     1      -2.360  -3.292  -1.299  0.00  0.00    +0.034 C 
ATOM      7  C   UNL     1      -3.787  -3.844  -1.116  0.00  0.00    +0.003 C 
ATOM      8  C   UNL     1      -3.841  -5.061  -0.173  0.00  0.00    +0.000 C 
ATOM      9  C   UNL     1      -2.707  -6.023  -0.409  0.00  0.00    +0.000 C 
ATOM     10  C   UNL     1      -1.562  -5.679   0.566  0.00  0.00    +0.003 C 
ATOM     11  C   UNL     1      -0.763  -4.552   0.108  0.00  0.00    +0.034 C 
BRANCH   5  15
ATOM     12  C   UNL     1      -0.018   1.503   0.010  0.00  0.00    +0.112 C 
ATOM     13  C   UNL     1       0.002  -0.004   0.002  0.00  0.00    +0.224 A 
ATOM     14  N   UNL     1      -1.044  -0.783   0.003  0.00  0.00    -0.194 NA
ATOM     15  C   UNL     1      -0.663  -2.065  -0.006  0.00  0.00    +0.195 A 
ATOM     16  N   UNL     1       0.638  -2.118  -0.012  0.00  0.00    -0.059 NA
ATOM     17  O   UNL     1       1.097  -0.774  -0.013  0.00  0.00    -0.338 OA
ENDBRANCH   5  15
ENDBRANCH   1   5
BRANCH   2  18
ATOM     18  C   UNL     1      -4.300  -2.003   2.386  0.00  0.00    +0.119 C 
BRANCH  18  19
ATOM     19  C   UNL     1      -5.123  -0.720   2.263  0.00  0.00    +0.146 C 
ATOM     20  C   UNL     1      -5.997  -0.560   3.480  0.00  0.00    +0.231 C 
ATOM     21  O   UNL     1      -5.620   0.174   4.369  0.00  0.00    -0.274 OA
ATOM     22  N   UNL     1      -7.162  -1.183   3.626  0.00  0.00    -0.284 N 
ATOM     23  C   UNL     1      -7.811  -1.964   2.674  0.00  0.00    +0.047 A 
ATOM     24  C   UNL     1      -8.832  -2.819   3.079  0.00  0.00    +0.036 A 
ATOM     25  C   UNL     1      -9.485  -3.611   2.155  0.00  0.00    +0.057 A 
ATOM     26  C   UNL     1      -9.133  -3.565   0.819  0.00  0.00    +0.013 A 
ATOM     27  C   UNL     1      -8.122  -2.717   0.401  0.00  0.00    +0.017 A 
ATOM     28  C   UNL     1      -7.468  -1.918   1.323  0.00  0.00    +0.030 A 
ATOM     29  S   UNL     1      -6.187  -0.815   0.791  0.00  0.00    -0.110 S 
ATOM     30  H   UNL     1      -7.605  -1.083   4.483  0.00  0.00    +0.155 HD
BRANCH  25  31
ATOM     31  C   UNL     1     -10.589  -4.532   2.607  0.00  0.00    +0.417 C 
ATOM     32  F   UNL     1     -11.813  -3.857   2.548  0.00  0.00    -0.166 F 
ATOM     33  F   UNL     1     -10.633  -5.652   1.770  0.00  0.00    -0.166 F 
ATOM     34  F   UNL     1     -10.345  -4.941   3.922  0.00  0.00    -0.166 F 
ENDBRANCH  25  31
ENDBRANCH  18  19
ENDBRANCH   2  18
TORSDOF 5
