REMARK  Name = ZINC24674361
REMARK  8 active torsions:
REMARK  status: ('A' for Active; 'I' for Inactive)
REMARK    1  A    between atoms: C_1  and  C_2
REMARK    2  A    between atoms: C_2  and  C_4
REMARK    3  A    between atoms: C_2  and  N_7
REMARK    4  A    between atoms: N_7  and  C_8
REMARK    5  A    between atoms: N_7  and  C_15
REMARK    6  A    between atoms: C_8  and  C_9
REMARK    7  A    between atoms: C_15  and  C_16
REMARK    8  A    between atoms: N_18  and  N_19
REMARK                            x       y       z     vdW  Elec       q    Type
REMARK                         _______ _______ _______ _____ _____    ______ ____
ROOT
ATOM      1  C   UNL     1      -2.099  -2.693  -1.267  0.00  0.00    +0.213 C 
ATOM      2  O   UNL     1      -1.492  -2.276  -2.230  0.00  0.00    -0.276 OA
ATOM      3  N   UNL     1      -2.649  -3.923  -1.298  0.00  0.00    -0.225 N 
ATOM      4  H   UNL     1      -3.195  -4.229  -0.557  0.00  0.00    +0.173 HD
ENDROOT
BRANCH   3   5
ATOM      5  N   UNL     1      -2.432  -4.760  -2.400  0.00  0.00    -0.137 N 
ATOM      6  C   UNL     1      -3.345  -4.997  -3.364  0.00  0.00    +0.263 C 
ATOM      7  O   UNL     1      -4.468  -4.545  -3.438  0.00  0.00    -0.271 OA
ATOM      8  C   UNL     1      -2.675  -5.946  -4.331  0.00  0.00    +0.114 C 
ATOM      9  C   UNL     1      -2.567  -5.308  -5.712  0.00  0.00    +0.035 C 
ATOM     10  C   UNL     1      -1.859  -6.272  -6.668  0.00  0.00    +0.003 C 
ATOM     11  C   UNL     1      -2.650  -7.579  -6.751  0.00  0.00    +0.000 C 
ATOM     12  C   UNL     1      -2.729  -8.218  -5.363  0.00  0.00    +0.003 C 
ATOM     13  C   UNL     1      -3.441  -7.262  -4.402  0.00  0.00    +0.035 C 
ATOM     14  N   UNL     1      -1.341  -6.157  -3.756  0.00  0.00    -0.284 N 
ATOM     15  C   UNL     1      -1.289  -5.419  -2.631  0.00  0.00    +0.326 C 
ATOM     16  O   UNL     1      -0.317  -5.360  -1.905  0.00  0.00    -0.251 OA
ATOM     17  H   UNL     1      -0.634  -6.715  -4.117  0.00  0.00    +0.151 HD
ENDBRANCH   3   5
BRANCH   1  18
ATOM     18  C   UNL     1      -2.239  -1.836  -0.035  0.00  0.00    +0.021 C 
BRANCH  18  19
ATOM     19  N   UNL     1      -1.114  -0.894   0.037  0.00  0.00    +0.390 N 
ATOM     20  H   UNL     1      -1.034  -0.398  -0.838  0.00  0.00    -0.080 HD
BRANCH  19  22
ATOM     21  C   UNL     1       0.790  -1.998  -1.036  0.00  0.00    -0.013 C 
ATOM     22  C   UNL     1       0.128  -1.635   0.294  0.00  0.00    -0.067 C 
BRANCH  22  23
ATOM     23  C   UNL     1      -0.192  -2.914   1.071  0.00  0.00    -0.025 C 
ATOM     24  C   UNL     1       0.131  -2.932   2.566  0.00  0.00    +0.002 C 
ATOM     25  C   UNL     1       0.988  -3.739   1.589  0.00  0.00    +0.002 C 
ENDBRANCH  22  23
ENDBRANCH  19  22
BRANCH  19  26
ATOM     26  C   UNL     1      -1.347   0.065   1.125  0.00  0.00    -0.042 C 
BRANCH  26  27
ATOM     27  C   UNL     1      -0.229   1.075   1.151  0.00  0.00    -0.064 A 
ATOM     28  C   UNL     1       0.850   0.891   1.995  0.00  0.00    +0.002 A 
ATOM     29  C   UNL     1       1.875   1.818   2.019  0.00  0.00    +0.000 A 
ATOM     30  C   UNL     1       1.821   2.930   1.199  0.00  0.00    +0.000 A 
ATOM     31  C   UNL     1       0.742   3.114   0.355  0.00  0.00    +0.000 A 
ATOM     32  C   UNL     1      -0.281   2.185   0.328  0.00  0.00    +0.002 A 
ENDBRANCH  26  27
ENDBRANCH  19  26
ENDBRANCH  18  19
ENDBRANCH   1  18
TORSDOF 7
