REMARK  Name = ZINC13568502
REMARK  5 active torsions:
REMARK  status: ('A' for Active; 'I' for Inactive)
REMARK    1  A    between atoms: C_1  and  N_2
REMARK    2  A    between atoms: N_2  and  C_3
REMARK    3  A    between atoms: N_2  and  C_4
REMARK    4  A    between atoms: C_7  and  C_10
REMARK    5  A    between atoms: C_15  and  C_25
REMARK                            x       y       z     vdW  Elec       q    Type
REMARK                         _______ _______ _______ _____ _____    ______ ____
ROOT
ATOM      1  C   UNL     1       0.134  -0.359   0.499  0.00  0.00    +0.032 C 
ATOM      2  C   UNL     1      -0.021   1.157   0.396  0.00  0.00    +0.059 C 
ATOM      3  C   UNL     1       1.340   1.806   0.213  0.00  0.00    +0.017 C 
ATOM      4  C   UNL     1       2.436   1.260   0.767  0.00  0.00    +0.036 C 
ATOM      5  C   UNL     1       3.843   1.798   0.664  0.00  0.00    +0.136 C 
ATOM      6  N   UNL     1       3.937   3.137   0.120  0.00  0.00    -0.331 N 
ATOM      7  C   UNL     1       3.560   3.406  -1.195  0.00  0.00    +0.049 A 
ATOM      8  C   UNL     1       4.492   3.765  -2.155  0.00  0.00    +0.025 A 
ATOM      9  C   UNL     1       4.089   3.912  -3.471  0.00  0.00    +0.002 A 
ATOM     10  C   UNL     1       2.769   3.704  -3.827  0.00  0.00    +0.002 A 
ATOM     11  C   UNL     1       1.831   3.367  -2.866  0.00  0.00    +0.025 A 
ATOM     12  C   UNL     1       2.229   3.237  -1.546  0.00  0.00    +0.052 A 
ATOM     13  N   UNL     1       1.333   2.946  -0.525  0.00  0.00    -0.316 N 
ATOM     14  C   UNL     1       2.333   0.067   1.520  0.00  0.00    +0.163 C 
ATOM     15  O   UNL     1       3.335  -0.390   2.034  0.00  0.00    -0.292 OA
ATOM     16  C   UNL     1       1.032  -0.654   1.706  0.00  0.00    +0.088 C 
ATOM     17  H   UNL     1       4.267   3.857   0.679  0.00  0.00    +0.147 HD
ATOM     18  H   UNL     1       0.650   3.606  -0.325  0.00  0.00    +0.152 HD
ENDROOT
BRANCH   5  19
ATOM     19  C   UNL     1       4.646   0.870  -0.211  0.00  0.00    -0.019 A 
ATOM     20  C   UNL     1       4.297   0.700  -1.538  0.00  0.00    +0.009 A 
ATOM     21  C   UNL     1       5.034  -0.146  -2.346  0.00  0.00    +0.050 A 
ATOM     22  C   UNL     1       6.117  -0.834  -1.825  0.00  0.00    +0.166 A 
ATOM     23  C   UNL     1       6.465  -0.667  -0.487  0.00  0.00    +0.167 A 
ATOM     24  C   UNL     1       5.726   0.187   0.316  0.00  0.00    +0.055 A 
ATOM     25  O   UNL     1       7.554  -1.444  -0.219  0.00  0.00    -0.453 OA
ATOM     26  C   UNL     1       7.620  -2.398  -1.295  0.00  0.00    +0.466 C 
ATOM     27  O   UNL     1       6.988  -1.717  -2.395  0.00  0.00    -0.453 OA
ENDBRANCH   5  19
BRANCH   1  31
ATOM     28  C   UNL     1      -3.695  -2.172   1.063  0.00  0.00    +0.029 A 
ATOM     29  C   UNL     1      -2.926  -2.500  -0.046  0.00  0.00    +0.023 A 
ATOM     30  C   UNL     1      -1.690  -1.913  -0.225  0.00  0.00    +0.006 A 
ATOM     31  C   UNL     1      -1.216  -0.998   0.698  0.00  0.00    -0.043 A 
ATOM     32  C   UNL     1      -1.977  -0.673   1.806  0.00  0.00    +0.006 A 
ATOM     33  C   UNL     1      -3.217  -1.253   1.989  0.00  0.00    +0.023 A 
BRANCH  28  35
ATOM     34  C   UNL     1      -5.450  -3.732   0.271  0.00  0.00    +0.129 C 
ATOM     35  N   UNL     1      -4.947  -2.764   1.248  0.00  0.00    -0.336 N 
ATOM     36  C   UNL     1      -5.757  -2.416   2.418  0.00  0.00    +0.129 C 
ENDBRANCH  28  35
ENDBRANCH   1  31
TORSDOF 3
