REMARK  Name = ZINC59310806
REMARK  7 active torsions:
REMARK  status: ('A' for Active; 'I' for Inactive)
REMARK    1  A    between atoms: C_1  and  N_2
REMARK    2  A    between atoms: C_4  and  C_7
REMARK    3  A    between atoms: N_8  and  N_9
REMARK    4  A    between atoms: C_12  and  S_15
REMARK    5  A    between atoms: S_15  and  C_16
REMARK    6  A    between atoms: C_16  and  C_17
REMARK    7  A    between atoms: N_19  and  C_20
REMARK                            x       y       z     vdW  Elec       q    Type
REMARK                         _______ _______ _______ _____ _____    ______ ____
ROOT
ATOM      1  N   UNL     1       0.047  -5.620  -1.802  0.00  0.00    -0.205 N 
ATOM      2  C   UNL     1       0.071  -6.877  -1.229  0.00  0.00    +0.232 A 
ATOM      3  N   UNL     1       0.084  -7.140   0.061  0.00  0.00    -0.186 NA
ATOM      4  C   UNL     1       0.106  -8.464   0.250  0.00  0.00    +0.211 A 
ATOM      5  N   UNL     1       0.107  -9.061  -0.918  0.00  0.00    -0.144 NA
ATOM      6  N   UNL     1       0.078  -8.053  -1.894  0.00  0.00    -0.245 N 
ATOM      7  H   UNL     1       0.034  -5.527  -2.768  0.00  0.00    +0.177 HD
ATOM      8  H   UNL     1       0.068  -8.175  -2.856  0.00  0.00    +0.192 HD
ENDROOT
BRANCH   1  10
ATOM      9  C   UNL     1       0.020  -3.299  -1.526  0.00  0.00    +0.141 C 
ATOM     10  N   UNL     1       0.042  -4.479  -0.988  0.00  0.00    -0.187 NA
BRANCH   9  14
ATOM     11  C   UNL     1      -0.023   1.460   0.008  0.00  0.00    +0.172 C 
ATOM     12  N   UNL     1      -0.005  -0.004   0.001  0.00  0.00    -0.274 N 
ATOM     13  C   UNL     1      -0.008  -0.788  -1.097  0.00  0.00    +0.117 A 
ATOM     14  C   UNL     1       0.015  -2.097  -0.668  0.00  0.00    +0.032 A 
ATOM     15  C   UNL     1       0.032  -2.076   0.743  0.00  0.00    +0.143 A 
ATOM     16  N   UNL     1       0.025  -0.829   1.131  0.00  0.00    -0.179 NA
ENDBRANCH   9  14
ENDBRANCH   1  10
BRANCH   4  17
ATOM     17  S   UNL     1       0.131  -9.275   1.814  0.00  0.00    -0.075 S 
BRANCH  17  18
ATOM     18  C   UNL     1       0.155 -11.039   1.394  0.00  0.00    +0.173 C 
BRANCH  18  19
ATOM     19  C   UNL     1       0.177 -11.857   2.659  0.00  0.00    +0.227 C 
ATOM     20  O   UNL     1       0.177 -11.303   3.739  0.00  0.00    -0.275 OA
ATOM     21  N   UNL     1       0.197 -13.203   2.592  0.00  0.00    -0.285 N 
ATOM     22  H   UNL     1       0.130 -13.646   1.732  0.00  0.00    +0.155 HD
BRANCH  21  23
ATOM     23  C   UNL     1       0.316 -13.960   3.763  0.00  0.00    +0.033 A 
ATOM     24  C   UNL     1       1.037 -15.147   3.753  0.00  0.00    +0.024 A 
ATOM     25  C   UNL     1       1.152 -15.893   4.910  0.00  0.00    +0.016 A 
ATOM     26  C   UNL     1       0.551 -15.458   6.078  0.00  0.00    +0.013 A 
ATOM     27  C   UNL     1      -0.167 -14.276   6.090  0.00  0.00    +0.016 A 
ATOM     28  C   UNL     1      -0.282 -13.523   4.938  0.00  0.00    +0.024 A 
ATOM     29  I   UNL     1       0.728 -16.592   7.830  0.00  0.00    -0.044 I 
ENDBRANCH  21  23
ENDBRANCH  18  19
ENDBRANCH  17  18
ENDBRANCH   4  17
TORSDOF 6
