REMARK  Name = ZINC00279577
REMARK  9 active torsions:
REMARK  status: ('A' for Active; 'I' for Inactive)
REMARK    1  A    between atoms: C_1  and  C_2
REMARK    2  A    between atoms: C_6  and  C_9
REMARK    3  A    between atoms: C_7  and  O_8
REMARK    4  A    between atoms: C_12  and  C_20
REMARK    5  A    between atoms: C_12  and  O_24
REMARK    6  A    between atoms: C_14  and  C_16
REMARK    7  A    between atoms: C_20  and  C_21
REMARK    8  A    between atoms: C_20  and  C_22
REMARK    9  A    between atoms: C_20  and  C_23
REMARK                            x       y       z     vdW  Elec       q    Type
REMARK                         _______ _______ _______ _____ _____    ______ ____
ROOT
ATOM      1  C   UNL     1      -1.464   3.869   0.849  0.00  0.00    +0.272 C 
ATOM      2  O   UNL     1      -1.599   5.056   0.621  0.00  0.00    -0.268 OA
ATOM      3  N   UNL     1      -0.267   3.278   0.661  0.00  0.00    -0.156 N 
ATOM      4  C   UNL     1       0.972   3.960   0.251  0.00  0.00    +0.166 C 
ATOM      5  C   UNL     1       2.004   2.816   0.195  0.00  0.00    +0.119 C 
ATOM      6  C   UNL     1       1.207   1.592   0.589  0.00  0.00    +0.144 C 
ATOM      7  N   UNL     1       0.002   1.920   0.818  0.00  0.00    -0.175 NA
ENDROOT
BRANCH   1  13
ATOM      8  C   UNL     1      -6.338   3.497   1.897  0.00  0.00    +0.047 C 
ATOM      9  C   UNL     1      -4.960   2.890   1.839  0.00  0.00    -0.008 A 
ATOM     10  C   UNL     1      -4.764   1.583   2.239  0.00  0.00    +0.007 A 
ATOM     11  C   UNL     1      -3.502   1.017   2.190  0.00  0.00    +0.001 A 
ATOM     12  C   UNL     1      -2.428   1.750   1.734  0.00  0.00    +0.017 A 
ATOM     13  C   UNL     1      -2.610   3.075   1.331  0.00  0.00    +0.080 A 
ATOM     14  C   UNL     1      -3.890   3.645   1.383  0.00  0.00    +0.132 A 
BRANCH  14  15
ATOM     15  O   UNL     1      -4.080   4.929   0.990  0.00  0.00    -0.506 OA
ATOM     16  H   UNL     1      -4.292   5.026   0.051  0.00  0.00    +0.292 HD
ENDBRANCH  14  15
ENDBRANCH   1  13
BRANCH   6  17
ATOM     17  C   UNL     1       1.760   0.194   0.690  0.00  0.00    +0.432 C 
ATOM     18  F   UNL     1       0.741  -0.683   1.079  0.00  0.00    -0.165 F 
ATOM     19  F   UNL     1       2.262  -0.200  -0.555  0.00  0.00    -0.165 F 
ATOM     20  F   UNL     1       2.788   0.165   1.638  0.00  0.00    -0.165 F 
ENDBRANCH   6  17
BRANCH   4  21
ATOM     21  C   UNL     1       0.806   4.606  -1.126  0.00  0.00    +0.010 C 
ATOM     22  C   UNL     1       0.159   3.605  -2.084  0.00  0.00    +0.015 C 
ATOM     23  C   UNL     1      -0.084   5.845  -1.005  0.00  0.00    +0.015 C 
ATOM     24  C   UNL     1       2.178   5.014  -1.666  0.00  0.00    +0.015 C 
ENDBRANCH   4  21
BRANCH   4  25
ATOM     25  O   UNL     1       1.354   4.937   1.222  0.00  0.00    -0.369 OA
ATOM     26  H   UNL     1       1.439   4.588   2.119  0.00  0.00    +0.212 HD
ENDBRANCH   4  25
TORSDOF 5
