REMARK  Name = ZINC32051717
REMARK  14 active torsions:
REMARK  status: ('A' for Active; 'I' for Inactive)
REMARK    1  A    between atoms: C_1  and  C_2
REMARK    2  A    between atoms: C_2  and  C_37
REMARK    3  A    between atoms: N_14  and  N_15
REMARK    4  A    between atoms: C_16  and  C_18
REMARK    5  A    between atoms: C_18  and  C_19
REMARK    6  A    between atoms: C_19  and  C_20
REMARK    7  A    between atoms: C_20  and  C_21
REMARK    8  A    between atoms: C_21  and  C_22
REMARK    9  A    between atoms: C_22  and  N_23
REMARK   10  A    between atoms: C_24  and  O_26
REMARK   11  A    between atoms: O_26  and  C_27
REMARK   12  A    between atoms: C_27  and  C_28
REMARK   13  A    between atoms: C_27  and  C_29
REMARK   14  A    between atoms: C_27  and  C_30
REMARK                            x       y       z     vdW  Elec       q    Type
REMARK                         _______ _______ _______ _____ _____    ______ ____
ROOT
ATOM      1  C   UNL     1      -4.930  -1.128  13.839  0.00  0.00    +0.055 C 
ATOM      2  C   UNL     1      -3.895  -1.458  12.762  0.00  0.00    +0.105 C 
ATOM      3  C   UNL     1      -2.623  -2.009  13.420  0.00  0.00    +0.052 C 
ATOM      4  C   UNL     1      -1.655  -2.435  12.313  0.00  0.00    +0.043 C 
ATOM      5  C   UNL     1      -1.540  -1.335  11.287  0.00  0.00    -0.005 A 
ATOM      6  C   UNL     1      -0.464  -1.352  10.421  0.00  0.00    +0.019 A 
ATOM      7  C   UNL     1      -0.330  -0.355   9.456  0.00  0.00    +0.021 A 
ATOM      8  C   UNL     1      -1.291   0.667   9.368  0.00  0.00    +0.141 A 
ATOM      9  C   UNL     1      -2.360   0.676  10.242  0.00  0.00    +0.092 A 
ATOM     10  C   UNL     1      -2.487  -0.324  11.203  0.00  0.00    +0.128 A 
ATOM     11  O   UNL     1      -3.553  -0.272  12.044  0.00  0.00    -0.486 OA
ATOM     12  O   UNL     1      -1.153   1.633   8.424  0.00  0.00    -0.438 OA
ATOM     13  C   UNL     1      -0.470   1.289   7.297  0.00  0.00    +0.215 A 
ATOM     14  N   UNL     1      -0.874   1.684   6.117  0.00  0.00    -0.274 N 
ATOM     15  C   UNL     1       0.734   0.452   7.446  0.00  0.00    +0.018 A 
ATOM     16  C   UNL     1       0.809  -0.355   8.519  0.00  0.00    -0.029 A 
ATOM     17  C   UNL     1       1.989  -1.240   8.799  0.00  0.00    +0.036 C 
ATOM     18  C   UNL     1       2.823  -1.434   7.537  0.00  0.00    +0.005 C 
ATOM     19  C   UNL     1       3.119  -0.052   6.942  0.00  0.00    +0.005 C 
ATOM     20  C   UNL     1       1.812   0.532   6.405  0.00  0.00    +0.041 C 
ATOM     21  C   UNL     1      -4.468  -2.498  11.797  0.00  0.00    +0.055 C 
ATOM     22  H   UNL     1      -1.590   2.514   6.030  0.00  0.00    +0.188 HD
ENDROOT
BRANCH  14  23
ATOM     23  N   UNL     1      -0.393   1.051   4.963  0.00  0.00    -0.227 N 
ATOM     24  C   UNL     1      -0.707   1.538   3.746  0.00  0.00    +0.231 C 
ATOM     25  O   UNL     1      -1.406   2.526   3.650  0.00  0.00    -0.274 OA
ATOM     26  H   UNL     1       0.241   0.156   5.051  0.00  0.00    +0.175 HD
BRANCH  24  27
ATOM     27  C   UNL     1      -0.190   0.857   2.506  0.00  0.00    +0.097 C 
BRANCH  27  28
ATOM     28  C   UNL     1      -0.689   1.605   1.268  0.00  0.00    +0.009 C 
BRANCH  28  29
ATOM     29  C   UNL     1      -0.164   0.914   0.008  0.00  0.00    +0.002 C 
BRANCH  29  30
ATOM     30  C   UNL     1      -0.663   1.661  -1.230  0.00  0.00    +0.019 C 
BRANCH  30  31
ATOM     31  C   UNL     1      -0.138   0.970  -2.490  0.00  0.00    +0.107 C 
BRANCH  31  32
ATOM     32  N   UNL     1      -0.616   1.686  -3.675  0.00  0.00    -0.281 N 
ATOM     33  C   UNL     1      -0.277   1.254  -4.906  0.00  0.00    +0.401 C 
ATOM     34  O   UNL     1       0.426   0.271  -5.032  0.00  0.00    -0.226 OA
ATOM     35  H   UNL     1      -1.252   2.576  -3.561  0.00  0.00    +0.152 HD
BRANCH  33  36
ATOM     36  O   UNL     1      -0.716   1.913  -5.995  0.00  0.00    -0.445 OA
BRANCH  36  37
ATOM     37  C   UNL     1      -0.311   1.391  -7.288  0.00  0.00    +0.107 C 
ATOM     38  C   UNL     1      -0.820  -0.044  -7.442  0.00  0.00    +0.055 C 
ATOM     39  C   UNL     1      -0.902   2.263  -8.398  0.00  0.00    +0.055 C 
ATOM     40  C   UNL     1       1.216   1.404  -7.388  0.00  0.00    +0.055 C 
ENDBRANCH  36  37
ENDBRANCH  33  36
ENDBRANCH  31  32
ENDBRANCH  30  31
ENDBRANCH  29  30
ENDBRANCH  28  29
ENDBRANCH  27  28
ENDBRANCH  24  27
ENDBRANCH  14  23
TORSDOF 9
