REMARK  Name = ZINC64636361
REMARK  9 active torsions:
REMARK  status: ('A' for Active; 'I' for Inactive)
REMARK    1  A    between atoms: C_1  and  C_2
REMARK    2  A    between atoms: C_4  and  C_24
REMARK    3  A    between atoms: C_6  and  C_9
REMARK    4  A    between atoms: C_14  and  N_15
REMARK    5  A    between atoms: C_16  and  C_18
REMARK    6  A    between atoms: C_24  and  N_25
REMARK    7  A    between atoms: C_26  and  C_28
REMARK    8  A    between atoms: C_28  and  C_29
REMARK    9  A    between atoms: C_29  and  C_30
REMARK                            x       y       z     vdW  Elec       q    Type
REMARK                         _______ _______ _______ _____ _____    ______ ____
ROOT
ATOM      1  C   UNL     1      -0.013   1.535   0.019  0.00  0.00    +0.044 C 
ATOM      2  C   UNL     1       0.012   0.005   0.004  0.00  0.00    +0.164 C 
ATOM      3  C   UNL     1       0.758  -0.497  -1.212  0.00  0.00    +0.062 C 
ATOM      4  N   UNL     1       1.540  -1.443  -0.848  0.00  0.00    -0.253 NA
ATOM      5  C   UNL     1       1.405  -1.670   0.596  0.00  0.00    +0.268 C 
ATOM      6  O   UNL     1       0.761  -0.496   1.131  0.00  0.00    -0.342 OA
ENDROOT
BRANCH   5   7
ATOM      7  C   UNL     1       2.764  -1.848   1.221  0.00  0.00    +0.024 A 
ATOM      8  C   UNL     1       3.901  -1.508   0.513  0.00  0.00    +0.010 A 
ATOM      9  C   UNL     1       5.149  -1.671   1.086  0.00  0.00    +0.001 A 
ATOM     10  C   UNL     1       5.263  -2.175   2.369  0.00  0.00    +0.002 A 
ATOM     11  C   UNL     1       4.131  -2.518   3.082  0.00  0.00    +0.024 A 
ATOM     12  C   UNL     1       2.876  -2.349   2.511  0.00  0.00    +0.041 A 
BRANCH  12  13
ATOM     13  N   UNL     1       1.727  -2.689   3.232  0.00  0.00    -0.281 N 
ATOM     14  C   UNL     1       1.747  -3.739   4.077  0.00  0.00    +0.248 C 
ATOM     15  O   UNL     1       2.785  -4.341   4.274  0.00  0.00    -0.270 OA
ATOM     16  H   UNL     1       0.915  -2.169   3.125  0.00  0.00    +0.155 HD
BRANCH  14  17
ATOM     17  C   UNL     1       0.508  -4.160   4.763  0.00  0.00    +0.037 A 
ATOM     18  C   UNL     1      -0.687  -3.475   4.535  0.00  0.00    +0.013 A 
ATOM     19  C   UNL     1      -1.840  -3.874   5.179  0.00  0.00    +0.001 A 
ATOM     20  C   UNL     1      -1.815  -4.949   6.049  0.00  0.00    +0.000 A 
ATOM     21  C   UNL     1      -0.634  -5.632   6.280  0.00  0.00    +0.001 A 
ATOM     22  C   UNL     1       0.526  -5.248   5.638  0.00  0.00    +0.013 A 
ENDBRANCH  14  17
ENDBRANCH  12  13
ENDBRANCH   5   7
BRANCH   3  23
ATOM     23  C   UNL     1       0.606   0.027  -2.616  0.00  0.00    +0.157 C 
BRANCH  23  24
ATOM     24  N   UNL     1       1.496  -0.714  -3.514  0.00  0.00    -0.310 N 
ATOM     25  C   UNL     1       1.529  -0.415  -4.827  0.00  0.00    +0.214 C 
ATOM     26  O   UNL     1       0.823   0.468  -5.267  0.00  0.00    -0.276 OA
ATOM     27  H   UNL     1       2.061  -1.420  -3.162  0.00  0.00    +0.149 HD
BRANCH  25  28
ATOM     28  C   UNL     1       2.445  -1.177  -5.750  0.00  0.00    +0.100 C 
BRANCH  28  29
ATOM     29  C   UNL     1       2.290  -0.645  -7.176  0.00  0.00    +0.042 C 
BRANCH  29  30
ATOM     30  C   UNL     1       3.205  -1.407  -8.099  0.00  0.00    -0.041 C 
ATOM     31  C   UNL     1       2.885  -2.481  -8.857  0.00  0.00    -0.001 A 
ATOM     32  C   UNL     1       1.638  -3.232  -9.042  0.00  0.00    +0.010 A 
ATOM     33  C   UNL     1       1.626  -4.287  -9.888  0.00  0.00    +0.001 A 
ATOM     34  C   UNL     1       2.773  -4.680 -10.591  0.00  0.00    +0.002 A 
ATOM     35  C   UNL     1       3.955  -4.040 -10.474  0.00  0.00    +0.026 A 
ATOM     36  C   UNL     1       4.082  -2.916  -9.612  0.00  0.00    +0.043 A 
ATOM     37  N   UNL     1       5.102  -2.142  -9.332  0.00  0.00    -0.380 N 
ATOM     38  C   UNL     1       4.666  -1.123  -8.371  0.00  0.00    +0.144 C 
ATOM     39  H   UNL     1       5.995  -2.226  -9.701  0.00  0.00    +0.160 HD
ENDBRANCH  29  30
ENDBRANCH  28  29
ENDBRANCH  25  28
ENDBRANCH  23  24
ENDBRANCH   3  23
TORSDOF 8
