REMARK  Name = ZINC16043699
REMARK  6 active torsions:
REMARK  status: ('A' for Active; 'I' for Inactive)
REMARK    1  A    between atoms: C_4  and  N_7
REMARK    2  A    between atoms: C_9  and  C_19
REMARK    3  A    between atoms: C_10  and  C_12
REMARK    4  A    between atoms: C_20  and  C_21
REMARK    5  A    between atoms: N_23  and  N_24
REMARK    6  A    between atoms: C_25  and  C_27
REMARK                            x       y       z     vdW  Elec       q    Type
REMARK                         _______ _______ _______ _____ _____    ______ ____
ROOT
ATOM      1  C   UNL     1       3.886   2.704  -1.514  0.00  0.00    +0.017 C 
ATOM      2  C   UNL     1       5.081   2.958  -2.092  0.00  0.00    +0.069 C 
ENDROOT
BRANCH   1   5
ATOM      3  N   UNL     1       4.077  -0.418   0.328  0.00  0.00    -0.239 N 
ATOM      4  C   UNL     1       4.653   0.522  -0.443  0.00  0.00    +0.123 A 
ATOM      5  C   UNL     1       3.704   1.492  -0.707  0.00  0.00    +0.021 A 
ATOM      6  C   UNL     1       2.480   1.070  -0.015  0.00  0.00    +0.100 A 
ATOM      7  N   UNL     1       2.748  -0.069   0.582  0.00  0.00    -0.166 NA
BRANCH   6   8
ATOM      8  C   UNL     1       1.185   1.790   0.000  0.00  0.00    +0.003 A 
ATOM      9  C   UNL     1      -0.013   1.076   0.008  0.00  0.00    +0.013 A 
ATOM     10  C   UNL     1      -1.216   1.750   0.017  0.00  0.00    +0.039 A 
ATOM     11  C   UNL     1      -1.236   3.136   0.031  0.00  0.00    +0.123 A 
ATOM     12  C   UNL     1      -0.049   3.850   0.023  0.00  0.00    +0.039 A 
ATOM     13  C   UNL     1       1.159   3.184   0.008  0.00  0.00    +0.013 A 
ATOM     14  F   UNL     1      -2.417   3.792   0.045  0.00  0.00    -0.205 F 
ENDBRANCH   6   8
BRANCH   3  18
ATOM     15  C   UNL     1       5.971  -3.849   1.748  0.00  0.00    +0.000 A 
ATOM     16  C   UNL     1       4.646  -3.610   2.066  0.00  0.00    +0.002 A 
ATOM     17  C   UNL     1       4.016  -2.474   1.597  0.00  0.00    +0.028 A 
ATOM     18  C   UNL     1       4.714  -1.571   0.806  0.00  0.00    +0.065 A 
ATOM     19  C   UNL     1       6.042  -1.817   0.483  0.00  0.00    +0.028 A 
ATOM     20  C   UNL     1       6.668  -2.952   0.960  0.00  0.00    +0.002 A 
ENDBRANCH   3  18
ENDBRANCH   1   5
BRANCH   2  21
ATOM     21  C   UNL     1       5.257   4.129  -2.871  0.00  0.00    +0.253 C 
ATOM     22  O   UNL     1       4.331   4.906  -3.020  0.00  0.00    -0.269 OA
ATOM     23  N   UNL     1       6.448   4.382  -3.448  0.00  0.00    -0.231 N 
ATOM     24  H   UNL     1       7.186   3.763  -3.329  0.00  0.00    +0.173 HD
BRANCH  23  25
ATOM     25  N   UNL     1       6.622   5.540  -4.218  0.00  0.00    -0.234 N 
ATOM     26  C   UNL     1       7.814   5.793  -4.795  0.00  0.00    +0.235 C 
ATOM     27  O   UNL     1       8.736   5.019  -4.647  0.00  0.00    -0.274 OA
ATOM     28  H   UNL     1       5.884   6.158  -4.337  0.00  0.00    +0.173 HD
BRANCH  26  29
ATOM     29  C   UNL     1       8.000   7.038  -5.624  0.00  0.00    +0.049 C 
ATOM     30  C   UNL     1       7.018   7.021  -6.797  0.00  0.00    +0.019 C 
ATOM     31  C   UNL     1       7.208   8.285  -7.638  0.00  0.00    -0.009 C 
ATOM     32  C   UNL     1       8.640   8.331  -8.173  0.00  0.00    +0.007 C 
ATOM     33  C   UNL     1       9.622   8.348  -7.000  0.00  0.00    -0.009 C 
ATOM     34  C   UNL     1       9.433   7.084  -6.159  0.00  0.00    +0.019 C 
ATOM     35  C   UNL     1       9.361   9.581  -6.133  0.00  0.00    +0.007 C 
ATOM     36  C   UNL     1       7.929   9.535  -5.598  0.00  0.00    -0.009 C 
ATOM     37  C   UNL     1       6.947   9.519  -6.771  0.00  0.00    +0.007 C 
ATOM     38  C   UNL     1       7.739   8.271  -4.757  0.00  0.00    +0.019 C 
ENDBRANCH  26  29
ENDBRANCH  23  25
ENDBRANCH   2  21
TORSDOF 6
