REMARK  Name = ZINC49964395
REMARK  4 active torsions:
REMARK  status: ('A' for Active; 'I' for Inactive)
REMARK    1  A    between atoms: C_3  and  C_11
REMARK    2  A    between atoms: C_6  and  N_7
REMARK    3  A    between atoms: C_11  and  C_12
REMARK    4  A    between atoms: C_19  and  O_21
REMARK                            x       y       z     vdW  Elec       q    Type
REMARK                         _______ _______ _______ _____ _____    ______ ____
ROOT
ATOM      1  C   UNL     1       1.429  -0.828  -0.412  0.00  0.00    +0.033 A 
ATOM      2  C   UNL     1       2.551  -0.020  -0.407  0.00  0.00    +0.007 A 
ATOM      3  C   UNL     1       2.448   1.304  -0.028  0.00  0.00    -0.029 A 
ATOM      4  C   UNL     1       1.221   1.823   0.348  0.00  0.00    +0.046 A 
ATOM      5  C   UNL     1       0.099   1.015   0.343  0.00  0.00    +0.053 A 
ATOM      6  C   UNL     1       0.203  -0.310  -0.037  0.00  0.00    +0.128 A 
ATOM      7 CL   UNL     1       1.091   3.487   0.825  0.00  0.00    -0.083 Cl
ENDROOT
BRANCH   6   8
ATOM      8  N   UNL     1      -0.998  -1.175  -0.043  0.00  0.00    +0.056 N 
ATOM      9  O   UNL     1      -0.907  -2.334  -0.376  0.00  0.00    -0.126 OA
ATOM     10  O   UNL     1      -2.070  -0.723   0.284  0.00  0.00    -0.126 OA
ENDBRANCH   6   8
BRANCH   3  11
ATOM     11  C   UNL     1       3.672   2.184  -0.022  0.00  0.00    +0.042 C 
BRANCH  11  12
ATOM     12  C   UNL     1       4.188   2.330   1.411  0.00  0.00    +0.022 C 
ATOM     13  C   UNL     1       4.615   0.978   1.915  0.00  0.00    +0.006 C 
ATOM     14  C   UNL     1       4.293   0.892   3.420  0.00  0.00    +0.000 C 
ATOM     15  C   UNL     1       5.290   1.563   4.241  0.00  0.00    +0.000 C 
ATOM     16  C   UNL     1       5.378   3.074   3.941  0.00  0.00    +0.003 C 
ATOM     17  C   UNL     1       6.203   3.267   2.697  0.00  0.00    +0.031 C 
ATOM     18  C   UNL     1       5.340   3.353   1.424  0.00  0.00    +0.118 C 
BRANCH  18  19
ATOM     19  O   UNL     1       6.172   3.124   0.285  0.00  0.00    -0.392 OA
ATOM     20  H   UNL     1       6.924   3.729   0.219  0.00  0.00    +0.210 HD
ENDBRANCH  18  19
ENDBRANCH  11  12
ENDBRANCH   3  11
TORSDOF 4
