REMARK  Name = ZINC39919732
REMARK  7 active torsions:
REMARK  status: ('A' for Active; 'I' for Inactive)
REMARK    1  A    between atoms: C_1  and  C_2
REMARK    2  A    between atoms: C_5  and  C_8
REMARK    3  A    between atoms: N_19  and  N_20
REMARK    4  A    between atoms: C_21  and  C_23
REMARK    5  A    between atoms: C_23  and  O_24
REMARK    6  A    between atoms: O_24  and  C_25
REMARK    7  A    between atoms: C_28  and  C_31
REMARK                            x       y       z     vdW  Elec       q    Type
REMARK                         _______ _______ _______ _____ _____    ______ ____
ROOT
ATOM      1  C   UNL     1       0.038  -4.140   0.028  0.00  0.00    +0.212 C 
ATOM      2  N   UNL     1      -0.684  -4.615  -1.159  0.00  0.00    -0.320 N 
ATOM      3  C   UNL     1      -2.071  -4.699  -1.103  0.00  0.00    +0.041 A 
ATOM      4  C   UNL     1      -2.860  -4.538  -2.229  0.00  0.00    +0.025 A 
ATOM      5  C   UNL     1      -4.235  -4.627  -2.119  0.00  0.00    +0.022 A 
ATOM      6  C   UNL     1      -4.829  -4.877  -0.890  0.00  0.00    +0.042 A 
ATOM      7  C   UNL     1      -4.056  -5.041   0.241  0.00  0.00    +0.035 A 
ATOM      8  C   UNL     1      -2.669  -4.955   0.143  0.00  0.00    +0.061 A 
ATOM      9  C   UNL     1      -1.796  -5.130   1.318  0.00  0.00    +0.267 C 
ATOM     10  O   UNL     1      -2.240  -5.593   2.351  0.00  0.00    -0.268 OA
ATOM     11  N   UNL     1      -0.501  -4.772   1.232  0.00  0.00    -0.191 N 
ATOM     12 CL   UNL     1      -6.558  -4.982  -0.775  0.00  0.00    -0.084 Cl
ATOM     13  H   UNL     1      -0.204  -4.864  -1.964  0.00  0.00    +0.148 HD
ENDROOT
BRANCH   1  18
ATOM     14  C   UNL     1      -0.544   1.594   0.450  0.00  0.00    +0.044 C 
ATOM     15  C   UNL     1      -0.393   0.099   0.340  0.00  0.00    -0.050 A 
ATOM     16  C   UNL     1       0.868  -0.466   0.289  0.00  0.00    +0.004 A 
ATOM     17  C   UNL     1       1.007  -1.838   0.189  0.00  0.00    +0.007 A 
ATOM     18  C   UNL     1      -0.114  -2.645   0.139  0.00  0.00    -0.008 A 
ATOM     19  C   UNL     1      -1.375  -2.080   0.191  0.00  0.00    +0.007 A 
ATOM     20  C   UNL     1      -1.514  -0.709   0.296  0.00  0.00    +0.004 A 
ENDBRANCH   1  18
BRANCH  11  21
ATOM     21  N   UNL     1       0.346  -5.010   2.322  0.00  0.00    -0.227 N 
ATOM     22  C   UNL     1       0.291  -4.211   3.406  0.00  0.00    +0.267 C 
ATOM     23  O   UNL     1      -0.554  -3.344   3.478  0.00  0.00    -0.271 OA
ATOM     24  H   UNL     1       0.973  -5.750   2.297  0.00  0.00    +0.173 HD
BRANCH  22  25
ATOM     25  C   UNL     1       1.280  -4.394   4.528  0.00  0.00    +0.326 C 
BRANCH  25  26
ATOM     26  O   UNL     1       1.018  -3.435   5.555  0.00  0.00    -0.483 OA
BRANCH  26  27
ATOM     27  C   UNL     1       1.826  -3.464   6.647  0.00  0.00    +0.121 A 
ATOM     28  C   UNL     1       2.853  -4.394   6.727  0.00  0.00    +0.046 A 
ATOM     29  C   UNL     1       3.673  -4.421   7.838  0.00  0.00    +0.007 A 
ATOM     30  C   UNL     1       3.471  -3.524   8.871  0.00  0.00    -0.050 A 
ATOM     31  C   UNL     1       2.447  -2.597   8.794  0.00  0.00    +0.007 A 
ATOM     32  C   UNL     1       1.629  -2.562   7.682  0.00  0.00    +0.046 A 
ATOM     33  C   UNL     1       4.367  -3.557  10.082  0.00  0.00    +0.044 C 
ENDBRANCH  26  27
ENDBRANCH  25  26
ENDBRANCH  22  25
ENDBRANCH  11  21
TORSDOF 5
