REMARK  Name = ZINC20318668
REMARK  8 active torsions:
REMARK  status: ('A' for Active; 'I' for Inactive)
REMARK    1  A    between atoms: C_1  and  C_2
REMARK    2  A    between atoms: C_4  and  C_8
REMARK    3  A    between atoms: C_5  and  C_7
REMARK    4  A    between atoms: N_10  and  C_11
REMARK    5  A    between atoms: C_17  and  C_19
REMARK    6  A    between atoms: C_19  and  C_20
REMARK    7  A    between atoms: C_19  and  C_21
REMARK    8  A    between atoms: C_19  and  C_22
REMARK                            x       y       z     vdW  Elec       q    Type
REMARK                         _______ _______ _______ _____ _____    ______ ____
ROOT
ATOM      1  C   UNL     1       1.760   1.697   2.769  0.00  0.00    +0.248 C 
ATOM      2  O   UNL     1       2.692   1.292   2.100  0.00  0.00    -0.270 OA
ATOM      3  N   UNL     1       1.971   2.131   4.027  0.00  0.00    -0.308 N 
ATOM      4  H   UNL     1       1.128   2.497   4.631  0.00  0.00    +0.149 HD
ENDROOT
BRANCH   1   8
ATOM      5  C   UNL     1      -3.271   2.323   2.192  0.00  0.00    +0.086 C 
ATOM      6  C   UNL     1      -1.817   1.996   1.967  0.00  0.00    +0.103 A 
ATOM      7  C   UNL     1      -0.834   2.166   2.864  0.00  0.00    +0.057 A 
ATOM      8  C   UNL     1       0.399   1.713   2.202  0.00  0.00    +0.077 A 
ATOM      9  C   UNL     1       0.020   1.311   0.955  0.00  0.00    +0.114 A 
ATOM     10  O   UNL     1      -1.298   1.493   0.836  0.00  0.00    -0.464 OA
ATOM     11  C   UNL     1       0.934   0.762  -0.110  0.00  0.00    +0.087 C 
ENDBRANCH   1   8
BRANCH   3  12
ATOM     12  C   UNL     1       3.323   2.114   4.590  0.00  0.00    +0.077 C 
ATOM     13  C   UNL     1       4.017   3.445   4.290  0.00  0.00    +0.022 C 
ATOM     14  C   UNL     1       3.217   4.589   4.916  0.00  0.00    +0.002 C 
ATOM     15  C   UNL     1       3.137   4.386   6.430  0.00  0.00    +0.000 C 
ATOM     16  C   UNL     1       2.444   3.056   6.731  0.00  0.00    +0.006 C 
ATOM     17  C   UNL     1       3.243   1.911   6.104  0.00  0.00    +0.015 C 
BRANCH  17  18
ATOM     18  C   UNL     1       2.550   0.581   6.404  0.00  0.00    -0.033 C 
ATOM     19  C   UNL     1       3.266  -0.547   5.658  0.00  0.00    +0.011 C 
ATOM     20  C   UNL     1       2.599   0.308   7.909  0.00  0.00    +0.011 C 
ATOM     21  C   UNL     1       1.092   0.651   5.946  0.00  0.00    +0.011 C 
ENDBRANCH  17  18
ENDBRANCH   3  12
TORSDOF 3
