REMARK  Name = ZINC67103770
REMARK  7 active torsions:
REMARK  status: ('A' for Active; 'I' for Inactive)
REMARK    1  A    between atoms: C_1  and  C_2
REMARK    2  A    between atoms: C_7  and  C_8
REMARK    3  A    between atoms: C_8  and  C_10
REMARK    4  A    between atoms: C_8  and  N_11
REMARK    5  A    between atoms: N_14  and  N_15
REMARK    6  A    between atoms: C_16  and  C_18
REMARK    7  A    between atoms: C_18  and  C_19
REMARK                            x       y       z     vdW  Elec       q    Type
REMARK                         _______ _______ _______ _____ _____    ______ ____
ROOT
ATOM      1  N   UNL     1      -0.537  -0.808   3.554  0.00  0.00    -0.292 N 
ATOM      2  C   UNL     1      -1.190  -0.255   4.595  0.00  0.00    +0.316 C 
ATOM      3  O   UNL     1      -1.312   0.953   4.663  0.00  0.00    -0.251 OA
ATOM      4  N   UNL     1      -1.707  -1.040   5.561  0.00  0.00    -0.218 N 
ATOM      5  H   UNL     1      -0.440  -1.772   3.500  0.00  0.00    +0.151 HD
ATOM      6  H   UNL     1      -2.177  -0.641   6.310  0.00  0.00    +0.174 HD
ENDROOT
BRANCH   4   7
ATOM      7  N   UNL     1      -1.566  -2.432   5.482  0.00  0.00    -0.233 N 
ATOM      8  C   UNL     1      -2.083  -3.217   6.448  0.00  0.00    +0.229 C 
ATOM      9  O   UNL     1      -2.671  -2.718   7.385  0.00  0.00    -0.274 OA
ATOM     10  H   UNL     1      -1.097  -2.830   4.733  0.00  0.00    +0.173 HD
BRANCH   8  11
ATOM     11  C   UNL     1      -1.932  -4.714   6.364  0.00  0.00    +0.101 C 
BRANCH  11  12
ATOM     12  C   UNL     1      -2.604  -5.363   7.575  0.00  0.00    -0.002 C 
ATOM     13  C   UNL     1      -1.864  -4.953   8.850  0.00  0.00    +0.004 C 
ATOM     14  C   UNL     1      -2.535  -5.602  10.061  0.00  0.00    +0.000 C 
ATOM     15  C   UNL     1      -2.491  -7.124   9.914  0.00  0.00    +0.000 C 
ATOM     16  C   UNL     1      -3.231  -7.535   8.639  0.00  0.00    +0.000 C 
ATOM     17  C   UNL     1      -2.559  -6.885   7.428  0.00  0.00    +0.004 C 
ENDBRANCH  11  12
ENDBRANCH   8  11
ENDBRANCH   4   7
BRANCH   1  18
ATOM     18  C   UNL     1       0.025   0.045   2.504  0.00  0.00    +0.102 C 
ATOM     19  C   UNL     1       1.455   0.440   2.880  0.00  0.00    +0.033 C 
BRANCH  18  26
ATOM     20  C   UNL     1      -0.099   1.488   0.004  0.00  0.00    +0.044 C 
ATOM     21  C   UNL     1      -0.021  -0.017   0.003  0.00  0.00    -0.046 A 
ATOM     22  C   UNL     1      -0.003  -0.707  -1.195  0.00  0.00    +0.004 A 
ATOM     23  C   UNL     1       0.069  -2.088  -1.197  0.00  0.00    +0.000 A 
ATOM     24  C   UNL     1       0.123  -2.778  -0.000  0.00  0.00    +0.000 A 
ATOM     25  C   UNL     1       0.106  -2.088   1.197  0.00  0.00    +0.006 A 
ATOM     26  C   UNL     1       0.039  -0.708   1.199  0.00  0.00    -0.025 A 
ENDBRANCH  18  26
ENDBRANCH   1  18
TORSDOF 5
