REMARK  Name = ZINC12477282
REMARK  13 active torsions:
REMARK  status: ('A' for Active; 'I' for Inactive)
REMARK    1  A    between atoms: C_1  and  C_2
REMARK    2  A    between atoms: C_5  and  C_7
REMARK    3  A    between atoms: N_10  and  C_12
REMARK    4  A    between atoms: C_12  and  C_13
REMARK    5  A    between atoms: N_15  and  C_16
REMARK    6  A    between atoms: N_15  and  C_23
REMARK    7  A    between atoms: C_20  and  O_22
REMARK    8  A    between atoms: C_23  and  C_25
REMARK    9  A    between atoms: C_23  and  C_32
REMARK   10  A    between atoms: N_34  and  C_35
REMARK   11  A    between atoms: C_35  and  C_36
REMARK   12  A    between atoms: C_35  and  C_37
REMARK   13  A    between atoms: C_35  and  C_38
REMARK                            x       y       z     vdW  Elec       q    Type
REMARK                         _______ _______ _______ _____ _____    ______ ____
ROOT
ATOM      1  C   UNL     1      -1.154   6.028   0.661  0.00  0.00    +0.244 C 
ATOM      2  O   UNL     1      -1.105   7.191   0.320  0.00  0.00    -0.273 OA
ATOM      3  N   UNL     1      -0.049   5.259   0.598  0.00  0.00    -0.254 N 
ENDROOT
BRANCH   3   4
ATOM      4  C   UNL     1      -0.125   3.897   0.905  0.00  0.00    +0.041 A 
ATOM      5  C   UNL     1      -0.786   3.026   0.047  0.00  0.00    +0.024 A 
ATOM      6  C   UNL     1      -0.862   1.681   0.350  0.00  0.00    +0.005 A 
ATOM      7  C   UNL     1      -0.281   1.197   1.508  0.00  0.00    +0.045 A 
ATOM      8  C   UNL     1       0.376   2.063   2.371  0.00  0.00    +0.119 A 
ATOM      9  C   UNL     1       0.458   3.413   2.067  0.00  0.00    +0.069 A 
BRANCH   8  10
ATOM     10  O   UNL     1       0.941   1.587   3.511  0.00  0.00    -0.507 OA
ATOM     11  H   UNL     1       1.861   1.308   3.407  0.00  0.00    +0.292 HD
ENDBRANCH   8  10
ENDBRANCH   3   4
BRANCH   1  12
ATOM     12  C   UNL     1      -2.452   5.441   1.154  0.00  0.00    +0.264 C 
BRANCH  12  16
ATOM     13  C   UNL     1      -4.827   8.028   1.515  0.00  0.00    +0.239 A 
ATOM     14  N   UNL     1      -5.092   7.589   0.275  0.00  0.00    -0.105 NA
ATOM     15  N   UNL     1      -4.271   6.625   0.026  0.00  0.00    -0.045 NA
ATOM     16  N   UNL     1      -3.513   6.447   1.050  0.00  0.00    -0.154 N 
ATOM     17  N   UNL     1      -3.835   7.287   1.973  0.00  0.00    -0.127 NA
BRANCH  13  22
ATOM     18  C   UNL     1      -6.065  11.312   5.104  0.00  0.00    +0.086 C 
ATOM     19  C   UNL     1      -6.060  10.562   3.797  0.00  0.00    +0.103 A 
ATOM     20  C   UNL     1      -6.883  10.795   2.755  0.00  0.00    +0.045 A 
ATOM     21  C   UNL     1      -6.535   9.878   1.742  0.00  0.00    +0.053 A 
ATOM     22  C   UNL     1      -5.515   9.124   2.230  0.00  0.00    +0.175 A 
ATOM     23  O   UNL     1      -5.235   9.553   3.476  0.00  0.00    -0.457 OA
ENDBRANCH  13  22
ENDBRANCH  12  16
ENDBRANCH   1  12
BRANCH   3  24
ATOM     24  C   UNL     1       1.233   5.851   0.207  0.00  0.00    +0.197 C 
BRANCH  24  25
ATOM     25  C   UNL     1       2.330   4.832   0.379  0.00  0.00    -0.018 A 
ATOM     26  C   UNL     1       2.245   3.611  -0.264  0.00  0.00    +0.007 A 
ATOM     27  C   UNL     1       3.254   2.678  -0.111  0.00  0.00    +0.020 A 
ATOM     28  C   UNL     1       4.343   2.963   0.693  0.00  0.00    +0.041 A 
ATOM     29  C   UNL     1       4.424   4.183   1.340  0.00  0.00    +0.020 A 
ATOM     30  C   UNL     1       3.418   5.117   1.183  0.00  0.00    +0.007 A 
ATOM     31 CL   UNL     1       5.607   1.789   0.891  0.00  0.00    -0.084 Cl
ENDBRANCH  24  25
BRANCH  24  32
ATOM     32  C   UNL     1       1.169   6.282  -1.236  0.00  0.00    +0.239 C 
ATOM     33  O   UNL     1       0.152   6.112  -1.875  0.00  0.00    -0.273 OA
ATOM     34  N   UNL     1       2.241   6.857  -1.816  0.00  0.00    -0.309 N 
ATOM     35  H   UNL     1       3.054   6.994  -1.304  0.00  0.00    +0.149 HD
BRANCH  34  36
ATOM     36  C   UNL     1       2.179   7.276  -3.218  0.00  0.00    +0.026 C 
ATOM     37  C   UNL     1       1.065   8.311  -3.392  0.00  0.00    +0.031 C 
ATOM     38  C   UNL     1       3.518   7.894  -3.626  0.00  0.00    +0.031 C 
ATOM     39  C   UNL     1       1.888   6.061  -4.101  0.00  0.00    +0.031 C 
ENDBRANCH  34  36
ENDBRANCH  24  32
ENDBRANCH   3  24
TORSDOF 9
