REMARK  Name = ZINC53117700
REMARK  7 active torsions:
REMARK  status: ('A' for Active; 'I' for Inactive)
REMARK    1  A    between atoms: C_1  and  C_2
REMARK    2  A    between atoms: C_7  and  C_9
REMARK    3  A    between atoms: C_7  and  N_11
REMARK    4  A    between atoms: C_9  and  O_10
REMARK    5  A    between atoms: N_11  and  S_12
REMARK    6  A    between atoms: S_12  and  C_15
REMARK    7  A    between atoms: CA_17  and  C_21
REMARK                            x       y       z     vdW  Elec       q    Type
REMARK                         _______ _______ _______ _____ _____    ______ ____
ROOT
ATOM      1  N   UNL     1      -0.881  -2.393   1.119  0.00  0.00    -0.182 NA
ATOM      2  H   UNL     1      -1.472  -2.666   0.400  0.00  0.00    +0.149 HD
ENDROOT
BRANCH   1   8
ATOM      3  C   UNL     1      -0.600   1.741  -0.018  0.00  0.00    +0.007 C 
ATOM      4  C   UNL     1      -0.580   0.214  -0.106  0.00  0.00    -0.012 C 
ATOM      5  C   UNL     1      -0.177  -0.210  -1.519  0.00  0.00    +0.003 C 
ATOM      6  C   UNL     1      -0.156  -1.738  -1.607  0.00  0.00    +0.002 C 
ATOM      7  C   UNL     1       0.854  -2.292  -0.601  0.00  0.00    +0.026 C 
ATOM      8  C   UNL     1       0.452  -1.868   0.813  0.00  0.00    +0.063 C 
ATOM      9  C   UNL     1       0.431  -0.341   0.901  0.00  0.00    +0.029 C 
BRANCH   8  10
ATOM     10  C   UNL     1       1.462  -2.423   1.819  0.00  0.00    +0.179 C 
BRANCH  10  11
ATOM     11  O   UNL     1       1.459  -3.851   1.759  0.00  0.00    -0.393 OA
ATOM     12  H   UNL     1       2.022  -4.274   2.422  0.00  0.00    +0.209 HD
ENDBRANCH  10  11
ENDBRANCH   8  10
ENDBRANCH   1   8
BRANCH   1  13
ATOM     13  S   UNL     1      -1.380  -2.521   2.693  0.00  0.00    +0.060 S 
ATOM     14  O   UNL     1      -2.743  -2.919   2.657  0.00  0.00    -0.153 OA
ATOM     15  O   UNL     1      -0.385  -3.272   3.375  0.00  0.00    -0.153 OA
BRANCH  13  16
ATOM     16  C   UNL     1      -1.347  -0.899   3.383  0.00  0.00    +0.123 A 
ATOM     17  C   UNL     1      -0.310  -0.349   4.139  0.00  0.00    +0.063 A 
ATOM     18  CA  UNL     1      -0.695   0.935   4.476  0.00  0.00    +0.130 A 
ATOM     19  N   UNL     1      -1.942   1.149   3.930  0.00  0.00    -0.354 N 
ATOM     20  H   UNL     1      -2.460   1.965   4.006  0.00  0.00    +0.166 HD
ATOM     21  C   UNL     1      -2.321   0.036   3.269  0.00  0.00    +0.112 A 
BRANCH  18  22
ATOM     22  C   UNL     1       0.079   1.891   5.267  0.00  0.00    +0.402 C 
ATOM     23  O   UNL     1      -0.376   3.004   5.498  0.00  0.00    -0.239 OA
ATOM     24  OXT UNL     1       1.181   1.577   5.699  0.00  0.00    -0.239 OA
ENDBRANCH  18  22
ENDBRANCH  13  16
ENDBRANCH   1  13
TORSDOF 6
