REMARK  Name = ZINC12282941
REMARK  14 active torsions:
REMARK  status: ('A' for Active; 'I' for Inactive)
REMARK    1  A    between atoms: C_1  and  C_2
REMARK    2  A    between atoms: C_2  and  C_3
REMARK    3  A    between atoms: C_2  and  C_4
REMARK    4  A    between atoms: C_2  and  C_30
REMARK    5  A    between atoms: C_4  and  N_67
REMARK    6  A    between atoms: C_5  and  N_67
REMARK    7  A    between atoms: N_16  and  C_19
REMARK    8  A    between atoms: C_19  and  C_20
REMARK    9  A    between atoms: C_20  and  C_21
REMARK   10  A    between atoms: C_26  and  O_27
REMARK   11  A    between atoms: O_27  and  C_28
REMARK   12  A    between atoms: C_30  and  N_70
REMARK   13  A    between atoms: C_31  and  N_70
REMARK   14  A    between atoms: C_32  and  N_70
REMARK                            x       y       z     vdW  Elec       q    Type
REMARK                         _______ _______ _______ _____ _____    ______ ____
ROOT
ATOM      1  C   UNL     1       1.060   0.521   2.462  0.00  0.00    -0.067 C 
ATOM      2  C   UNL     1       0.251   0.688   3.752  0.00  0.00    -0.011 C 
ATOM      3  C   UNL     1       0.932  -0.066   4.893  0.00  0.00    +0.035 C 
ATOM      4  C   UNL     1       2.391   0.374   4.975  0.00  0.00    -0.023 A 
ATOM      5  C   UNL     1       2.985   0.984   3.923  0.00  0.00    -0.006 A 
ATOM      6  S   UNL     1       4.647   1.312   4.454  0.00  0.00    -0.073 S 
ATOM      7  C   UNL     1       4.543   0.632   6.079  0.00  0.00    +0.116 A 
ATOM      8  C   UNL     1       3.210   0.170   6.156  0.00  0.00    +0.076 A 
ATOM      9  C   UNL     1       2.806  -0.451   7.386  0.00  0.00    +0.262 A 
ATOM     10  O   UNL     1       1.679  -0.883   7.555  0.00  0.00    -0.267 OA
ATOM     11  N   UNL     1       3.757  -0.524   8.348  0.00  0.00    -0.298 N 
ATOM     12  C   UNL     1       5.015  -0.050   8.180  0.00  0.00    +0.203 A 
ATOM     13  N   UNL     1       5.423   0.524   7.069  0.00  0.00    -0.230 NA
ATOM     14  C   UNL     1       2.369   1.311   2.598  0.00  0.00    +0.027 C 
ENDROOT
BRANCH   1  15
ATOM     15  N   UNL     1       0.280   1.046   1.325  0.00  0.00    +0.381 N 
ATOM     16  H   UNL     1      -0.717   0.857   1.482  0.00  0.00    -0.085 HD
ATOM     17  H   UNL     1       0.428   2.059   1.252  0.00  0.00    -0.085 HD
BRANCH  15  18
ATOM     18  C   UNL     1       0.706   0.400   0.070  0.00  0.00    -0.078 C 
BRANCH  18  20
ATOM     19  C   UNL     1      -1.603   0.681  -0.843  0.00  0.00    +0.007 C 
ATOM     20  C   UNL     1      -0.119   0.963  -1.089  0.00  0.00    -0.065 C 
ATOM     21  C   UNL     1       0.104   2.474  -1.187  0.00  0.00    +0.007 C 
BRANCH  20  22
ATOM     22  C   UNL     1       0.317   0.298  -2.396  0.00  0.00    -0.075 C 
BRANCH  22  25
ATOM     23  C   UNL     1       0.396   0.755  -4.772  0.00  0.00    -0.097 C 
ATOM     24  C   UNL     1      -1.738   0.470  -3.665  0.00  0.00    -0.097 C 
ATOM     25  N   UNL     1      -0.358   0.979  -3.521  0.00  0.00    +0.376 N 
ATOM     26  H   UNL     1      -0.393   1.987  -3.328  0.00  0.00    -0.083 HD
ENDBRANCH  22  25
ENDBRANCH  20  22
ENDBRANCH  18  20
ENDBRANCH  15  18
ENDBRANCH   1  15
BRANCH  11  27
ATOM     27  C   UNL     1       3.409  -1.145   9.628  0.00  0.00    +0.131 C 
BRANCH  27  28
ATOM     28  C   UNL     1       2.873  -0.077  10.584  0.00  0.00    +0.060 C 
BRANCH  28  29
ATOM     29  C   UNL     1       2.515  -0.716  11.901  0.00  0.00    -0.004 A 
ATOM     30  C   UNL     1       1.214  -1.112  12.147  0.00  0.00    +0.007 A 
ATOM     31  C   UNL     1       0.887  -1.702  13.353  0.00  0.00    +0.000 A 
ATOM     32  C   UNL     1       1.857  -1.889  14.320  0.00  0.00    +0.004 A 
ATOM     33  C   UNL     1       3.158  -1.491  14.081  0.00  0.00    +0.046 A 
ATOM     34  C   UNL     1       3.491  -0.903  12.869  0.00  0.00    +0.123 A 
BRANCH  34  35
ATOM     35  O   UNL     1       4.770  -0.510  12.632  0.00  0.00    -0.495 OA
ATOM     36  C   UNL     1       5.721  -0.733  13.674  0.00  0.00    +0.277 C 
ENDBRANCH  34  35
ENDBRANCH  28  29
ENDBRANCH  27  28
ENDBRANCH  11  27
TORSDOF 9
