REMARK  Name = ZINC04149389
REMARK  5 active torsions:
REMARK  status: ('A' for Active; 'I' for Inactive)
REMARK    1  A    between atoms: C_1  and  C_2
REMARK    2  A    between atoms: C_7  and  C_8
REMARK    3  A    between atoms: C_11  and  C_22
REMARK    4  A    between atoms: C_17  and  N_21
REMARK    5  A    between atoms: C_18  and  C_19
REMARK                            x       y       z     vdW  Elec       q    Type
REMARK                         _______ _______ _______ _____ _____    ______ ____
ROOT
ATOM      1  C   UNL     1       0.243   0.047   2.494  0.00  0.00    +0.102 C 
ATOM      2  C   UNL     1      -0.816  -0.435   3.451  0.00  0.00    +0.049 A 
ATOM      3  C   UNL     1      -2.186  -0.209   3.433  0.00  0.00    +0.068 A 
ATOM      4  N   UNL     1      -2.714  -0.825   4.465  0.00  0.00    -0.176 NA
ATOM      5  N   UNL     1      -1.685  -1.464   5.174  0.00  0.00    -0.246 N 
ATOM      6  H   UNL     1      -1.790  -1.993   5.980  0.00  0.00    +0.192 HD
ATOM      7  C   UNL     1      -0.529  -1.212   4.538  0.00  0.00    +0.222 A 
ATOM      8  O   UNL     1       0.732  -1.610   4.842  0.00  0.00    -0.423 OA
ATOM      9  C   UNL     1       1.750  -0.998   4.204  0.00  0.00    +0.200 C 
ATOM     10  C   UNL     1       1.593  -0.216   3.112  0.00  0.00    +0.098 C 
ATOM     11  C   UNL     1      -2.936   0.601   2.407  0.00  0.00    +0.068 C 
ENDROOT
BRANCH   1  18
ATOM     12  C   UNL     1      -0.005   1.503   0.011  0.00  0.00    +0.044 C 
ATOM     13  C   UNL     1       0.008  -0.004   0.002  0.00  0.00    -0.046 A 
ATOM     14  C   UNL     1      -0.092  -0.690  -1.194  0.00  0.00    +0.003 A 
ATOM     15  C   UNL     1      -0.080  -2.072  -1.202  0.00  0.00    +0.000 A 
ATOM     16  C   UNL     1       0.034  -2.768  -0.013  0.00  0.00    +0.000 A 
ATOM     17  C   UNL     1       0.135  -2.083   1.183  0.00  0.00    +0.005 A 
ATOM     18  C   UNL     1       0.127  -0.701   1.190  0.00  0.00    -0.032 A 
ENDBRANCH   1  18
BRANCH   9  19
ATOM     19  N   UNL     1       3.021  -1.181   4.691  0.00  0.00    -0.328 N 
ATOM     20  H   UNL     1       3.165  -1.736   5.473  0.00  0.00    +0.145 HD
ATOM     21  H   UNL     1       3.774  -0.753   4.254  0.00  0.00    +0.145 HD
ENDBRANCH   9  19
BRANCH  10  22
ATOM     22  C   UNL     1       2.751   0.386   2.522  0.00  0.00    +0.101 C 
ATOM     23  N   UNL     1       3.670   0.863   2.054  0.00  0.00    -0.191 NA
ENDBRANCH  10  22
TORSDOF 3
