REMARK  Name = ZINC66652885
REMARK  6 active torsions:
REMARK  status: ('A' for Active; 'I' for Inactive)
REMARK    1  A    between atoms: C_1  and  N_2
REMARK    2  A    between atoms: C_5  and  C_8
REMARK    3  A    between atoms: C_8  and  N_9
REMARK    4  A    between atoms: C_10  and  C_12
REMARK    5  A    between atoms: C_13  and  C_14
REMARK    6  A    between atoms: C_17  and  N_20
REMARK                            x       y       z     vdW  Elec       q    Type
REMARK                         _______ _______ _______ _____ _____    ______ ____
ROOT
ATOM      1  C   UNL     1      -1.049  -5.601   4.357  0.00  0.00    +0.068 C 
ATOM      2  C   UNL     1      -1.251  -6.125   5.585  0.00  0.00    +0.013 C 
ENDROOT
BRANCH   2   3
ATOM      3  C   UNL     1      -1.698  -7.518   5.724  0.00  0.00    -0.025 A 
ATOM      4  C   UNL     1      -1.909  -8.306   4.586  0.00  0.00    +0.010 A 
ATOM      5  C   UNL     1      -2.325  -9.605   4.721  0.00  0.00    +0.025 A 
ATOM      6  C   UNL     1      -2.539 -10.142   5.988  0.00  0.00    +0.051 A 
ATOM      7  C   UNL     1      -2.331  -9.362   7.123  0.00  0.00    +0.025 A 
ATOM      8  C   UNL     1      -1.909  -8.063   6.997  0.00  0.00    +0.010 A 
BRANCH   6   9
ATOM      9  N   UNL     1      -2.962 -11.460   6.120  0.00  0.00    -0.207 N 
ATOM     10  C   UNL     1      -3.697 -12.261   5.125  0.00  0.00    +0.133 C 
ATOM     11  C   UNL     1      -3.366 -13.758   5.275  0.00  0.00    +0.045 C 
ATOM     12  C   UNL     1      -3.444 -14.039   6.806  0.00  0.00    +0.190 C 
ATOM     13  S   UNL     1      -2.732 -12.467   7.441  0.00  0.00    +0.046 S 
ATOM     14  O   UNL     1      -1.324 -12.576   7.595  0.00  0.00    -0.155 OA
ATOM     15  O   UNL     1      -3.547 -11.929   8.474  0.00  0.00    -0.155 OA
ENDBRANCH   6   9
ENDBRANCH   2   3
BRANCH   1  17
ATOM     16  N   UNL     1      -0.402  -3.693   2.992  0.00  0.00    -0.312 N 
ATOM     17  C   UNL     1      -0.604  -4.216   4.218  0.00  0.00    +0.237 C 
ATOM     18  O   UNL     1      -0.417  -3.534   5.209  0.00  0.00    -0.271 OA
ATOM     19  H   UNL     1      -0.551  -4.236   2.202  0.00  0.00    +0.149 HD
BRANCH  16  20
ATOM     20  C   UNL     1       0.044  -2.304   2.853  0.00  0.00    +0.106 C 
BRANCH  20  25
ATOM     21  C   UNL     1      -0.018   1.465   0.010  0.00  0.00    -0.096 C 
ATOM     22  N   UNL     1       0.002  -0.004   0.002  0.00  0.00    +0.378 N 
ATOM     23  C   UNL     1      -1.375  -0.543   0.139  0.00  0.00    -0.079 C 
ATOM     24  C   UNL     1      -1.180  -1.979   0.672  0.00  0.00    -0.016 C 
ATOM     25  C   UNL     1       0.196  -1.964   1.369  0.00  0.00    -0.012 C 
ATOM     26  C   UNL     1       0.716  -0.521   1.198  0.00  0.00    -0.074 C 
ATOM     27  H   UNL     1       0.435  -0.346  -0.843  0.00  0.00    -0.082 HD
ENDBRANCH  20  25
ENDBRANCH  16  20
ENDBRANCH   1  17
TORSDOF 5
