REMARK  Name = ZINC06195709
REMARK  10 active torsions:
REMARK  status: ('A' for Active; 'I' for Inactive)
REMARK    1  A    between atoms: C_1  and  C_2
REMARK    2  A    between atoms: C_5  and  C_39
REMARK    3  A    between atoms: C_6  and  N_8
REMARK    4  A    between atoms: C_13  and  C_15
REMARK    5  A    between atoms: C_13  and  C_30
REMARK    6  A    between atoms: C_13  and  N_71
REMARK    7  A    between atoms: N_34  and  C_35
REMARK    8  A    between atoms: C_35  and  C_36
REMARK    9  A    between atoms: C_35  and  C_37
REMARK   10  A    between atoms: C_35  and  C_38
REMARK                            x       y       z     vdW  Elec       q    Type
REMARK                         _______ _______ _______ _____ _____    ______ ____
ROOT
ATOM      1  C   UNL     1       5.260   6.764   0.010  0.00  0.00    +0.039 C 
ENDROOT
BRANCH   1   2
ATOM      2  C   UNL     1       5.063   7.336   1.390  0.00  0.00    +0.011 A 
ATOM      3  C   UNL     1       5.113   8.679   1.580  0.00  0.00    +0.017 A 
ATOM      4  C   UNL     1       4.912   9.203   2.930  0.00  0.00    +0.002 A 
ATOM      5  C   UNL     1       4.947  10.580   3.183  0.00  0.00    +0.059 A 
ATOM      6  C   UNL     1       4.762  11.043   4.467  0.00  0.00    +0.167 A 
ATOM      7  C   UNL     1       4.538  10.143   5.516  0.00  0.00    +0.168 A 
ATOM      8  C   UNL     1       4.501   8.782   5.275  0.00  0.00    +0.075 A 
ATOM      9  C   UNL     1       4.686   8.299   3.986  0.00  0.00    +0.053 A 
ATOM     10  N   UNL     1       4.651   6.944   3.727  0.00  0.00    -0.322 N 
ATOM     11  H   UNL     1       4.495   6.322   4.455  0.00  0.00    +0.169 HD
ATOM     12  C   UNL     1       4.832   6.473   2.481  0.00  0.00    +0.251 A 
ATOM     13  O   UNL     1       4.794   5.270   2.289  0.00  0.00    -0.268 OA
ATOM     14  O   UNL     1       4.388  10.855   6.671  0.00  0.00    -0.453 OA
ATOM     15  C   UNL     1       4.928  12.160   6.394  0.00  0.00    +0.466 C 
ATOM     16  O   UNL     1       4.750  12.312   4.973  0.00  0.00    -0.453 OA
ENDBRANCH   1   2
BRANCH   1  22
ATOM     17  N   UNL     1       1.841   5.143  -1.868  0.00  0.00    -0.333 N 
ATOM     18  C   UNL     1       3.102   4.394  -1.968  0.00  0.00    +0.086 C 
ATOM     19  C   UNL     1       4.274   5.334  -1.678  0.00  0.00    -0.058 C 
ATOM     20  C   UNL     1       2.853   6.662  -0.236  0.00  0.00    -0.058 C 
ATOM     21  C   UNL     1       1.681   5.722  -0.527  0.00  0.00    +0.086 C 
ATOM     22  N   UNL     1       4.112   5.892  -0.318  0.00  0.00    +0.391 N 
ATOM     23  H   UNL     1       4.076   5.120   0.357  0.00  0.00    -0.080 HD
BRANCH  17  29
ATOM     24  C   UNL     1      -0.968   1.229  -0.896  0.00  0.00    +0.044 C 
ATOM     25  C   UNL     1      -0.633   2.429  -1.744  0.00  0.00    -0.049 A 
ATOM     26  C   UNL     1      -1.410   2.733  -2.847  0.00  0.00    +0.004 A 
ATOM     27  C   UNL     1      -1.104   3.830  -3.631  0.00  0.00    +0.005 A 
ATOM     28  C   UNL     1      -0.027   4.633  -3.308  0.00  0.00    -0.029 A 
ATOM     29  C   UNL     1       0.751   4.333  -2.197  0.00  0.00    +0.033 A 
ATOM     30  C   UNL     1       0.444   3.227  -1.415  0.00  0.00    +0.026 A 
ATOM     31  C   UNL     1       0.302   5.832  -4.159  0.00  0.00    +0.045 C 
ENDBRANCH  17  29
ENDBRANCH   1  22
BRANCH   1  32
ATOM     32  C   UNL     1       6.523   5.942  -0.017  0.00  0.00    +0.143 A 
ATOM     33  N   UNL     1       6.723   4.795   0.584  0.00  0.00    -0.115 NA
ATOM     34  N   UNL     1       7.924   4.411   0.320  0.00  0.00    -0.023 NA
ATOM     35  N   UNL     1       8.496   5.284  -0.434  0.00  0.00    -0.043 NA
ATOM     36  N   UNL     1       7.662   6.241  -0.668  0.00  0.00    -0.225 N 
BRANCH  36  37
ATOM     37  C   UNL     1       7.911   7.431  -1.486  0.00  0.00    +0.059 C 
ATOM     38  C   UNL     1       7.691   8.686  -0.641  0.00  0.00    +0.036 C 
ATOM     39  C   UNL     1       9.353   7.406  -1.997  0.00  0.00    +0.036 C 
ATOM     40  C   UNL     1       6.949   7.442  -2.676  0.00  0.00    +0.036 C 
ENDBRANCH  36  37
ENDBRANCH   1  32
TORSDOF 5
