REMARK  Name = ZINC34756695
REMARK  8 active torsions:
REMARK  status: ('A' for Active; 'I' for Inactive)
REMARK    1  A    between atoms: C_1  and  N_2
REMARK    2  A    between atoms: N_2  and  C_3
REMARK    3  A    between atoms: C_4  and  C_6
REMARK    4  A    between atoms: C_6  and  N_7
REMARK    5  A    between atoms: C_20  and  S_22
REMARK    6  A    between atoms: S_22  and  C_23
REMARK    7  A    between atoms: C_23  and  C_24
REMARK    8  A    between atoms: N_26  and  C_27
REMARK                            x       y       z     vdW  Elec       q    Type
REMARK                         _______ _______ _______ _____ _____    ______ ____
ROOT
ATOM      1  N   UNL     1      -0.025  -1.765  -3.557  0.00  0.00    +0.387 N 
ATOM      2  C   UNL     1      -0.183  -1.925  -5.008  0.00  0.00    -0.059 C 
ATOM      3  C   UNL     1      -0.262  -3.417  -5.350  0.00  0.00    +0.088 C 
ATOM      4  N   UNL     1       0.922  -4.087  -4.790  0.00  0.00    -0.318 N 
ATOM      5  C   UNL     1       1.249  -3.849  -3.376  0.00  0.00    +0.088 C 
ATOM      6  C   UNL     1       1.257  -2.337  -3.127  0.00  0.00    -0.059 C 
ATOM      7  C   UNL     1       1.705  -4.918  -5.571  0.00  0.00    +0.134 A 
ATOM      8  C   UNL     1       1.492  -6.325  -5.562  0.00  0.00    +0.051 A 
ATOM      9  C   UNL     1       0.506  -7.096  -4.802  0.00  0.00    -0.025 A 
ATOM     10  C   UNL     1       0.511  -8.433  -4.973  0.00  0.00    -0.004 A 
ATOM     11  S   UNL     1       1.808  -8.745  -6.141  0.00  0.00    -0.073 S 
ATOM     12  C   UNL     1       2.345  -7.074  -6.396  0.00  0.00    +0.115 A 
ATOM     13  N   UNL     1       3.276  -6.496  -7.130  0.00  0.00    -0.214 NA
ATOM     14  C   UNL     1       3.430  -5.179  -7.098  0.00  0.00    +0.191 A 
ATOM     15  N   UNL     1       2.656  -4.413  -6.338  0.00  0.00    -0.206 NA
ATOM     16  C   UNL     1      -0.388  -9.437  -4.317  0.00  0.00    +0.043 C 
ATOM     17  C   UNL     1      -1.082  -8.759  -3.127  0.00  0.00    +0.005 C 
ATOM     18  C   UNL     1      -1.640  -7.409  -3.587  0.00  0.00    +0.005 C 
ATOM     19  C   UNL     1      -0.490  -6.436  -3.853  0.00  0.00    +0.037 C 
ATOM     20  H   UNL     1      -0.780  -2.240  -3.084  0.00  0.00    -0.081 HD
ENDROOT
BRANCH   1  21
ATOM     21  C   UNL     1      -0.060  -0.336  -3.217  0.00  0.00    +0.019 C 
BRANCH  21  25
ATOM     22  C   UNL     1      -3.006   2.072  -3.636  0.00  0.00    +0.131 C 
ATOM     23  N   UNL     1      -1.685   1.527  -3.317  0.00  0.00    -0.309 N 
ATOM     24  C   UNL     1      -0.651   2.396  -2.749  0.00  0.00    +0.131 C 
ATOM     25  C   UNL     1      -1.419   0.225  -3.546  0.00  0.00    +0.199 C 
ATOM     26  O   UNL     1      -2.275  -0.494  -4.016  0.00  0.00    -0.278 OA
ENDBRANCH  21  25
ENDBRANCH   1  21
BRANCH  14  27
ATOM     27  S   UNL     1       4.681  -4.430  -8.088  0.00  0.00    -0.077 S 
BRANCH  27  28
ATOM     28  C   UNL     1       5.463  -5.829  -8.939  0.00  0.00    +0.173 C 
BRANCH  28  29
ATOM     29  C   UNL     1       6.566  -5.321  -9.831  0.00  0.00    +0.224 C 
ATOM     30  O   UNL     1       6.802  -4.133  -9.887  0.00  0.00    -0.275 OA
ATOM     31  N   UNL     1       7.290  -6.187 -10.567  0.00  0.00    -0.312 N 
ATOM     32  H   UNL     1       7.101  -7.138 -10.522  0.00  0.00    +0.149 HD
BRANCH  31  33
ATOM     33  C   UNL     1       8.363  -5.694 -11.434  0.00  0.00    +0.073 C 
ATOM     34  C   UNL     1       7.775  -5.269 -12.781  0.00  0.00    +0.022 C 
ATOM     35  C   UNL     1       8.896  -4.753 -13.687  0.00  0.00    +0.002 C 
ATOM     36  C   UNL     1       9.925  -5.863 -13.907  0.00  0.00    +0.000 C 
ATOM     37  C   UNL     1      10.513  -6.289 -12.560  0.00  0.00    +0.002 C 
ATOM     38  C   UNL     1       9.392  -6.804 -11.654  0.00  0.00    +0.022 C 
ENDBRANCH  31  33
ENDBRANCH  28  29
ENDBRANCH  27  28
ENDBRANCH  14  27
TORSDOF 6
