REMARK  Name = ZINC05408228
REMARK  5 active torsions:
REMARK  status: ('A' for Active; 'I' for Inactive)
REMARK    1  A    between atoms: C_1  and  C_2
REMARK    2  A    between atoms: C_2  and  C_29
REMARK    3  A    between atoms: C_6  and  C_21
REMARK    4  A    between atoms: N_11  and  C_14
REMARK    5  A    between atoms: C_12  and  O_13
REMARK                            x       y       z     vdW  Elec       q    Type
REMARK                         _______ _______ _______ _____ _____    ______ ____
ROOT
ATOM      1  C   UNL     1      -0.019   1.526   0.010  0.00  0.00    +0.011 C 
ATOM      2  C   UNL     1       0.002  -0.004   0.002  0.00  0.00    -0.023 C 
ATOM      3  C   UNL     1      -1.430  -0.540   0.044  0.00  0.00    +0.058 C 
ATOM      4  C   UNL     1      -1.408  -2.052   0.070  0.00  0.00    +0.017 C 
ATOM      5  C   UNL     1      -0.399  -2.716   0.672  0.00  0.00    +0.025 C 
ATOM      6  C   UNL     1      -0.336  -4.227   0.748  0.00  0.00    +0.099 C 
ATOM      7  C   UNL     1      -1.319  -4.825  -0.219  0.00  0.00    +0.068 A 
ATOM      8  C   UNL     1      -2.336  -4.053  -0.826  0.00  0.00    +0.153 A 
ATOM      9  N   UNL     1      -3.032  -4.828  -1.604  0.00  0.00    -0.148 NA
ATOM     10  N   UNL     1      -2.491  -6.122  -1.531  0.00  0.00    -0.199 N 
ATOM     11  C   UNL     1      -1.435  -6.090  -0.669  0.00  0.00    +0.222 A 
ATOM     12  N   UNL     1      -2.456  -2.688  -0.548  0.00  0.00    -0.301 N 
ATOM     13  C   UNL     1       0.671  -2.018   1.263  0.00  0.00    +0.162 C 
ATOM     14  O   UNL     1       1.560  -2.646   1.805  0.00  0.00    -0.292 OA
ATOM     15  C   UNL     1       0.742  -0.518   1.242  0.00  0.00    +0.086 C 
ATOM     16  C   UNL     1       0.704  -0.504  -1.262  0.00  0.00    +0.011 C 
ATOM     17  H   UNL     1      -3.260  -2.202  -0.786  0.00  0.00    +0.153 HD
ENDROOT
BRANCH  10  18
ATOM     18  C   UNL     1      -2.956  -7.249  -2.222  0.00  0.00    +0.069 A 
ATOM     19  C   UNL     1      -2.059  -8.211  -2.668  0.00  0.00    +0.028 A 
ATOM     20  C   UNL     1      -2.521  -9.320  -3.348  0.00  0.00    +0.002 A 
ATOM     21  C   UNL     1      -3.874  -9.475  -3.585  0.00  0.00    +0.000 A 
ATOM     22  C   UNL     1      -4.770  -8.519  -3.143  0.00  0.00    +0.002 A 
ATOM     23  C   UNL     1      -4.315  -7.409  -2.457  0.00  0.00    +0.028 A 
ENDBRANCH  10  18
BRANCH   6  24
ATOM     24  C   UNL     1      -0.676  -4.673   2.147  0.00  0.00    +0.002 A 
ATOM     25  C   UNL     1       0.080  -5.375   3.026  0.00  0.00    +0.012 A 
ATOM     26  C   UNL     1      -0.444  -5.674   4.270  0.00  0.00    +0.008 A 
ATOM     27  C   UNL     1      -1.697  -5.257   4.573  0.00  0.00    +0.045 A 
ATOM     28  S   UNL     1      -2.175  -4.407   3.078  0.00  0.00    -0.101 S 
ENDBRANCH   6  24
BRANCH  11  29
ATOM     29  O   UNL     1      -0.644  -7.139  -0.327  0.00  0.00    -0.492 OA
ATOM     30  H   UNL     1      -0.957  -7.633   0.443  0.00  0.00    +0.294 HD
ENDBRANCH  11  29
TORSDOF 3
