REMARK  Name = ZINC35562956
REMARK  7 active torsions:
REMARK  status: ('A' for Active; 'I' for Inactive)
REMARK    1  A    between atoms: C_1  and  C_2
REMARK    2  A    between atoms: C_5  and  N_9
REMARK    3  A    between atoms: C_6  and  C_8
REMARK    4  A    between atoms: C_10  and  C_16
REMARK    5  A    between atoms: C_20  and  N_22
REMARK    6  A    between atoms: N_22  and  S_23
REMARK    7  A    between atoms: S_23  and  C_26
REMARK                            x       y       z     vdW  Elec       q    Type
REMARK                         _______ _______ _______ _____ _____    ______ ____
ROOT
ATOM      1  C   UNL     1      -2.849  -4.093  -0.830  0.00  0.00    -0.015 A 
ATOM      2  C   UNL     1      -2.451  -3.613  -2.064  0.00  0.00    +0.006 A 
ATOM      3  C   UNL     1      -3.332  -2.890  -2.846  0.00  0.00    +0.002 A 
ATOM      4  C   UNL     1      -4.615  -2.646  -2.397  0.00  0.00    +0.024 A 
ATOM      5  C   UNL     1      -5.019  -3.126  -1.158  0.00  0.00    +0.048 A 
ATOM      6  C   UNL     1      -4.132  -3.857  -0.377  0.00  0.00    +0.030 A 
ENDROOT
BRANCH   1   8
ATOM      7  N   UNL     1      -0.664  -4.098   0.297  0.00  0.00    -0.254 N 
ATOM      8  C   UNL     1      -1.885  -4.880   0.020  0.00  0.00    +0.170 C 
ATOM      9  S   UNL     1      -1.193  -6.311  -0.915  0.00  0.00    -0.124 S 
ATOM     10  C   UNL     1       0.548  -6.115  -0.335  0.00  0.00    +0.167 C 
ATOM     11  C   UNL     1       0.522  -4.669   0.133  0.00  0.00    +0.231 C 
ATOM     12  O   UNL     1       1.548  -4.060   0.351  0.00  0.00    -0.274 OA
BRANCH   7  17
ATOM     13  C   UNL     1      -1.038   1.291   2.029  0.00  0.00    +0.044 C 
ATOM     14  C   UNL     1      -0.939  -0.141   1.569  0.00  0.00    -0.050 A 
ATOM     15  C   UNL     1      -1.279  -1.167   2.431  0.00  0.00    +0.005 A 
ATOM     16  C   UNL     1      -1.189  -2.480   2.012  0.00  0.00    +0.024 A 
ATOM     17  C   UNL     1      -0.757  -2.769   0.724  0.00  0.00    +0.041 A 
ATOM     18  C   UNL     1      -0.417  -1.736  -0.139  0.00  0.00    -0.029 A 
ATOM     19  C   UNL     1      -0.513  -0.425   0.284  0.00  0.00    +0.008 A 
ATOM     20  C   UNL     1       0.053  -2.045  -1.537  0.00  0.00    +0.045 C 
ENDBRANCH   7  17
ENDBRANCH   1   8
BRANCH   5  21
ATOM     21  N   UNL     1      -6.316  -2.881  -0.701  0.00  0.00    -0.216 N 
ATOM     22  H   UNL     1      -6.461  -2.590   0.213  0.00  0.00    +0.174 HD
BRANCH  21  23
ATOM     23  S   UNL     1      -7.606  -3.085  -1.719  0.00  0.00    +0.072 S 
ATOM     24  O   UNL     1      -8.772  -2.788  -0.963  0.00  0.00    -0.150 OA
ATOM     25  O   UNL     1      -7.284  -2.403  -2.924  0.00  0.00    -0.150 OA
BRANCH  23  26
ATOM     26  C   UNL     1      -7.688  -4.799  -2.118  0.00  0.00    +0.109 A 
ATOM     27  C   UNL     1      -7.001  -5.287  -3.214  0.00  0.00    +0.031 A 
ATOM     28  C   UNL     1      -7.064  -6.632  -3.527  0.00  0.00    +0.040 A 
ATOM     29  C   UNL     1      -7.817  -7.490  -2.743  0.00  0.00    +0.124 A 
ATOM     30  C   UNL     1      -8.505  -7.000  -1.646  0.00  0.00    +0.040 A 
ATOM     31  C   UNL     1      -8.436  -5.656  -1.332  0.00  0.00    +0.031 A 
ATOM     32  F   UNL     1      -7.880  -8.805  -3.049  0.00  0.00    -0.205 F 
ENDBRANCH  23  26
ENDBRANCH  21  23
ENDBRANCH   5  21
TORSDOF 5
