REMARK  Name = ZINC39687121
REMARK  10 active torsions:
REMARK  status: ('A' for Active; 'I' for Inactive)
REMARK    1  A    between atoms: C_1  and  C_2
REMARK    2  A    between atoms: C_2  and  C_4
REMARK    3  A    between atoms: C_2  and  N_12
REMARK    4  A    between atoms: C_4  and  C_5
REMARK    5  A    between atoms: C_13  and  C_15
REMARK    6  A    between atoms: C_26  and  C_28
REMARK    7  A    between atoms: C_30  and  O_36
REMARK    8  A    between atoms: C_33  and  O_34
REMARK    9  A    between atoms: O_34  and  C_35
REMARK   10  A    between atoms: O_36  and  C_37
REMARK                            x       y       z     vdW  Elec       q    Type
REMARK                         _______ _______ _______ _____ _____    ______ ____
ROOT
ATOM      1  C   UNL     1      -3.051  -3.626  -1.625  0.00  0.00    +0.100 C 
ATOM      2  C   UNL     1      -2.112  -4.647  -0.946  0.00  0.00    +0.121 C 
ATOM      3  N   UNL     1      -2.474  -4.592   0.490  0.00  0.00    -0.296 N 
ATOM      4  C   UNL     1      -3.951  -4.462   0.493  0.00  0.00    +0.115 C 
ATOM      5  C   UNL     1      -4.258  -3.510  -0.680  0.00  0.00    -0.004 C 
ATOM      6  C   UNL     1      -5.533  -3.946  -1.395  0.00  0.00    -0.010 C 
ATOM      7  C   UNL     1      -6.728  -3.767  -0.454  0.00  0.00    -0.082 C 
ATOM      8  N   UNL     1      -6.828  -2.359  -0.049  0.00  0.00    +0.379 N 
ATOM      9  C   UNL     1      -5.638  -1.974   0.719  0.00  0.00    -0.082 C 
ATOM     10  C   UNL     1      -4.397  -2.077  -0.173  0.00  0.00    -0.010 C 
ATOM     11  C   UNL     1      -1.647  -4.647   1.553  0.00  0.00    +0.250 C 
ATOM     12  O   UNL     1      -2.101  -4.580   2.680  0.00  0.00    -0.270 OA
ATOM     13  H   UNL     1      -6.898  -1.779  -0.872  0.00  0.00    -0.086 HD
ATOM     14  H   UNL     1      -7.650  -2.232   0.521  0.00  0.00    -0.086 HD
ENDROOT
BRANCH  11  15
ATOM     15  C   UNL     1      -0.193  -4.790   1.350  0.00  0.00    +0.082 A 
ATOM     16  C   UNL     1       0.542  -3.745   0.785  0.00  0.00    +0.062 A 
ATOM     17  C   UNL     1       1.905  -3.885   0.599  0.00  0.00    +0.121 A 
ATOM     18  C   UNL     1       2.544  -5.061   0.971  0.00  0.00    +0.049 A 
ATOM     19  C   UNL     1       1.825  -6.098   1.530  0.00  0.00    +0.050 A 
ATOM     20  C   UNL     1       0.458  -5.971   1.729  0.00  0.00    +0.132 A 
BRANCH  20  21
ATOM     21  O   UNL     1      -0.247  -6.989   2.284  0.00  0.00    -0.494 OA
ATOM     22  C   UNL     1       0.484  -8.163   2.645  0.00  0.00    +0.277 C 
ENDBRANCH  20  21
BRANCH  17  23
ATOM     23  O   UNL     1       2.622  -2.869   0.048  0.00  0.00    -0.495 OA
ATOM     24  C   UNL     1       4.003  -3.119  -0.218  0.00  0.00    +0.277 C 
ENDBRANCH  17  23
ENDBRANCH  11  15
BRANCH   1  26
ATOM     25  N   UNL     1      -2.761  -1.424  -2.715  0.00  0.00    -0.312 N 
ATOM     26  C   UNL     1      -2.363  -2.292  -1.764  0.00  0.00    +0.218 C 
ATOM     27  O   UNL     1      -1.451  -2.000  -1.019  0.00  0.00    -0.275 OA
ATOM     28  H   UNL     1      -3.436  -1.687  -3.360  0.00  0.00    +0.149 HD
BRANCH  25  30
ATOM     29  C   UNL     1      -2.943   0.853  -1.842  0.00  0.00    +0.028 C 
ATOM     30  C   UNL     1      -2.174  -0.083  -2.775  0.00  0.00    +0.074 C 
BRANCH  30  31
ATOM     31  C   UNL     1      -2.255   0.445  -4.209  0.00  0.00    +0.060 C 
BRANCH  31  32
ATOM     32  C   UNL     1      -2.384  -0.713  -5.165  0.00  0.00    -0.010 A 
ATOM     33  C   UNL     1      -1.256  -1.254  -5.752  0.00  0.00    +0.006 A 
ATOM     34  C   UNL     1      -1.374  -2.316  -6.629  0.00  0.00    +0.000 A 
ATOM     35  C   UNL     1      -2.621  -2.838  -6.919  0.00  0.00    +0.003 A 
ATOM     36  C   UNL     1      -3.750  -2.300  -6.332  0.00  0.00    +0.038 A 
ATOM     37  C   UNL     1      -3.632  -1.239  -5.450  0.00  0.00    +0.127 A 
ATOM     38  F   UNL     1      -4.736  -0.715  -4.872  0.00  0.00    -0.205 F 
ENDBRANCH  31  32
ENDBRANCH  30  31
ENDBRANCH  25  30
ENDBRANCH   1  26
TORSDOF 7
