REMARK  Name = ZINC48890489
REMARK  3 active torsions:
REMARK  status: ('A' for Active; 'I' for Inactive)
REMARK    1  A    between atoms: C_6  and  N_7
REMARK    2  A    between atoms: N_7  and  N_8
REMARK    3  A    between atoms: C_9  and  C_11
REMARK                            x       y       z     vdW  Elec       q    Type
REMARK                         _______ _______ _______ _____ _____    ______ ____
ROOT
ATOM      1  N   UNL     1      -1.198  -0.720   0.010  0.00  0.00    -0.264 N 
ATOM      2  H   UNL     1      -2.045  -0.248   0.021  0.00  0.00    +0.170 HD
ENDROOT
BRANCH   1   8
ATOM      3  C   UNL     1      -0.017   1.385   0.010  0.00  0.00    +0.026 A 
ATOM      4  C   UNL     1       1.171   2.091   0.002  0.00  0.00    +0.023 A 
ATOM      5  C   UNL     1       2.378   1.416  -0.013  0.00  0.00    +0.059 A 
ATOM      6  C   UNL     1       2.401   0.031  -0.021  0.00  0.00    +0.061 A 
ATOM      7  C   UNL     1       1.216  -0.680  -0.014  0.00  0.00    +0.046 A 
ATOM      8  C   UNL     1       0.002  -0.004   0.002  0.00  0.00    +0.046 A 
ATOM      9 CL   UNL     1       3.918  -0.812  -0.041  0.00  0.00    -0.082 Cl
ATOM     10 CL   UNL     1       3.868   2.307  -0.024  0.00  0.00    -0.082 Cl
ENDBRANCH   1   8
BRANCH   1  11
ATOM     11  N   UNL     1      -1.177  -2.121   0.002  0.00  0.00    -0.231 N 
ATOM     12  C   UNL     1      -2.335  -2.812   0.010  0.00  0.00    +0.281 C 
ATOM     13  O   UNL     1      -3.396  -2.220   0.024  0.00  0.00    -0.267 OA
ATOM     14  H   UNL     1      -0.331  -2.594  -0.009  0.00  0.00    +0.173 HD
BRANCH  12  15
ATOM     15  C   UNL     1      -2.313  -4.289   0.002  0.00  0.00    +0.155 A 
ATOM     16  C   UNL     1      -3.472  -5.057   0.004  0.00  0.00    +0.155 A 
ATOM     17  N   UNL     1      -3.279  -6.351  -0.005  0.00  0.00    -0.198 NA
ATOM     18  S   UNL     1      -1.675  -6.527  -0.014  0.00  0.00    +0.116 S 
ATOM     19  N   UNL     1      -1.190  -4.987  -0.013  0.00  0.00    -0.186 NA
ENDBRANCH  12  15
ENDBRANCH   1  11
TORSDOF 3
