REMARK  Name = ZINC21674020
REMARK  7 active torsions:
REMARK  status: ('A' for Active; 'I' for Inactive)
REMARK    1  A    between atoms: C_1  and  C_2
REMARK    2  A    between atoms: C_3  and  C_29
REMARK    3  A    between atoms: C_7  and  N_16
REMARK    4  A    between atoms: C_9  and  C_11
REMARK    5  A    between atoms: N_16  and  C_17
REMARK    6  A    between atoms: C_17  and  C_19
REMARK    7  A    between atoms: C_17  and  C_20
REMARK                            x       y       z     vdW  Elec       q    Type
REMARK                         _______ _______ _______ _____ _____    ______ ____
ROOT
ATOM      1  C   UNL     1       3.526  -2.694   2.690  0.00  0.00    +0.045 C 
ATOM      2  C   UNL     1       4.938  -2.387   3.121  0.00  0.00    -0.028 A 
ATOM      3  C   UNL     1       5.552  -3.159   4.029  0.00  0.00    -0.008 A 
ATOM      4  S   UNL     1       7.159  -2.406   4.198  0.00  0.00    -0.073 S 
ATOM      5  C   UNL     1       6.962  -1.074   3.043  0.00  0.00    +0.114 A 
ATOM      6  C   UNL     1       5.645  -1.249   2.561  0.00  0.00    +0.051 A 
ATOM      7  C   UNL     1       5.215  -0.299   1.592  0.00  0.00    +0.132 A 
ATOM      8  N   UNL     1       6.038   0.664   1.219  0.00  0.00    -0.212 NA
ATOM      9  C   UNL     1       7.268   0.775   1.718  0.00  0.00    +0.169 A 
ATOM     10  N   UNL     1       7.724  -0.087   2.622  0.00  0.00    -0.219 NA
ATOM     11  C   UNL     1       5.013  -4.375   4.739  0.00  0.00    +0.052 C 
ENDROOT
BRANCH   9  12
ATOM     12  C   UNL     1       8.139   1.874   1.260  0.00  0.00    +0.056 A 
ATOM     13  C   UNL     1       9.423   2.172   1.636  0.00  0.00    +0.019 A 
ATOM     14  C   UNL     1      10.043   3.260   1.066  0.00  0.00    +0.008 A 
ATOM     15  C   UNL     1       9.367   4.004   0.151  0.00  0.00    +0.046 A 
ATOM     16  S   UNL     1       7.798   3.156   0.066  0.00  0.00    -0.094 S 
ENDBRANCH   9  12
BRANCH   7  17
ATOM     17  N   UNL     1       3.944  -0.381   1.051  0.00  0.00    -0.319 N 
ATOM     18  H   UNL     1       3.227  -1.118   1.440  0.00  0.00    +0.148 HD
BRANCH  17  19
ATOM     19  C   UNL     1       3.554   0.516  -0.040  0.00  0.00    +0.137 C 
ATOM     20  C   UNL     1       4.002  -0.081  -1.375  0.00  0.00    +0.036 C 
BRANCH  19  21
ATOM     21  C   UNL     1       2.056   0.683  -0.042  0.00  0.00    +0.158 A 
ATOM     22  N   UNL     1       1.172  -0.272   0.088  0.00  0.00    -0.132 NA
ATOM     23  N   UNL     1      -0.019   0.214   0.042  0.00  0.00    -0.129 NA
ATOM     24  C   UNL     1       0.045   1.526  -0.121  0.00  0.00    +0.161 A 
ATOM     25  N   UNL     1       1.378   1.854  -0.179  0.00  0.00    -0.285 N 
ATOM     26  C   UNL     1       1.763   3.152  -0.344  0.00  0.00    +0.094 A 
ATOM     27  C   UNL     1       0.841   4.132  -0.455  0.00  0.00    +0.018 A 
ATOM     28  C   UNL     1      -0.530   3.827  -0.400  0.00  0.00    +0.005 A 
ATOM     29  C   UNL     1      -0.928   2.537  -0.230  0.00  0.00    +0.048 A 
ENDBRANCH  19  21
ENDBRANCH  17  19
ENDBRANCH   7  17
TORSDOF 4
