REMARK  Name = ZINC63830600
REMARK  6 active torsions:
REMARK  status: ('A' for Active; 'I' for Inactive)
REMARK    1  A    between atoms: C_7  and  C_10
REMARK    2  A    between atoms: C_10  and  C_11
REMARK    3  A    between atoms: C_11  and  N_12
REMARK    4  A    between atoms: C_13  and  C_15
REMARK    5  A    between atoms: C_15  and  N_16
REMARK    6  A    between atoms: C_18  and  C_27
REMARK                            x       y       z     vdW  Elec       q    Type
REMARK                         _______ _______ _______ _____ _____    ______ ____
ROOT
ATOM      1  N   UNL     1      -1.976  -7.005  -3.998  0.00  0.00    -0.314 N 
ATOM      2  C   UNL     1      -3.070  -6.449  -4.812  0.00  0.00    +0.160 C 
ATOM      3  C   UNL     1      -2.521  -6.208  -6.225  0.00  0.00    +0.276 C 
ATOM      4  O   UNL     1      -2.035  -7.446  -6.748  0.00  0.00    -0.476 OA
ATOM      5  C   UNL     1      -1.200  -8.180  -5.965  0.00  0.00    +0.143 A 
ATOM      6  C   UNL     1      -1.151  -7.975  -4.590  0.00  0.00    +0.073 A 
ATOM      7  C   UNL     1      -0.294  -8.730  -3.805  0.00  0.00    +0.027 A 
ATOM      8  C   UNL     1       0.518  -9.683  -4.393  0.00  0.00    +0.002 A 
ATOM      9  C   UNL     1       0.476  -9.881  -5.760  0.00  0.00    +0.004 A 
ATOM     10  C   UNL     1      -0.385  -9.140  -6.543  0.00  0.00    +0.047 A 
ENDROOT
BRANCH   3  11
ATOM     11  C   UNL     1      -3.620  -5.679  -7.111  0.00  0.00    +0.258 C 
ATOM     12  O   UNL     1      -4.011  -6.338  -8.051  0.00  0.00    -0.271 OA
ATOM     13  N   UNL     1      -4.168  -4.474  -6.859  0.00  0.00    -0.298 N 
ATOM     14  C   UNL     1      -3.700  -3.661  -5.728  0.00  0.00    +0.108 C 
ATOM     15  C   UNL     1      -3.318  -2.271  -6.244  0.00  0.00    +0.019 C 
ATOM     16  C   UNL     1      -4.503  -1.669  -7.003  0.00  0.00    +0.003 C 
ATOM     17  C   UNL     1      -4.845  -2.554  -8.204  0.00  0.00    +0.019 C 
ATOM     18  C   UNL     1      -5.240  -3.945  -7.713  0.00  0.00    +0.108 C 
ENDBRANCH   3  11
BRANCH   1  19
ATOM     19  C   UNL     1      -1.752  -6.557  -2.622  0.00  0.00    +0.201 C 
BRANCH  19  21
ATOM     20  N   UNL     1      -0.458  -4.798  -1.460  0.00  0.00    -0.314 N 
ATOM     21  C   UNL     1      -0.811  -5.380  -2.623  0.00  0.00    +0.230 C 
ATOM     22  O   UNL     1      -0.371  -4.957  -3.671  0.00  0.00    -0.274 OA
ATOM     23  H   UNL     1      -0.810  -5.136  -0.622  0.00  0.00    +0.149 HD
BRANCH  20  24
ATOM     24  C   UNL     1       0.457  -3.653  -1.462  0.00  0.00    +0.108 C 
BRANCH  24  25
ATOM     25  C   UNL     1       0.691  -3.186  -0.024  0.00  0.00    +0.052 C 
BRANCH  25  32
ATOM     26  C   UNL     1      -0.016   1.348   0.009  0.00  0.00    +0.001 A 
ATOM     27  C   UNL     1       1.166   2.101   0.002  0.00  0.00    +0.002 A 
ATOM     28  C   UNL     1       2.391   1.535  -0.013  0.00  0.00    +0.026 A 
ATOM     29  C   UNL     1       2.529   0.120  -0.022  0.00  0.00    +0.043 A 
ATOM     30  N   UNL     1       3.587  -0.654  -0.037  0.00  0.00    -0.380 N 
ATOM     31  C   UNL     1       3.143  -2.053  -0.041  0.00  0.00    +0.144 C 
ATOM     32  C   UNL     1       1.631  -2.008  -0.025  0.00  0.00    -0.040 C 
ATOM     33  C   UNL     1       1.295  -0.698  -0.014  0.00  0.00    -0.001 A 
ATOM     34  C   UNL     1       0.002  -0.004   0.002  0.00  0.00    +0.010 A 
ATOM     35  H   UNL     1       4.509  -0.353  -0.045  0.00  0.00    +0.160 HD
ENDBRANCH  25  32
ENDBRANCH  24  25
ENDBRANCH  20  24
ENDBRANCH  19  21
ENDBRANCH   1  19
TORSDOF 6
