REMARK  Name = ZINC52334273
REMARK  4 active torsions:
REMARK  status: ('A' for Active; 'I' for Inactive)
REMARK    1  A    between atoms: C_1  and  C_2
REMARK    2  A    between atoms: C_2  and  C_4
REMARK    3  A    between atoms: C_2  and  N_10
REMARK    4  A    between atoms: N_10  and  C_11
REMARK                            x       y       z     vdW  Elec       q    Type
REMARK                         _______ _______ _______ _____ _____    ______ ____
ROOT
ATOM      1  C   UNL     1      -1.350  -1.982   0.125  0.00  0.00    +0.049 C 
ATOM      2  C   UNL     1      -2.758  -2.530   0.131  0.00  0.00    -0.026 A 
ATOM      3  C   UNL     1      -3.800  -2.424   1.026  0.00  0.00    +0.042 A 
ATOM      4  C   UNL     1      -5.007  -3.051   0.760  0.00  0.00    +0.126 A 
ATOM      5  C   UNL     1      -5.160  -3.783  -0.405  0.00  0.00    +0.078 A 
ATOM      6  C   UNL     1      -4.116  -3.891  -1.303  0.00  0.00    +0.147 A 
ATOM      7  C   UNL     1      -2.898  -3.261  -1.040  0.00  0.00    +0.071 A 
ATOM      8  N   UNL     1      -1.712  -3.222  -1.779  0.00  0.00    -0.284 N 
ATOM      9  C   UNL     1      -0.756  -2.497  -1.169  0.00  0.00    +0.208 C 
ATOM     10  O   UNL     1       0.368  -2.293  -1.577  0.00  0.00    -0.277 OA
ATOM     11  F   UNL     1      -4.273  -4.607  -2.437  0.00  0.00    -0.203 F 
ATOM     12  F   UNL     1      -6.031  -2.948   1.636  0.00  0.00    -0.205 F 
ATOM     13  H   UNL     1      -1.592  -3.667  -2.632  0.00  0.00    +0.155 HD
ENDROOT
BRANCH   1  14
ATOM     14  N   UNL     1      -1.370  -0.513   0.133  0.00  0.00    +0.391 N 
ATOM     15  H   UNL     1      -1.859  -0.188   0.954  0.00  0.00    -0.084 HD
ATOM     16  H   UNL     1      -1.841  -0.179  -0.694  0.00  0.00    -0.084 HD
BRANCH  14  18
ATOM     17  C   UNL     1      -0.009   1.520   0.027  0.00  0.00    -0.013 C 
ATOM     18  C   UNL     1       0.009  -0.005   0.151  0.00  0.00    -0.070 C 
BRANCH  18  19
ATOM     19  C   UNL     1       0.682  -0.402   1.466  0.00  0.00    -0.025 C 
ATOM     20  C   UNL     1      -0.097   0.196   2.639  0.00  0.00    +0.002 C 
ATOM     21  C   UNL     1       0.576  -0.201   3.954  0.00  0.00    +0.000 C 
ATOM     22  C   UNL     1       2.011   0.329   3.972  0.00  0.00    +0.000 C 
ATOM     23  C   UNL     1       2.791  -0.270   2.799  0.00  0.00    +0.000 C 
ATOM     24  C   UNL     1       2.117   0.127   1.484  0.00  0.00    +0.002 C 
ENDBRANCH  18  19
ENDBRANCH  14  18
ENDBRANCH   1  14
TORSDOF 3
