REMARK  Name = ZINC16038851
REMARK  10 active torsions:
REMARK  status: ('A' for Active; 'I' for Inactive)
REMARK    1  A    between atoms: C_1  and  C_2
REMARK    2  A    between atoms: C_2  and  C_3
REMARK    3  A    between atoms: C_3  and  C_4
REMARK    4  A    between atoms: C_7  and  C_10
REMARK    5  A    between atoms: C_10  and  C_12
REMARK    6  A    between atoms: C_14  and  C_36
REMARK    7  A    between atoms: C_36  and  C_38
REMARK    8  A    between atoms: C_38  and  C_39
REMARK    9  A    between atoms: C_38  and  C_40
REMARK   10  A    between atoms: C_38  and  C_41
REMARK                            x       y       z     vdW  Elec       q    Type
REMARK                         _______ _______ _______ _____ _____    ______ ____
ROOT
ATOM      1  C   UNL     1       4.098   0.620   1.053  0.00  0.00    +0.108 C 
ATOM      2  C   UNL     1       3.771   2.083   0.636  0.00  0.00    +0.136 C 
ATOM      3  C   UNL     1       1.366   2.947   0.491  0.00  0.00    +0.054 C 
ATOM      4  C   UNL     1       0.102   2.501   0.608  0.00  0.00    +0.022 C 
ATOM      5  C   UNL     1      -0.180   1.059   0.470  0.00  0.00    -0.019 A 
ATOM      6  C   UNL     1      -1.421   0.566   0.882  0.00  0.00    +0.008 A 
ATOM      7  C   UNL     1      -1.717  -0.771   0.728  0.00  0.00    +0.001 A 
ATOM      8  C   UNL     1      -0.791  -1.619   0.149  0.00  0.00    +0.000 A 
ATOM      9  C   UNL     1       0.441  -1.137  -0.255  0.00  0.00    +0.006 A 
ATOM     10  C   UNL     1       0.780   0.185  -0.057  0.00  0.00    -0.020 A 
ATOM     11  C   UNL     1       2.139   0.706  -0.407  0.00  0.00    +0.107 C 
ATOM     12  C   UNL     1       3.308  -0.185  -0.002  0.00  0.00    +0.107 C 
ATOM     13  C   UNL     1       2.954  -1.550   0.463  0.00  0.00    -0.008 A 
ATOM     14  C   UNL     1       2.134  -2.024   1.467  0.00  0.00    +0.006 A 
ATOM     15  C   UNL     1       2.055  -3.400   1.645  0.00  0.00    +0.000 A 
ATOM     16  C   UNL     1       2.749  -4.274   0.833  0.00  0.00    +0.002 A 
ATOM     17  C   UNL     1       3.558  -3.818  -0.195  0.00  0.00    +0.023 A 
ATOM     18  C   UNL     1       3.654  -2.438  -0.373  0.00  0.00    +0.038 A 
ATOM     19  N   UNL     1       4.376  -1.740  -1.326  0.00  0.00    -0.284 N 
ATOM     20  C   UNL     1       4.214  -0.409  -1.202  0.00  0.00    +0.231 C 
ATOM     21  O   UNL     1       4.693   0.458  -1.900  0.00  0.00    -0.274 OA
ATOM     22  H   UNL     1       4.930  -2.163  -2.001  0.00  0.00    +0.155 HD
ATOM     23  N   UNL     1       2.320   1.762   0.554  0.00  0.00    -0.384 NA
ATOM     24  H   UNL     1       2.095   1.325   1.455  0.00  0.00    +0.127 HD
ENDROOT
BRANCH   1  25
ATOM     25  C   UNL     1       3.640   0.354   2.459  0.00  0.00    +0.170 C 
ATOM     26  O   UNL     1       2.671   0.933   2.901  0.00  0.00    -0.292 OA
BRANCH  25  30
ATOM     27  C   UNL     1       5.738  -2.422   4.885  0.00  0.00    -0.047 A 
ATOM     28  C   UNL     1       4.587  -1.822   5.364  0.00  0.00    +0.004 A 
ATOM     29  C   UNL     1       3.899  -0.919   4.581  0.00  0.00    +0.011 A 
ATOM     30  C   UNL     1       4.368  -0.609   3.301  0.00  0.00    +0.018 A 
ATOM     31  C   UNL     1       5.530  -1.223   2.822  0.00  0.00    +0.011 A 
ATOM     32  C   UNL     1       6.209  -2.121   3.619  0.00  0.00    +0.004 A 
BRANCH  27  33
ATOM     33  C   UNL     1       6.484  -3.409   5.747  0.00  0.00    +0.035 C 
BRANCH  33  35
ATOM     34  C   UNL     1       6.704  -5.820   6.364  0.00  0.00    +0.004 C 
ATOM     35  C   UNL     1       5.947  -4.818   5.489  0.00  0.00    +0.001 C 
ENDBRANCH  33  35
ENDBRANCH  27  33
ENDBRANCH  25  30
ENDBRANCH   1  25
BRANCH   2  36
ATOM     36  C   UNL     1       3.972   3.019   1.798  0.00  0.00    +0.158 C 
ATOM     37  O   UNL     1       3.029   3.353   2.474  0.00  0.00    -0.295 OA
BRANCH  36  38
ATOM     38  C   UNL     1       5.349   3.541   2.116  0.00  0.00    +0.022 C 
ATOM     39  C   UNL     1       5.258   4.567   3.247  0.00  0.00    +0.018 C 
ATOM     40  C   UNL     1       6.246   2.380   2.552  0.00  0.00    +0.018 C 
ATOM     41  C   UNL     1       5.943   4.205   0.872  0.00  0.00    +0.018 C 
ENDBRANCH  36  38
ENDBRANCH   2  36
TORSDOF 6
