REMARK  Name = ZINC36075059
REMARK  13 active torsions:
REMARK  status: ('A' for Active; 'I' for Inactive)
REMARK    1  A    between atoms: C_1  and  C_2
REMARK    2  A    between atoms: C_7  and  N_12
REMARK    3  A    between atoms: C_9  and  C_11
REMARK    4  A    between atoms: N_12  and  C_13
REMARK    5  A    between atoms: C_13  and  C_14
REMARK    6  A    between atoms: N_16  and  C_17
REMARK    7  A    between atoms: C_20  and  N_36
REMARK    8  A    between atoms: C_22  and  C_23
REMARK    9  A    between atoms: N_25  and  C_26
REMARK   10  A    between atoms: C_28  and  O_34
REMARK   11  A    between atoms: C_30  and  O_32
REMARK   12  A    between atoms: O_32  and  C_33
REMARK   13  A    between atoms: O_34  and  C_35
REMARK                            x       y       z     vdW  Elec       q    Type
REMARK                         _______ _______ _______ _____ _____    ______ ____
ROOT
ATOM      1  C   UNL     1      -3.555  -6.283   1.582  0.00  0.00    +0.046 A 
ATOM      2  C   UNL     1      -4.591  -5.366   1.462  0.00  0.00    +0.026 A 
ATOM      3  C   UNL     1      -5.903  -5.792   1.525  0.00  0.00    +0.034 A 
ATOM      4  C   UNL     1      -6.196  -7.134   1.709  0.00  0.00    +0.127 A 
ATOM      5  C   UNL     1      -5.181  -8.058   1.830  0.00  0.00    +0.047 A 
ATOM      6  C   UNL     1      -3.849  -7.643   1.762  0.00  0.00    +0.060 A 
ENDROOT
BRANCH   1   9
ATOM      7  C   UNL     1      -1.920  -4.721   0.860  0.00  0.00    +0.200 C 
ATOM      8  O   UNL     1      -2.775  -4.128   0.236  0.00  0.00    -0.278 OA
ATOM      9  N   UNL     1      -2.231  -5.855   1.518  0.00  0.00    -0.286 N 
ATOM     10  H   UNL     1      -1.533  -6.373   1.948  0.00  0.00    +0.155 HD
BRANCH   7  11
ATOM     11  C   UNL     1      -0.511  -4.189   0.899  0.00  0.00    +0.016 C 
BRANCH  11  12
ATOM     12  N   UNL     1      -0.432  -2.953   0.109  0.00  0.00    +0.387 N 
ATOM     13  H   UNL     1      -1.061  -2.266   0.496  0.00  0.00    -0.085 HD
ATOM     14  H   UNL     1      -0.692  -3.147  -0.846  0.00  0.00    -0.085 HD
BRANCH  12  20
ATOM     15  C   UNL     1       0.615   0.090  -2.741  0.00  0.00    +0.008 C 
ATOM     16  C   UNL     1       0.559  -1.260  -2.025  0.00  0.00    -0.013 C 
ATOM     17  C   UNL     1       1.496  -2.248  -2.724  0.00  0.00    +0.003 C 
ATOM     18  C   UNL     1       1.440  -3.598  -2.007  0.00  0.00    -0.001 C 
ATOM     19  C   UNL     1       1.879  -3.422  -0.552  0.00  0.00    -0.015 C 
ATOM     20  C   UNL     1       0.942  -2.435   0.147  0.00  0.00    -0.068 C 
ATOM     21  C   UNL     1       0.998  -1.084  -0.570  0.00  0.00    -0.025 C 
ATOM     22  C   UNL     1       0.061  -0.097   0.130  0.00  0.00    +0.006 C 
ENDBRANCH  12  20
ENDBRANCH  11  12
ENDBRANCH   7  11
ENDBRANCH   1   9
BRANCH   6  23
ATOM     23  C   UNL     1      -2.758  -8.627   1.884  0.00  0.00    +0.250 C 
ATOM     24  O   UNL     1      -1.601  -8.252   1.919  0.00  0.00    -0.270 OA
ATOM     25  N   UNL     1      -3.042  -9.943   1.957  0.00  0.00    -0.281 N 
ATOM     26  H   UNL     1      -3.965 -10.237   2.013  0.00  0.00    +0.155 HD
BRANCH  25  27
ATOM     27  C   UNL     1      -2.007 -10.883   1.953  0.00  0.00    +0.041 A 
ATOM     28  C   UNL     1      -2.197 -12.128   2.538  0.00  0.00    +0.069 A 
ATOM     29  C   UNL     1      -1.170 -13.060   2.533  0.00  0.00    +0.125 A 
ATOM     30  C   UNL     1       0.046 -12.749   1.944  0.00  0.00    +0.091 A 
ATOM     31  C   UNL     1       0.237 -11.506   1.359  0.00  0.00    +0.125 A 
ATOM     32  C   UNL     1      -0.791 -10.575   1.358  0.00  0.00    +0.069 A 
BRANCH  31  33
ATOM     33  O   UNL     1       1.429 -11.202   0.782  0.00  0.00    -0.495 OA
ATOM     34  C   UNL     1       2.441 -12.211   0.814  0.00  0.00    +0.277 C 
ENDBRANCH  31  33
BRANCH  29  35
ATOM     35  O   UNL     1      -1.356 -14.278   3.107  0.00  0.00    -0.495 OA
ATOM     36  C   UNL     1      -0.256 -15.189   3.065  0.00  0.00    +0.277 C 
ENDBRANCH  29  35
ENDBRANCH  25  27
ENDBRANCH   6  23
BRANCH   4  37
ATOM     37  N   UNL     1      -7.607  -7.577   1.775  0.00  0.00    +0.056 N 
ATOM     38  O   UNL     1      -8.500  -6.769   1.669  0.00  0.00    -0.126 OA
ATOM     39  O   UNL     1      -7.866  -8.747   1.935  0.00  0.00    -0.126 OA
ENDBRANCH   4  37
TORSDOF 9
