REMARK  Name = ZINC44322567
REMARK  9 active torsions:
REMARK  status: ('A' for Active; 'I' for Inactive)
REMARK    1  A    between atoms: C_1  and  C_2
REMARK    2  A    between atoms: C_9  and  C_35
REMARK    3  A    between atoms: C_10  and  C_11
REMARK    4  A    between atoms: C_11  and  CA_12
REMARK    5  A    between atoms: CA_12  and  C_14
REMARK    6  A    between atoms: CA_12  and  N_17
REMARK    7  A    between atoms: C_18  and  O_20
REMARK    8  A    between atoms: O_20  and  C_21
REMARK    9  A    between atoms: C_21  and  C_22
REMARK                            x       y       z     vdW  Elec       q    Type
REMARK                         _______ _______ _______ _____ _____    ______ ____
ROOT
ATOM      1  N   UNL     1       2.166  -4.429   1.809  0.00  0.00    -0.267 N 
ATOM      2  C   UNL     1       3.505  -4.306   1.718  0.00  0.00    +0.401 C 
ATOM      3  O   UNL     1       4.173  -4.180   2.725  0.00  0.00    -0.226 OA
ATOM      4  H   UNL     1       1.633  -4.530   1.005  0.00  0.00    +0.153 HD
ENDROOT
BRANCH   1   5
ATOM      5  CA  UNL     1       1.516  -4.411   3.122  0.00  0.00    +0.195 C 
BRANCH   5   6
ATOM      6  C   UNL     1       1.539  -5.796   3.714  0.00  0.00    +0.376 C 
ATOM      7  O   UNL     1       1.881  -6.746   3.030  0.00  0.00    -0.244 OA
ATOM      8  OXT UNL     1       1.214  -5.968   4.876  0.00  0.00    -0.244 OA
ENDBRANCH   5   6
BRANCH   5   9
ATOM      9  C   UNL     1       0.067  -3.946   2.967  0.00  0.00    +0.089 C 
BRANCH   9  19
ATOM     10  C   UNL     1      -0.018   1.503   0.010  0.00  0.00    +0.047 C 
ATOM     11  C   UNL     1       0.002  -0.004   0.002  0.00  0.00    -0.009 A 
ATOM     12  C   UNL     1       0.006  -0.685  -1.176  0.00  0.00    +0.008 A 
ATOM     13  C   UNL     1       0.025  -2.089  -1.168  0.00  0.00    +0.018 A 
ATOM     14  C   UNL     1       0.039  -2.763   0.001  0.00  0.00    +0.093 A 
ATOM     15  N   UNL     1       0.035  -2.093   1.190  0.00  0.00    -0.305 N 
ATOM     16  C   UNL     1       0.023  -0.722   1.214  0.00  0.00    +0.119 A 
ATOM     17  N   UNL     1       0.030  -0.334   2.482  0.00  0.00    -0.343 N 
ATOM     18  C   UNL     1       0.051  -1.412   3.270  0.00  0.00    +0.034 A 
ATOM     19  C   UNL     1       0.046  -2.516   2.491  0.00  0.00    +0.046 A 
ATOM     20  C   UNL     1       0.066  -1.399   4.777  0.00  0.00    +0.065 C 
ATOM     21  H   UNL     1       0.021   0.586   2.788  0.00  0.00    +0.167 HD
ENDBRANCH   9  19
ENDBRANCH   5   9
ENDBRANCH   1   5
BRANCH   2  22
ATOM     22  O   UNL     1       4.103  -4.324   0.512  0.00  0.00    -0.449 OA
BRANCH  22  23
ATOM     23  C   UNL     1       5.525  -4.188   0.490  0.00  0.00    +0.246 C 
BRANCH  23  24
ATOM     24  C   UNL     1       6.019  -4.230  -0.957  0.00  0.00    +0.088 C 
ATOM     25  C   UNL     1       5.821  -5.611  -1.534  0.00  0.00    -0.029 A 
ATOM     26  C   UNL     1       4.692  -6.374  -1.740  0.00  0.00    +0.005 A 
ATOM     27  C   UNL     1       4.802  -7.635  -2.299  0.00  0.00    +0.000 A 
ATOM     28  C   UNL     1       6.044  -8.132  -2.652  0.00  0.00    +0.001 A 
ATOM     29  C   UNL     1       7.178  -7.375  -2.449  0.00  0.00    +0.009 A 
ATOM     30  C   UNL     1       7.076  -6.102  -1.885  0.00  0.00    -0.014 A 
ATOM     31  C   UNL     1       8.111  -5.090  -1.561  0.00  0.00    -0.014 A 
ATOM     32  C   UNL     1       7.504  -3.966  -1.007  0.00  0.00    -0.029 A 
ATOM     33  C   UNL     1       8.265  -2.884  -0.621  0.00  0.00    +0.005 A 
ATOM     34  C   UNL     1       9.639  -2.909  -0.784  0.00  0.00    +0.000 A 
ATOM     35  C   UNL     1      10.252  -4.021  -1.334  0.00  0.00    +0.001 A 
ATOM     36  C   UNL     1       9.498  -5.109  -1.722  0.00  0.00    +0.009 A 
ENDBRANCH  23  24
ENDBRANCH  22  23
ENDBRANCH   2  22
TORSDOF 7
