REMARK  Name = ZINC04713101
REMARK  7 active torsions:
REMARK  status: ('A' for Active; 'I' for Inactive)
REMARK    1  A    between atoms: C_1  and  C_2
REMARK    2  A    between atoms: C_4  and  N_15
REMARK    3  A    between atoms: C_6  and  C_8
REMARK    4  A    between atoms: N_15  and  N_16
REMARK    5  A    between atoms: C_17  and  C_18
REMARK    6  A    between atoms: C_17  and  C_19
REMARK    7  A    between atoms: C_23  and  N_25
REMARK                            x       y       z     vdW  Elec       q    Type
REMARK                         _______ _______ _______ _____ _____    ______ ____
ROOT
ATOM      1  C   UNL     1      -3.741  11.584   0.096  0.00  0.00    +0.066 C 
ATOM      2  C   UNL     1      -3.665  10.079   0.087  0.00  0.00    +0.044 A 
ATOM      3  C   UNL     1      -2.438   9.442   0.078  0.00  0.00    +0.068 A 
ATOM      4  C   UNL     1      -2.413   8.045   0.065  0.00  0.00    +0.142 A 
ATOM      5  N   UNL     1      -3.563   7.379   0.072  0.00  0.00    -0.211 NA
ATOM      6  C   UNL     1      -4.719   8.028   0.086  0.00  0.00    +0.162 A 
ATOM      7  N   UNL     1      -4.772   9.354   0.094  0.00  0.00    -0.232 NA
ENDROOT
BRANCH   6   8
ATOM      8  C   UNL     1      -5.983   7.254   0.095  0.00  0.00    +0.019 A 
ATOM      9  C   UNL     1      -7.209   7.917   0.116  0.00  0.00    +0.012 A 
ATOM     10  C   UNL     1      -8.383   7.191   0.119  0.00  0.00    +0.016 A 
ATOM     11  C   UNL     1      -8.344   5.808   0.112  0.00  0.00    +0.018 A 
ATOM     12  C   UNL     1      -7.129   5.144   0.097  0.00  0.00    +0.016 A 
ATOM     13  C   UNL     1      -5.950   5.860   0.088  0.00  0.00    +0.012 A 
ATOM     14 BR   UNL     1      -9.957   4.820   0.125  0.00  0.00    -0.050 Br
ENDBRANCH   6   8
BRANCH   4  15
ATOM     15  N   UNL     1      -1.206   7.364   0.050  0.00  0.00    -0.221 N 
ATOM     16  H   UNL     1      -0.371   7.857   0.045  0.00  0.00    +0.176 HD
BRANCH  15  17
ATOM     17  N   UNL     1      -1.193   5.963   0.043  0.00  0.00    -0.186 NA
ATOM     18  C   UNL     1      -0.063   5.325   0.029  0.00  0.00    +0.063 C 
ATOM     19  C   UNL     1       1.235   6.091   0.021  0.00  0.00    +0.068 C 
BRANCH  18  20
ATOM     20  C   UNL     1      -0.049   3.850   0.022  0.00  0.00    -0.001 A 
ATOM     21  C   UNL     1       1.167   3.160   0.007  0.00  0.00    +0.010 A 
ATOM     22  C   UNL     1       1.177   1.781   0.000  0.00  0.00    +0.002 A 
ATOM     23  C   UNL     1      -0.013   1.076   0.008  0.00  0.00    +0.023 A 
ATOM     24  C   UNL     1      -1.227   1.752   0.017  0.00  0.00    +0.025 A 
ATOM     25  C   UNL     1      -1.249   3.138   0.030  0.00  0.00    +0.032 A 
BRANCH  24  26
ATOM     26  N   UNL     1      -2.426   1.034   0.019  0.00  0.00    -0.358 N 
ATOM     27  H   UNL     1      -2.411   0.065   0.014  0.00  0.00    +0.142 HD
ATOM     28  H   UNL     1      -3.273   1.506   0.026  0.00  0.00    +0.142 HD
ENDBRANCH  24  26
ENDBRANCH  18  20
ENDBRANCH  15  17
ENDBRANCH   4  15
TORSDOF 5
