REMARK  Name = ZINC45639113
REMARK  8 active torsions:
REMARK  status: ('A' for Active; 'I' for Inactive)
REMARK    1  A    between atoms: C_1  and  C_2
REMARK    2  A    between atoms: C_6  and  C_25
REMARK    3  A    between atoms: C_8  and  N_11
REMARK    4  A    between atoms: N_14  and  N_15
REMARK    5  A    between atoms: C_16  and  C_18
REMARK    6  A    between atoms: N_22  and  C_23
REMARK    7  A    between atoms: C_25  and  C_26
REMARK    8  A    between atoms: C_25  and  C_27
REMARK                            x       y       z     vdW  Elec       q    Type
REMARK                         _______ _______ _______ _____ _____    ______ ____
ROOT
ATOM      1  N   UNL     1       0.276   1.464   2.286  0.00  0.00    -0.295 N 
ATOM      2  C   UNL     1       1.399   2.153   2.568  0.00  0.00    +0.316 C 
ATOM      3  O   UNL     1       2.438   1.560   2.784  0.00  0.00    -0.251 OA
ATOM      4  N   UNL     1       1.370   3.499   2.612  0.00  0.00    -0.218 N 
ATOM      5  H   UNL     1      -0.554   1.937   2.114  0.00  0.00    +0.151 HD
ATOM      6  H   UNL     1       2.178   3.995   2.816  0.00  0.00    +0.174 HD
ENDROOT
BRANCH   1  12
ATOM      7  C   UNL     1       0.223   1.609  -0.209  0.00  0.00    +0.007 C 
ATOM      8  C   UNL     1       0.255   0.080  -0.259  0.00  0.00    -0.012 C 
ATOM      9  C   UNL     1      -1.176  -0.461  -0.247  0.00  0.00    +0.004 C 
ATOM     10  C   UNL     1      -1.882  -0.008   1.033  0.00  0.00    +0.006 C 
ATOM     11  C   UNL     1      -1.124  -0.542   2.250  0.00  0.00    +0.012 C 
ATOM     12  C   UNL     1       0.307  -0.000   2.238  0.00  0.00    +0.078 C 
ATOM     13  C   UNL     1       1.013  -0.454   0.958  0.00  0.00    +0.026 C 
BRANCH  11  14
ATOM     14  C   UNL     1      -1.830  -0.088   3.529  0.00  0.00    -0.012 C 
ATOM     15  C   UNL     1      -3.261  -0.629   3.541  0.00  0.00    +0.007 C 
ATOM     16  C   UNL     1      -1.073  -0.622   4.747  0.00  0.00    +0.007 C 
ENDBRANCH  11  14
ENDBRANCH   1  12
BRANCH   4  17
ATOM     17  N   UNL     1       0.172   4.183   2.364  0.00  0.00    -0.228 N 
ATOM     18  C   UNL     1       0.144   5.530   2.408  0.00  0.00    +0.277 C 
ATOM     19  O   UNL     1       1.175   6.155   2.572  0.00  0.00    -0.267 OA
ATOM     20  H   UNL     1      -0.636   3.687   2.161  0.00  0.00    +0.173 HD
BRANCH  18  21
ATOM     21  C   UNL     1      -1.130   6.241   2.259  0.00  0.00    +0.107 A 
ATOM     22  C   UNL     1      -2.352   5.672   1.970  0.00  0.00    +0.047 A 
ATOM     23  C   UNL     1      -3.288   6.711   1.921  0.00  0.00    +0.036 A 
ATOM     24  C   UNL     1      -2.635   7.871   2.175  0.00  0.00    +0.101 A 
ATOM     25  N   UNL     1      -1.324   7.598   2.387  0.00  0.00    -0.345 N 
ATOM     26  C   UNL     1      -0.286   8.584   2.698  0.00  0.00    +0.149 C 
ATOM     27 BR   UNL     1      -5.136   6.529   1.563  0.00  0.00    -0.049 Br
ENDBRANCH  18  21
ENDBRANCH   4  17
TORSDOF 4
