REMARK  Name = ZINC40170294
REMARK  13 active torsions:
REMARK  status: ('A' for Active; 'I' for Inactive)
REMARK    1  A    between atoms: C_1  and  C_2
REMARK    2  A    between atoms: C_11  and  C_12
REMARK    3  A    between atoms: C_15  and  S_16
REMARK    4  A    between atoms: S_16  and  C_17
REMARK    5  A    between atoms: C_17  and  C_19
REMARK    6  A    between atoms: C_17  and  C_20
REMARK    7  A    between atoms: N_22  and  C_23
REMARK    8  A    between atoms: C_26  and  S_29
REMARK    9  A    between atoms: S_29  and  N_32
REMARK   10  A    between atoms: N_32  and  C_33
REMARK   11  A    between atoms: C_33  and  C_34
REMARK   12  A    between atoms: C_34  and  C_35
REMARK   13  A    between atoms: C_34  and  C_36
REMARK                            x       y       z     vdW  Elec       q    Type
REMARK                         _______ _______ _______ _____ _____    ______ ____
ROOT
ATOM      1  C   UNL     1      -3.400   3.946   3.147  0.00  0.00    +0.230 C 
ATOM      2  O   UNL     1      -3.703   3.996   1.974  0.00  0.00    -0.274 OA
ATOM      3  N   UNL     1      -4.047   4.716   4.044  0.00  0.00    -0.285 N 
ATOM      4  H   UNL     1      -3.740   4.752   4.963  0.00  0.00    +0.155 HD
ENDROOT
BRANCH   3   5
ATOM      5  C   UNL     1      -5.162   5.464   3.648  0.00  0.00    +0.034 A 
ATOM      6  C   UNL     1      -5.445   6.673   4.271  0.00  0.00    +0.025 A 
ATOM      7  C   UNL     1      -6.546   7.409   3.879  0.00  0.00    +0.030 A 
ATOM      8  C   UNL     1      -7.365   6.943   2.867  0.00  0.00    +0.105 A 
ATOM      9  C   UNL     1      -7.086   5.740   2.245  0.00  0.00    +0.030 A 
ATOM     10  C   UNL     1      -5.983   5.003   2.628  0.00  0.00    +0.025 A 
BRANCH   8  11
ATOM     11  S   UNL     1      -8.769   7.885   2.369  0.00  0.00    +0.058 S 
ATOM     12  O   UNL     1      -9.682   6.972   1.777  0.00  0.00    -0.153 OA
ATOM     13  O   UNL     1      -9.121   8.705   3.475  0.00  0.00    -0.153 OA
BRANCH  11  14
ATOM     14  N   UNL     1      -8.271   8.905   1.163  0.00  0.00    -0.190 NA
ATOM     15  H   UNL     1      -8.283   9.865   1.304  0.00  0.00    +0.148 HD
BRANCH  14  16
ATOM     16  C   UNL     1      -7.813   8.358  -0.117  0.00  0.00    +0.109 C 
BRANCH  16  17
ATOM     17  C   UNL     1      -7.771   9.475  -1.162  0.00  0.00    -0.002 C 
ATOM     18  C   UNL     1      -6.715  10.508  -0.763  0.00  0.00    +0.008 C 
ATOM     19  C   UNL     1      -7.413   8.882  -2.527  0.00  0.00    +0.008 C 
ENDBRANCH  16  17
ENDBRANCH  14  16
ENDBRANCH  11  14
ENDBRANCH   8  11
ENDBRANCH   3   5
BRANCH   1  20
ATOM     20  C   UNL     1      -2.300   3.022   3.602  0.00  0.00    +0.137 C 
ATOM     21  C   UNL     1      -1.008   3.821   3.791  0.00  0.00    +0.029 C 
BRANCH  20  22
ATOM     22  S   UNL     1      -2.037   1.733   2.353  0.00  0.00    -0.073 S 
BRANCH  22  37
ATOM     23  C   UNL     1      -0.259   1.151   0.072  0.00  0.00    +0.046 C 
ATOM     24  C   UNL     1      -0.305  -0.353   0.131  0.00  0.00    -0.026 A 
ATOM     25  C   UNL     1      -0.523  -1.035  -1.056  0.00  0.00    +0.005 A 
ATOM     26  C   UNL     1      -0.526  -2.417  -1.091  0.00  0.00    +0.001 A 
ATOM     27  C   UNL     1      -0.252  -3.133   0.055  0.00  0.00    +0.010 A 
ATOM     28  C   UNL     1      -0.018  -2.458   1.253  0.00  0.00    +0.002 A 
ATOM     29  C   UNL     1      -0.187  -1.054   1.317  0.00  0.00    +0.061 A 
ATOM     30  N   UNL     1      -0.296  -0.466   2.567  0.00  0.00    -0.270 N 
ATOM     31  C   UNL     1       0.239  -1.118   3.664  0.00  0.00    +0.162 A 
ATOM     32  C   UNL     1       0.590  -2.485   3.602  0.00  0.00    +0.052 A 
ATOM     33  C   UNL     1       0.427  -3.174   2.451  0.00  0.00    -0.038 A 
ATOM     34  C   UNL     1       0.704  -4.655   2.419  0.00  0.00    +0.044 C 
ATOM     35  N   UNL     1       0.271  -0.247   4.655  0.00  0.00    -0.129 NA
ATOM     36  N   UNL     1      -0.365   0.809   4.309  0.00  0.00    -0.122 NA
ATOM     37  C   UNL     1      -0.843   0.664   3.088  0.00  0.00    +0.197 A 
ENDBRANCH  22  37
ENDBRANCH  20  22
ENDBRANCH   1  20
TORSDOF 8
