REMARK  Name = ZINC02103051
REMARK  10 active torsions:
REMARK  status: ('A' for Active; 'I' for Inactive)
REMARK    1  A    between atoms: C_1  and  C_2
REMARK    2  A    between atoms: C_2  and  C_3
REMARK    3  A    between atoms: C_3  and  C_5
REMARK    4  A    between atoms: C_3  and  C_6
REMARK    5  A    between atoms: C_6  and  C_8
REMARK    6  A    between atoms: C_6  and  N_48
REMARK    7  A    between atoms: C_8  and  O_10
REMARK    8  A    between atoms: O_10  and  C_11
REMARK    9  A    between atoms: C_19  and  O_22
REMARK   10  A    between atoms: O_22  and  C_23
REMARK                            x       y       z     vdW  Elec       q    Type
REMARK                         _______ _______ _______ _____ _____    ______ ____
ROOT
ATOM      1  C   UNL     1      -8.066   4.636   0.080  0.00  0.00    +0.135 A 
ATOM      2  C   UNL     1      -8.308   3.264   0.125  0.00  0.00    +0.047 A 
ATOM      3  C   UNL     1      -7.268   2.379   0.126  0.00  0.00    +0.019 A 
ATOM      4  C   UNL     1      -5.956   2.853   0.083  0.00  0.00    +0.068 A 
ATOM      5  C   UNL     1      -5.702   4.235   0.038  0.00  0.00    +0.142 A 
ATOM      6  C   UNL     1      -6.770   5.122   0.037  0.00  0.00    +0.093 A 
ATOM      7  O   UNL     1      -4.430   4.681  -0.004  0.00  0.00    -0.459 OA
ATOM      8  C   UNL     1      -3.378   3.853   0.001  0.00  0.00    +0.245 A 
ATOM      9  C   UNL     1      -3.506   2.511   0.037  0.00  0.00    +0.210 A 
ATOM     10  C   UNL     1      -4.806   1.931   0.083  0.00  0.00    +0.234 A 
ATOM     11  O   UNL     1      -4.961   0.722   0.120  0.00  0.00    -0.283 OA
ENDROOT
BRANCH   1  12
ATOM     12  O   UNL     1      -9.110   5.504   0.079  0.00  0.00    -0.427 OA
BRANCH  12  13
ATOM     13  C   UNL     1      -9.745   5.696   1.247  0.00  0.00    +0.298 C 
ATOM     14  O   UNL     1      -9.438   5.042   2.216  0.00  0.00    -0.252 OA
BRANCH  13  15
ATOM     15  C   UNL     1     -10.839   6.727   1.349  0.00  0.00    +0.039 C 
BRANCH  15  18
ATOM     16  H   UNL     1     -11.723   7.827   2.848  0.00  0.00    -0.089 HD
ATOM     17  H   UNL     1     -11.301   6.285   3.306  0.00  0.00    -0.089 HD
ATOM     18  N   UNL     1     -11.015   7.099   2.764  0.00  0.00    +0.387 N 
ATOM     19  H   UNL     1     -10.125   7.452   3.134  0.00  0.00    -0.089 HD
ENDBRANCH  15  18
BRANCH  15  20
ATOM     20  C   UNL     1     -12.138   6.150   0.783  0.00  0.00    -0.018 C 
ATOM     21  C   UNL     1     -11.930   5.771  -0.685  0.00  0.00    +0.006 C 
BRANCH  20  23
ATOM     22  C   UNL     1     -14.575   6.580   0.436  0.00  0.00    +0.004 C 
ATOM     23  C   UNL     1     -13.249   7.197   0.886  0.00  0.00    -0.001 C 
ENDBRANCH  20  23
ENDBRANCH  15  20
ENDBRANCH  13  15
ENDBRANCH  12  13
ENDBRANCH   1  12
BRANCH   9  24
ATOM     24  O   UNL     1      -2.401   1.717   0.035  0.00  0.00    -0.448 OA
BRANCH  24  25
ATOM     25  C   UNL     1      -1.957   1.245  -1.160  0.00  0.00    +0.147 A 
ATOM     26  C   UNL     1      -2.684   1.488  -2.316  0.00  0.00    +0.049 A 
ATOM     27  C   UNL     1      -2.233   1.002  -3.529  0.00  0.00    +0.023 A 
ATOM     28  C   UNL     1      -1.055   0.280  -3.592  0.00  0.00    +0.043 A 
ATOM     29  C   UNL     1      -0.324   0.042  -2.441  0.00  0.00    +0.043 A 
ATOM     30  C   UNL     1      -0.771   0.525  -1.226  0.00  0.00    +0.085 A 
ATOM     31 CL   UNL     1       0.144   0.226   0.218  0.00  0.00    -0.080 Cl
ATOM     32 CL   UNL     1      -0.492  -0.328  -5.117  0.00  0.00    -0.083 Cl
ENDBRANCH  24  25
ENDBRANCH   9  24
TORSDOF 8
