REMARK  Name = ZINC33143739
REMARK  7 active torsions:
REMARK  status: ('A' for Active; 'I' for Inactive)
REMARK    1  A    between atoms: C_6  and  S_11
REMARK    2  A    between atoms: S_11  and  C_12
REMARK    3  A    between atoms: C_12  and  C_13
REMARK    4  A    between atoms: N_15  and  C_16
REMARK    5  A    between atoms: C_17  and  C_32
REMARK    6  A    between atoms: N_20  and  C_21
REMARK    7  A    between atoms: C_21  and  C_22
REMARK                            x       y       z     vdW  Elec       q    Type
REMARK                         _______ _______ _______ _____ _____    ______ ____
ROOT
ATOM      1  C   UNL     1       7.067  -7.536  -0.028  0.00  0.00    +0.123 A 
ATOM      2  C   UNL     1       7.154  -8.923  -0.027  0.00  0.00    +0.095 A 
ATOM      3  C   UNL     1       8.576  -9.232   0.101  0.00  0.00    -0.007 A 
ATOM      4  C   UNL     1       9.232  -8.057   0.167  0.00  0.00    +0.025 A 
ATOM      5  N   UNL     1       8.327  -7.037   0.083  0.00  0.00    -0.329 N 
ATOM      6  C   UNL     1      10.732  -7.941   0.307  0.00  0.00    +0.054 C 
ATOM      7  C   UNL     1      11.281  -9.294   0.774  0.00  0.00    +0.006 C 
ATOM      8  C   UNL     1      10.732 -10.408  -0.121  0.00  0.00    +0.005 C 
ATOM      9  C   UNL     1       9.233 -10.586   0.152  0.00  0.00    +0.038 C 
ENDROOT
BRANCH   1  12
ATOM     10  C   UNL     1       4.999  -6.811   0.870  0.00  0.00    +0.228 C 
ATOM     11  O   UNL     1       5.207  -7.478   1.861  0.00  0.00    -0.275 OA
ATOM     12  N   UNL     1       5.901  -6.792  -0.131  0.00  0.00    -0.270 N 
ATOM     13  H   UNL     1       5.735  -6.258  -0.924  0.00  0.00    +0.156 HD
BRANCH  10  14
ATOM     14  C   UNL     1       3.731  -6.004   0.757  0.00  0.00    +0.170 C 
BRANCH  14  15
ATOM     15  S   UNL     1       2.731  -6.237   2.252  0.00  0.00    -0.116 S 
BRANCH  15  21
ATOM     16  C   UNL     1      -3.050  -2.814   2.202  0.00  0.00    +0.001 A 
ATOM     17  C   UNL     1      -2.943  -3.530   3.393  0.00  0.00    +0.001 A 
ATOM     18  C   UNL     1      -1.856  -4.308   3.647  0.00  0.00    +0.008 A 
ATOM     19  C   UNL     1      -0.823  -4.393   2.696  0.00  0.00    -0.017 A 
ATOM     20  C   UNL     1       0.312  -5.186   2.926  0.00  0.00    +0.023 A 
ATOM     21  C   UNL     1       1.304  -5.244   1.970  0.00  0.00    +0.009 A 
ATOM     22  C   UNL     1       1.188  -4.520   0.776  0.00  0.00    +0.015 A 
ATOM     23  C   UNL     1       0.098  -3.746   0.532  0.00  0.00    +0.009 A 
ATOM     24  C   UNL     1      -0.932  -3.664   1.485  0.00  0.00    -0.018 A 
ATOM     25  C   UNL     1      -2.070  -2.872   1.259  0.00  0.00    +0.008 A 
ENDBRANCH  15  21
ENDBRANCH  14  15
ENDBRANCH  10  14
ENDBRANCH   1  12
BRANCH   2  26
ATOM     26  C   UNL     1       6.073  -9.857  -0.130  0.00  0.00    +0.103 C 
ATOM     27  N   UNL     1       5.216 -10.598  -0.212  0.00  0.00    -0.191 NA
ENDBRANCH   2  26
BRANCH   5  28
ATOM     28  C   UNL     1       8.665  -5.612   0.114  0.00  0.00    +0.154 C 
BRANCH  28  29
ATOM     29  C   UNL     1       8.804  -5.152   1.566  0.00  0.00    +0.138 C 
ATOM     30  C   UNL     1       9.250  -3.669   1.620  0.00  0.00    +0.035 C 
ATOM     31  C   UNL     1       8.712  -3.249   3.015  0.00  0.00    +0.031 C 
ATOM     32  C   UNL     1       7.415  -4.080   3.130  0.00  0.00    +0.160 C 
ATOM     33  O   UNL     1       7.527  -5.186   2.224  0.00  0.00    -0.375 OA
ENDBRANCH  28  29
ENDBRANCH   5  28
TORSDOF 7
