REMARK  Name = ZINC63746358
REMARK  6 active torsions:
REMARK  status: ('A' for Active; 'I' for Inactive)
REMARK    1  A    between atoms: C_1  and  C_2
REMARK    2  A    between atoms: C_5  and  C_26
REMARK    3  A    between atoms: C_6  and  C_17
REMARK    4  A    between atoms: C_10  and  N_12
REMARK    5  A    between atoms: N_15  and  C_16
REMARK    6  A    between atoms: C_22  and  C_25
REMARK                            x       y       z     vdW  Elec       q    Type
REMARK                         _______ _______ _______ _____ _____    ______ ____
ROOT
ATOM      1  C   UNL     1      -0.071   1.504  -0.042  0.00  0.00    +0.044 C 
ATOM      2  C   UNL     1      -0.039  -0.003  -0.041  0.00  0.00    -0.048 A 
ATOM      3  C   UNL     1      -0.045  -0.655  -1.226  0.00  0.00    +0.013 A 
ATOM      4  C   UNL     1      -0.015  -2.071  -1.263  0.00  0.00    +0.006 A 
ATOM      5  C   UNL     1      -0.014  -2.981  -2.306  0.00  0.00    -0.000 C 
ATOM      6  C   UNL     1       0.026  -4.347  -1.656  0.00  0.00    +0.198 C 
ATOM      7  N   UNL     1       0.047  -4.106  -0.210  0.00  0.00    -0.368 N 
ATOM      8  C   UNL     1       0.023  -2.814   0.011  0.00  0.00    +0.065 A 
ATOM      9  C   UNL     1       0.028  -2.032   1.258  0.00  0.00    +0.059 A 
ATOM     10  C   UNL     1       0.002  -0.674   1.185  0.00  0.00    +0.028 A 
ATOM     11  H   UNL     1       0.073  -4.793   0.474  0.00  0.00    +0.161 HD
ENDROOT
BRANCH   6  12
ATOM     12  C   UNL     1      -1.199  -5.138  -2.035  0.00  0.00    +0.243 C 
ATOM     13  O   UNL     1      -2.166  -5.146  -1.303  0.00  0.00    -0.273 OA
ATOM     14  N   UNL     1      -1.220  -5.837  -3.187  0.00  0.00    -0.299 N 
ATOM     15  C   UNL     1      -0.018  -5.932  -4.027  0.00  0.00    +0.108 C 
ATOM     16  C   UNL     1       0.280  -7.411  -4.296  0.00  0.00    +0.022 C 
ATOM     17  C   UNL     1      -0.961  -8.076  -4.896  0.00  0.00    -0.011 C 
ATOM     18  C   UNL     1      -2.120  -7.990  -3.900  0.00  0.00    +0.022 C 
ATOM     19  C   UNL     1      -2.443  -6.524  -3.624  0.00  0.00    +0.108 C 
ATOM     20  C   UNL     1      -0.656  -9.545  -5.197  0.00  0.00    +0.007 C 
ENDBRANCH   6  12
BRANCH   9  21
ATOM     21  N   UNL     1       0.063  -2.675   2.499  0.00  0.00    -0.268 N 
ATOM     22  C   UNL     1       0.563  -2.037   3.575  0.00  0.00    +0.304 C 
ATOM     23  O   UNL     1       1.077  -0.942   3.448  0.00  0.00    -0.253 OA
ATOM     24  N   UNL     1       0.494  -2.612   4.792  0.00  0.00    -0.302 N 
ATOM     25  C   UNL     1       1.037  -1.917   5.962  0.00  0.00    +0.129 C 
ATOM     26  H   UNL     1      -0.273  -3.582   2.585  0.00  0.00    +0.156 HD
ATOM     27  H   UNL     1       0.084  -3.485   4.893  0.00  0.00    +0.150 HD
ENDBRANCH   9  21
BRANCH   5  28
ATOM     28  C   UNL     1      -0.046  -2.684  -3.739  0.00  0.00    -0.019 A 
ATOM     29  C   UNL     1      -1.267  -2.663  -4.428  0.00  0.00    +0.008 A 
ATOM     30  C   UNL     1      -1.287  -2.383  -5.777  0.00  0.00    +0.001 A 
ATOM     31  C   UNL     1      -0.106  -2.122  -6.452  0.00  0.00    +0.000 A 
ATOM     32  C   UNL     1       1.104  -2.140  -5.780  0.00  0.00    +0.001 A 
ATOM     33  C   UNL     1       1.144  -2.412  -4.430  0.00  0.00    +0.008 A 
ENDBRANCH   5  28
TORSDOF 3
