REMARK  Name = ZINC50851247
REMARK  7 active torsions:
REMARK  status: ('A' for Active; 'I' for Inactive)
REMARK    1  A    between atoms: C_1  and  C_2
REMARK    2  A    between atoms: C_3  and  C_14
REMARK    3  A    between atoms: C_5  and  C_7
REMARK    4  A    between atoms: C_16  and  C_17
REMARK    5  A    between atoms: C_16  and  C_19
REMARK    6  A    between atoms: N_21  and  C_22
REMARK    7  A    between atoms: C_22  and  C_23
REMARK                            x       y       z     vdW  Elec       q    Type
REMARK                         _______ _______ _______ _____ _____    ______ ____
ROOT
ATOM      1  C   UNL     1      -0.018   1.503   0.010  0.00  0.00    +0.067 C 
ATOM      2  C   UNL     1       0.002  -0.004   0.002  0.00  0.00    +0.057 A 
ATOM      3  C   UNL     1       0.006  -0.734  -1.186  0.00  0.00    +0.083 A 
ATOM      4  S   UNL     1       0.032  -2.401  -0.547  0.00  0.00    -0.064 S 
ATOM      5  C   UNL     1       0.035  -2.022   1.093  0.00  0.00    +0.109 A 
ATOM      6  N   UNL     1       0.022  -0.699   1.107  0.00  0.00    -0.244 NA
ENDROOT
BRANCH   5   7
ATOM      7  C   UNL     1       0.052  -2.948   2.244  0.00  0.00    +0.007 A 
ATOM      8  C   UNL     1       0.046  -2.446   3.547  0.00  0.00    +0.012 A 
ATOM      9  C   UNL     1       0.062  -3.316   4.617  0.00  0.00    +0.020 A 
ATOM     10  C   UNL     1       0.085  -4.684   4.402  0.00  0.00    +0.041 A 
ATOM     11  C   UNL     1       0.092  -5.188   3.111  0.00  0.00    +0.020 A 
ATOM     12  C   UNL     1       0.070  -4.329   2.033  0.00  0.00    +0.012 A 
ATOM     13 CL   UNL     1       0.106  -5.772   5.754  0.00  0.00    -0.084 Cl
ENDBRANCH   5   7
BRANCH   3  14
ATOM     14  C   UNL     1      -0.007  -0.279  -2.526  0.00  0.00    +0.217 C 
ATOM     15  O   UNL     1      -0.026   1.045  -2.790  0.00  0.00    -0.285 OA
ATOM     16  C   UNL     1       0.001  -1.200  -3.576  0.00  0.00    +0.161 C 
BRANCH  16  17
ATOM     17  C   UNL     1      -0.013  -0.730  -4.963  0.00  0.00    +0.258 C 
ATOM     18  O   UNL     1      -0.030   0.464  -5.200  0.00  0.00    -0.269 OA
ATOM     19  N   UNL     1      -0.005  -1.619  -5.976  0.00  0.00    -0.307 N 
ATOM     20  H   UNL     1       0.008  -2.570  -5.786  0.00  0.00    +0.149 HD
BRANCH  19  21
ATOM     21  C   UNL     1      -0.019  -1.149  -7.363  0.00  0.00    +0.131 C 
BRANCH  21  22
ATOM     22  C   UNL     1      -0.007  -2.333  -8.295  0.00  0.00    -0.016 C 
ATOM     23  C   UNL     1      -0.940  -2.458  -9.207  0.00  0.00    +0.005 C 
ENDBRANCH  21  22
ENDBRANCH  19  21
ENDBRANCH  16  17
BRANCH  16  24
ATOM     24  C   UNL     1       0.021  -2.605  -3.297  0.00  0.00    +0.108 C 
ATOM     25  N   UNL     1       0.037  -3.719  -3.075  0.00  0.00    -0.191 NA
ENDBRANCH  16  24
ENDBRANCH   3  14
TORSDOF 6
