REMARK  Name = ZINC40906700
REMARK  11 active torsions:
REMARK  status: ('A' for Active; 'I' for Inactive)
REMARK    1  A    between atoms: C_1  and  C_2
REMARK    2  A    between atoms: C_2  and  C_3
REMARK    3  A    between atoms: C_2  and  O_4
REMARK    4  A    between atoms: O_4  and  C_5
REMARK    5  A    between atoms: C_5  and  C_6
REMARK    6  A    between atoms: C_6  and  C_7
REMARK    7  A    between atoms: C_7  and  N_8
REMARK    8  A    between atoms: C_9  and  C_11
REMARK    9  A    between atoms: N_14  and  C_17
REMARK   10  A    between atoms: C_20  and  C_24
REMARK   11  A    between atoms: C_26  and  C_29
REMARK                            x       y       z     vdW  Elec       q    Type
REMARK                         _______ _______ _______ _____ _____    ______ ____
ROOT
ATOM      1  C   UNL     1     -10.072  -5.801  -4.260  0.00  0.00    +0.065 A 
ATOM      2  C   UNL     1     -11.418  -6.039  -4.007  0.00  0.00    +0.027 A 
ATOM      3  C   UNL     1     -12.008  -7.204  -4.449  0.00  0.00    +0.013 A 
ATOM      4  C   UNL     1     -11.255  -8.144  -5.150  0.00  0.00    +0.025 A 
ATOM      5  C   UNL     1      -9.905  -7.905  -5.404  0.00  0.00    +0.052 A 
ATOM      6  C   UNL     1      -9.319  -6.735  -4.965  0.00  0.00    +0.145 A 
ATOM      7  F   UNL     1      -8.012  -6.500  -5.214  0.00  0.00    -0.204 F 
ENDROOT
BRANCH   1  11
ATOM      8  C   UNL     1      -7.428  -2.715  -3.400  0.00  0.00    +0.078 C 
ATOM      9  C   UNL     1      -7.412  -4.046  -2.646  0.00  0.00    +0.031 C 
ATOM     10  C   UNL     1      -8.848  -4.555  -2.486  0.00  0.00    +0.106 C 
ATOM     11  N   UNL     1      -9.477  -4.620  -3.812  0.00  0.00    -0.328 N 
ATOM     12  C   UNL     1      -9.468  -3.419  -4.658  0.00  0.00    +0.106 C 
ATOM     13  C   UNL     1      -8.025  -2.922  -4.794  0.00  0.00    +0.031 C 
BRANCH   8  15
ATOM     14  N   UNL     1      -5.292  -1.935  -2.425  0.00  0.00    -0.315 N 
ATOM     15  C   UNL     1      -6.019  -2.194  -3.530  0.00  0.00    +0.216 C 
ATOM     16  O   UNL     1      -5.541  -2.007  -4.628  0.00  0.00    -0.276 OA
ATOM     17  H   UNL     1      -5.675  -2.084  -1.546  0.00  0.00    +0.149 HD
BRANCH  14  18
ATOM     18  C   UNL     1      -3.923  -1.429  -2.551  0.00  0.00    +0.106 C 
BRANCH  18  19
ATOM     19  C   UNL     1      -3.326  -1.221  -1.157  0.00  0.00    +0.047 C 
BRANCH  19  20
ATOM     20  C   UNL     1      -1.896  -0.693  -1.289  0.00  0.00    +0.161 C 
BRANCH  20  21
ATOM     21  O   UNL     1      -1.339  -0.499   0.012  0.00  0.00    -0.377 OA
BRANCH  21  23
ATOM     22  C   UNL     1      -0.019   1.526   0.010  0.00  0.00    +0.037 C 
ATOM     23  C   UNL     1       0.002  -0.004   0.002  0.00  0.00    +0.112 C 
ATOM     24  C   UNL     1       0.742  -0.511   1.242  0.00  0.00    +0.037 C 
ENDBRANCH  21  23
ENDBRANCH  20  21
ENDBRANCH  19  20
ENDBRANCH  18  19
ENDBRANCH  14  18
ENDBRANCH   8  15
ENDBRANCH   1  11
BRANCH   4  25
ATOM     25  C   UNL     1     -11.889  -9.398  -5.625  0.00  0.00    +0.202 A 
ATOM     26  N   UNL     1     -11.270 -10.378  -6.303  0.00  0.00    -0.187 NA
ATOM     27  C   UNL     1     -12.120 -11.343  -6.570  0.00  0.00    +0.259 A 
ATOM     28  O   UNL     1     -13.317 -11.001  -6.063  0.00  0.00    -0.332 OA
ATOM     29  N   UNL     1     -13.144  -9.734  -5.447  0.00  0.00    -0.056 NA
BRANCH  27  30
ATOM     30  C   UNL     1     -11.812 -12.589  -7.300  0.00  0.00    +0.043 A 
ATOM     31  C   UNL     1     -10.519 -12.824  -7.771  0.00  0.00    +0.017 A 
ATOM     32  C   UNL     1     -10.234 -13.988  -8.452  0.00  0.00    +0.050 A 
ATOM     33  C   UNL     1     -11.229 -14.930  -8.673  0.00  0.00    +0.166 A 
ATOM     34  C   UNL     1     -12.524 -14.701  -8.205  0.00  0.00    +0.167 A 
ATOM     35  C   UNL     1     -12.814 -13.539  -7.516  0.00  0.00    +0.062 A 
ATOM     36  O   UNL     1     -13.305 -15.767  -8.547  0.00  0.00    -0.453 OA
ATOM     37  C   UNL     1     -12.580 -16.459  -9.581  0.00  0.00    +0.466 C 
ATOM     38  O   UNL     1     -11.203 -16.137  -9.307  0.00  0.00    -0.453 OA
ENDBRANCH  27  30
ENDBRANCH   4  25
TORSDOF 9
