REMARK  Name = ZINC06154772
REMARK  8 active torsions:
REMARK  status: ('A' for Active; 'I' for Inactive)
REMARK    1  A    between atoms: C_1  and  C_2
REMARK    2  A    between atoms: C_8  and  N_10
REMARK    3  A    between atoms: C_14  and  C_16
REMARK    4  A    between atoms: C_16  and  S_17
REMARK    5  A    between atoms: S_17  and  C_18
REMARK    6  A    between atoms: C_20  and  C_24
REMARK    7  A    between atoms: C_27  and  O_30
REMARK    8  A    between atoms: O_30  and  C_31
REMARK                            x       y       z     vdW  Elec       q    Type
REMARK                         _______ _______ _______ _____ _____    ______ ____
ROOT
ATOM      1  C   UNL     1       0.083   1.145   7.106  0.00  0.00    +0.173 C 
ENDROOT
BRANCH   1   6
ATOM      2  N   UNL     1       0.056  -0.038   2.447  0.00  0.00    -0.296 N 
ATOM      3  C   UNL     1       0.738   0.093   3.602  0.00  0.00    +0.306 C 
ATOM      4  O   UNL     1       1.921  -0.180   3.644  0.00  0.00    -0.252 OA
ATOM      5  N   UNL     1       0.107   0.528   4.711  0.00  0.00    -0.239 N 
ATOM      6  C   UNL     1       0.789   0.659   5.866  0.00  0.00    +0.231 C 
ATOM      7  O   UNL     1       1.969   0.387   5.908  0.00  0.00    -0.274 OA
ATOM      8  H   UNL     1      -0.888   0.180   2.413  0.00  0.00    +0.151 HD
ATOM      9  H   UNL     1      -0.838   0.746   4.678  0.00  0.00    +0.159 HD
BRANCH   2  16
ATOM     10  C   UNL     1      -0.019   1.526   0.010  0.00  0.00    +0.009 C 
ATOM     11  C   UNL     1       0.002  -0.004   0.002  0.00  0.00    +0.006 C 
ATOM     12  C   UNL     1      -1.433  -0.534   0.013  0.00  0.00    +0.005 C 
ATOM     13  C   UNL     1      -1.413  -2.063   0.004  0.00  0.00    +0.000 C 
ATOM     14  C   UNL     1      -0.673  -2.570   1.244  0.00  0.00    +0.002 C 
ATOM     15  C   UNL     1       0.763  -2.041   1.233  0.00  0.00    +0.022 C 
ATOM     16  C   UNL     1       0.742  -0.511   1.242  0.00  0.00    +0.077 C 
ENDBRANCH   2  16
ENDBRANCH   1   6
BRANCH   1  17
ATOM     17  S   UNL     1       1.261   1.215   8.484  0.00  0.00    -0.077 S 
BRANCH  17  18
ATOM     18  C   UNL     1       0.297   1.793   9.841  0.00  0.00    +0.185 A 
ATOM     19  N   UNL     1      -0.984   2.091   9.807  0.00  0.00    -0.201 NA
ATOM     20  C   UNL     1      -1.384   2.497  11.021  0.00  0.00    +0.182 A 
ATOM     21  N   UNL     1      -0.359   2.460  11.841  0.00  0.00    -0.152 NA
ATOM     22  H   UNL     1       1.645   1.864  11.426  0.00  0.00    +0.191 HD
ATOM     23  N   UNL     1       0.742   2.002  11.099  0.00  0.00    -0.253 N 
BRANCH  20  24
ATOM     24  C   UNL     1      -2.761   2.918  11.378  0.00  0.00    +0.021 A 
ATOM     25  C   UNL     1      -3.767   2.908  10.414  0.00  0.00    +0.015 A 
ATOM     26  C   UNL     1      -5.046   3.300  10.750  0.00  0.00    +0.046 A 
ATOM     27  C   UNL     1      -5.331   3.705  12.047  0.00  0.00    +0.120 A 
ATOM     28  C   UNL     1      -4.331   3.717  13.009  0.00  0.00    +0.046 A 
ATOM     29  C   UNL     1      -3.052   3.320  12.681  0.00  0.00    +0.015 A 
BRANCH  27  30
ATOM     30  O   UNL     1      -6.592   4.092  12.374  0.00  0.00    -0.495 OA
ATOM     31  C   UNL     1      -6.816   4.497  13.726  0.00  0.00    +0.277 C 
ENDBRANCH  27  30
ENDBRANCH  20  24
ENDBRANCH  17  18
ENDBRANCH   1  17
TORSDOF 6
