REMARK  Name = ZINC66244530
REMARK  4 active torsions:
REMARK  status: ('A' for Active; 'I' for Inactive)
REMARK    1  A    between atoms: C_4  and  N_7
REMARK    2  A    between atoms: N_10  and  C_11
REMARK    3  A    between atoms: C_11  and  C_12
REMARK    4  A    between atoms: N_16  and  C_18
REMARK                            x       y       z     vdW  Elec       q    Type
REMARK                         _______ _______ _______ _____ _____    ______ ____
ROOT
ATOM      1  N   UNL     1       3.621  -0.651  -0.032  0.00  0.00    -0.328 N 
ATOM      2  C   UNL     1       3.638  -2.022  -0.149  0.00  0.00    +0.173 C 
ATOM      3  N   UNL     1       2.518  -2.683  -0.239  0.00  0.00    -0.371 N 
ATOM      4  N   UNL     1       4.837  -2.695  -0.171  0.00  0.00    -0.357 N 
ATOM      5  H   UNL     1       2.778  -0.184   0.075  0.00  0.00    +0.169 HD
ATOM      6  H   UNL     1       2.526  -3.653  -0.244  0.00  0.00    +0.159 HD
ATOM      7  H   UNL     1       5.671  -2.204  -0.104  0.00  0.00    +0.162 HD
ATOM      8  H   UNL     1       1.677  -2.204  -0.301  0.00  0.00    +0.159 HD
ENDROOT
BRANCH   1  12
ATOM      9  C   UNL     1       7.190   1.494  -0.139  0.00  0.00    +0.000 A 
ATOM     10  C   UNL     1       7.000   0.428  -0.998  0.00  0.00    +0.002 A 
ATOM     11  C   UNL     1       5.818  -0.285  -0.965  0.00  0.00    +0.026 A 
ATOM     12  C   UNL     1       4.820   0.069  -0.067  0.00  0.00    +0.042 A 
ATOM     13  C   UNL     1       5.014   1.141   0.795  0.00  0.00    +0.026 A 
ATOM     14  C   UNL     1       6.198   1.850   0.757  0.00  0.00    +0.002 A 
ENDBRANCH   1  12
BRANCH   4  15
ATOM     15  C   UNL     1       4.855  -4.155  -0.295  0.00  0.00    +0.120 C 
BRANCH  15  16
ATOM     16  C   UNL     1       6.303  -4.649  -0.294  0.00  0.00    +0.027 C 
ATOM     17  C   UNL     1       6.951  -4.448   1.101  0.00  0.00    +0.025 C 
ATOM     18  C   UNL     1       8.037  -5.553   1.102  0.00  0.00    +0.105 C 
ATOM     19  N   UNL     1       7.418  -6.691   0.398  0.00  0.00    -0.330 N 
ATOM     20  C   UNL     1       6.359  -6.179  -0.489  0.00  0.00    +0.110 C 
BRANCH  19  21
ATOM     21  C   UNL     1       7.779  -8.032   0.544  0.00  0.00    +0.030 A 
ATOM     22  C   UNL     1       7.120  -9.014  -0.185  0.00  0.00    +0.024 A 
ATOM     23  C   UNL     1       7.479 -10.339  -0.039  0.00  0.00    +0.017 A 
ATOM     24  C   UNL     1       8.495 -10.690   0.832  0.00  0.00    +0.018 A 
ATOM     25  C   UNL     1       9.154  -9.715   1.560  0.00  0.00    +0.017 A 
ATOM     26  C   UNL     1       8.803  -8.387   1.413  0.00  0.00    +0.024 A 
ATOM     27 BR   UNL     1       8.983 -12.506   1.030  0.00  0.00    -0.050 Br
ENDBRANCH  19  21
ENDBRANCH  15  16
ENDBRANCH   4  15
TORSDOF 4
