REMARK  Name = ZINC54615143
REMARK  10 active torsions:
REMARK  status: ('A' for Active; 'I' for Inactive)
REMARK    1  A    between atoms: C_1  and  C_2
REMARK    2  A    between atoms: C_6  and  N_9
REMARK    3  A    between atoms: C_7  and  C_8
REMARK    4  A    between atoms: C_10  and  C_12
REMARK    5  A    between atoms: C_13  and  C_32
REMARK    6  A    between atoms: C_20  and  C_22
REMARK    7  A    between atoms: C_25  and  O_28
REMARK    8  A    between atoms: O_28  and  C_29
REMARK    9  A    between atoms: C_29  and  C_30
REMARK   10  A    between atoms: C_29  and  C_31
REMARK                            x       y       z     vdW  Elec       q    Type
REMARK                         _______ _______ _______ _____ _____    ______ ____
ROOT
ATOM      1  C   UNL     1       0.137  -4.700   3.708  0.00  0.00    +0.060 C 
ATOM      2  C   UNL     1       0.216  -6.037   3.772  0.00  0.00    +0.018 C 
ATOM      3  N   UNL     1       0.253  -6.712   4.967  0.00  0.00    -0.287 N 
ATOM      4  C   UNL     1      -0.057  -5.995   6.115  0.00  0.00    +0.218 A 
ATOM      5  N   UNL     1      -0.311  -6.412   7.325  0.00  0.00    -0.201 NA
ATOM      6  C   UNL     1      -0.565  -5.364   8.115  0.00  0.00    +0.247 A 
ATOM      7  N   UNL     1      -0.471  -4.262   7.412  0.00  0.00    -0.156 NA
ATOM      8  N   UNL     1      -0.140  -4.642   6.113  0.00  0.00    -0.221 N 
ATOM      9  C   UNL     1       0.101  -3.820   4.928  0.00  0.00    +0.177 C 
ATOM     10  C   UNL     1       0.266  -6.826   2.488  0.00  0.00    +0.061 C 
ATOM     11  H   UNL     1       0.485  -7.653   5.008  0.00  0.00    +0.155 HD
ENDROOT
BRANCH   9  12
ATOM     12  C   UNL     1       1.417  -3.100   5.069  0.00  0.00    -0.018 A 
ATOM     13  C   UNL     1       2.587  -3.824   5.208  0.00  0.00    +0.009 A 
ATOM     14  C   UNL     1       3.796  -3.167   5.337  0.00  0.00    +0.046 A 
ATOM     15  C   UNL     1       3.835  -1.780   5.327  0.00  0.00    +0.121 A 
ATOM     16  C   UNL     1       2.659  -1.057   5.188  0.00  0.00    +0.046 A 
ATOM     17  C   UNL     1       1.454  -1.718   5.053  0.00  0.00    +0.009 A 
BRANCH  15  18
ATOM     18  O   UNL     1       5.022  -1.132   5.455  0.00  0.00    -0.489 OA
BRANCH  18  19
ATOM     19  C   UNL     1       6.203  -1.937   5.474  0.00  0.00    +0.167 C 
ATOM     20  C   UNL     1       7.396  -1.104   5.004  0.00  0.00    +0.051 C 
ATOM     21  C   UNL     1       6.457  -2.436   6.898  0.00  0.00    +0.051 C 
ENDBRANCH  18  19
ENDBRANCH  15  18
ENDBRANCH   9  12
BRANCH   1  23
ATOM     22  N   UNL     1       1.194  -4.064   1.658  0.00  0.00    -0.281 N 
ATOM     23  C   UNL     1       0.092  -4.088   2.433  0.00  0.00    +0.248 C 
ATOM     24  O   UNL     1      -0.942  -3.581   2.037  0.00  0.00    -0.270 OA
ATOM     25  H   UNL     1       2.002  -4.517   1.948  0.00  0.00    +0.155 HD
BRANCH  22  31
ATOM     26  C   UNL     1       3.527  -1.366  -1.725  0.00  0.00    +0.044 C 
ATOM     27  C   UNL     1       2.291  -2.071  -1.230  0.00  0.00    -0.046 A 
ATOM     28  C   UNL     1       1.133  -2.049  -1.987  0.00  0.00    +0.004 A 
ATOM     29  C   UNL     1      -0.004  -2.694  -1.536  0.00  0.00    +0.002 A 
ATOM     30  C   UNL     1       0.013  -3.364  -0.328  0.00  0.00    +0.023 A 
ATOM     31  C   UNL     1       1.174  -3.388   0.434  0.00  0.00    +0.037 A 
ATOM     32  C   UNL     1       2.316  -2.743  -0.024  0.00  0.00    -0.026 A 
ATOM     33  C   UNL     1       3.579  -2.772   0.797  0.00  0.00    +0.046 C 
ENDBRANCH  22  31
ENDBRANCH   1  23
TORSDOF 5
