REMARK  Name = ZINC36596621
REMARK  13 active torsions:
REMARK  status: ('A' for Active; 'I' for Inactive)
REMARK    1  A    between atoms: C_1  and  C_2
REMARK    2  A    between atoms: C_7  and  C_8
REMARK    3  A    between atoms: C_8  and  C_10
REMARK    4  A    between atoms: C_8  and  N_17
REMARK    5  A    between atoms: N_12  and  C_13
REMARK    6  A    between atoms: C_13  and  C_14
REMARK    7  A    between atoms: C_13  and  C_15
REMARK    8  A    between atoms: C_13  and  C_16
REMARK    9  A    between atoms: N_17  and  C_18
REMARK   10  A    between atoms: C_18  and  C_19
REMARK   11  A    between atoms: C_22  and  C_24
REMARK   12  A    between atoms: C_25  and  C_27
REMARK   13  A    between atoms: C_29  and  N_34
REMARK                            x       y       z     vdW  Elec       q    Type
REMARK                         _______ _______ _______ _____ _____    ______ ____
ROOT
ATOM      1  N   UNL     1       0.385  -0.812   2.736  0.00  0.00    -0.275 N 
ATOM      2  C   UNL     1       0.175  -0.877   4.066  0.00  0.00    +0.252 C 
ATOM      3  O   UNL     1      -0.169  -1.925   4.576  0.00  0.00    -0.270 OA
ENDROOT
BRANCH   2   4
ATOM      4  C   UNL     1       0.364   0.324   4.902  0.00  0.00    +0.086 A 
ATOM      5  C   UNL     1       0.399   1.591   4.315  0.00  0.00    +0.049 A 
ATOM      6  C   UNL     1       0.575   2.708   5.101  0.00  0.00    +0.127 A 
ATOM      7  C   UNL     1       0.719   2.582   6.473  0.00  0.00    +0.036 A 
ATOM      8  C   UNL     1       0.687   1.335   7.067  0.00  0.00    +0.054 A 
ATOM      9  C   UNL     1       0.504   0.200   6.291  0.00  0.00    +0.191 A 
ATOM     10  O   UNL     1       0.467  -1.024   6.873  0.00  0.00    -0.287 OA
BRANCH   6  11
ATOM     11  N   UNL     1       0.612   4.050   4.477  0.00  0.00    +0.056 N 
ATOM     12  O   UNL     1       0.340   4.180   3.307  0.00  0.00    -0.126 OA
ATOM     13  O   UNL     1       0.914   5.016   5.139  0.00  0.00    -0.126 OA
ENDBRANCH   6  11
ENDBRANCH   2   4
BRANCH   1  14
ATOM     14  C   UNL     1       0.946   0.404   2.142  0.00  0.00    +0.193 C 
BRANCH  14  21
ATOM     15  C   UNL     1      -0.793   0.211  -0.157  0.00  0.00    +0.044 C 
ATOM     16  C   UNL     1       0.689  -0.011  -0.313  0.00  0.00    -0.045 A 
ATOM     17  C   UNL     1       1.218  -0.301  -1.557  0.00  0.00    +0.004 A 
ATOM     18  C   UNL     1       2.577  -0.504  -1.700  0.00  0.00    +0.000 A 
ATOM     19  C   UNL     1       3.409  -0.417  -0.599  0.00  0.00    +0.000 A 
ATOM     20  C   UNL     1       2.881  -0.126   0.644  0.00  0.00    +0.006 A 
ATOM     21  C   UNL     1       1.521   0.082   0.787  0.00  0.00    -0.015 A 
ENDBRANCH  14  21
BRANCH  14  22
ATOM     22  C   UNL     1       2.034   0.943   3.034  0.00  0.00    +0.239 C 
ATOM     23  O   UNL     1       2.397   0.307   4.000  0.00  0.00    -0.273 OA
ATOM     24  N   UNL     1       2.604   2.133   2.758  0.00  0.00    -0.309 N 
ATOM     25  H   UNL     1       2.264   2.677   2.030  0.00  0.00    +0.149 HD
BRANCH  24  26
ATOM     26  C   UNL     1       3.738   2.605   3.556  0.00  0.00    +0.026 C 
ATOM     27  C   UNL     1       4.909   1.632   3.405  0.00  0.00    +0.031 C 
ATOM     28  C   UNL     1       4.162   3.993   3.070  0.00  0.00    +0.031 C 
ATOM     29  C   UNL     1       3.327   2.684   5.028  0.00  0.00    +0.031 C 
ENDBRANCH  24  26
ENDBRANCH  14  22
ENDBRANCH   1  14
BRANCH   1  30
ATOM     30  C   UNL     1       0.052  -1.957   1.885  0.00  0.00    +0.183 C 
BRANCH  30  31
ATOM     31  C   UNL     1       1.249  -2.866   1.774  0.00  0.00    +0.122 A 
ATOM     32  C   UNL     1       1.532  -3.897   2.591  0.00  0.00    +0.046 A 
ATOM     33  C   UNL     1       2.738  -4.469   2.125  0.00  0.00    +0.045 A 
ATOM     34  C   UNL     1       3.120  -3.753   1.052  0.00  0.00    +0.102 A 
ATOM     35  O   UNL     1       2.211  -2.787   0.841  0.00  0.00    -0.463 OA
ATOM     36  C   UNL     1       4.355  -3.998   0.224  0.00  0.00    +0.086 C 
ENDBRANCH  30  31
ENDBRANCH   1  30
TORSDOF 8
