REMARK  Name = ZINC36629971
REMARK  2 active torsions:
REMARK  status: ('A' for Active; 'I' for Inactive)
REMARK    1  A    between atoms: C_2  and  C_8
REMARK    2  A    between atoms: C_14  and  C_16
REMARK                            x       y       z     vdW  Elec       q    Type
REMARK                         _______ _______ _______ _____ _____    ______ ____
ROOT
ATOM      1  C   UNL     1       1.300   3.519   0.008  0.00  0.00    +0.252 A 
ATOM      2  N   UNL     1       0.275   4.337   0.028  0.00  0.00    -0.106 NA
ATOM      3  N   UNL     1       0.698   5.552   0.028  0.00  0.00    -0.092 NA
ATOM      4  C   UNL     1       2.007   5.559   0.008  0.00  0.00    +0.314 A 
ATOM      5  O   UNL     1       2.419   4.276   0.001  0.00  0.00    -0.405 OA
ATOM      6  N   UNL     1       2.821   6.682   0.002  0.00  0.00    -0.238 N 
ATOM      7  C   UNL     1       2.272   7.913   0.017  0.00  0.00    +0.224 C 
ATOM      8  O   UNL     1       1.066   8.039   0.036  0.00  0.00    -0.275 OA
ATOM      9  H   UNL     1       3.786   6.582  -0.013  0.00  0.00    +0.159 HD
ENDROOT
BRANCH   1  11
ATOM     10  C   UNL     1      -0.016   1.346   0.009  0.00  0.00    +0.042 A 
ATOM     11  C   UNL     1       1.242   2.043   0.001  0.00  0.00    +0.065 A 
ATOM     12  C   UNL     1       2.385   1.288  -0.014  0.00  0.00    +0.092 A 
ATOM     13  S   UNL     1       1.746  -0.377  -0.017  0.00  0.00    -0.064 S 
ATOM     14  C   UNL     1       0.002  -0.004   0.002  0.00  0.00    +0.080 A 
ATOM     15 CL   UNL     1      -1.340  -1.105   0.009  0.00  0.00    -0.076 Cl
ATOM     16 CL   UNL     1       4.038   1.818  -0.027  0.00  0.00    -0.075 Cl
ENDBRANCH   1  11
BRANCH   7  17
ATOM     17  C   UNL     1       3.157   9.133   0.011  0.00  0.00    +0.075 C 
ATOM     18  C   UNL     1       4.059   9.115   1.246  0.00  0.00    +0.013 C 
ATOM     19  C   UNL     1       4.957  10.354   1.240  0.00  0.00    +0.001 C 
ATOM     20  C   UNL     1       4.089  11.614   1.260  0.00  0.00    +0.000 C 
ATOM     21  C   UNL     1       3.187  11.631   0.024  0.00  0.00    +0.001 C 
ATOM     22  C   UNL     1       2.289  10.392   0.031  0.00  0.00    +0.013 C 
ENDBRANCH   7  17
TORSDOF 2
