REMARK  Name = ZINC35739137
REMARK  6 active torsions:
REMARK  status: ('A' for Active; 'I' for Inactive)
REMARK    1  A    between atoms: C_1  and  C_2
REMARK    2  A    between atoms: C_2  and  C_4
REMARK    3  A    between atoms: C_2  and  N_9
REMARK    4  A    between atoms: N_9  and  S_10
REMARK    5  A    between atoms: S_10  and  C_13
REMARK    6  A    between atoms: C_18  and  N_19
REMARK                            x       y       z     vdW  Elec       q    Type
REMARK                         _______ _______ _______ _____ _____    ______ ____
ROOT
ATOM      1  S   UNL     1      -2.190  -0.795  -1.434  0.00  0.00    +0.061 S 
ATOM      2  O   UNL     1      -3.547  -1.157  -1.215  0.00  0.00    -0.153 OA
ATOM      3  O   UNL     1      -1.819   0.338  -2.208  0.00  0.00    -0.153 OA
ENDROOT
BRANCH   1   4
ATOM      4  C   UNL     1      -1.411  -2.190  -2.178  0.00  0.00    +0.126 A 
ATOM      5  C   UNL     1      -0.651  -2.029  -3.320  0.00  0.00    +0.033 A 
ATOM      6  C   UNL     1      -0.039  -3.122  -3.904  0.00  0.00    +0.040 A 
ATOM      7  C   UNL     1      -0.186  -4.382  -3.347  0.00  0.00    +0.125 A 
ATOM      8  C   UNL     1      -0.946  -4.548  -2.204  0.00  0.00    +0.063 A 
ATOM      9  C   UNL     1      -1.557  -3.450  -1.612  0.00  0.00    +0.054 A 
ATOM     10  F   UNL     1       0.414  -5.448  -3.921  0.00  0.00    -0.205 F 
BRANCH   9  11
ATOM     11  N   UNL     1      -2.320  -3.614  -0.454  0.00  0.00    -0.356 N 
ATOM     12  H   UNL     1      -2.681  -2.837   0.002  0.00  0.00    +0.142 HD
ATOM     13  H   UNL     1      -2.490  -4.503  -0.107  0.00  0.00    +0.142 HD
ENDBRANCH   9  11
ENDBRANCH   1   4
BRANCH   1  14
ATOM     14  N   UNL     1      -1.507  -0.592   0.060  0.00  0.00    -0.180 NA
ATOM     15  H   UNL     1      -2.045  -0.704   0.859  0.00  0.00    +0.149 HD
BRANCH  14  17
ATOM     16  C   UNL     1       0.051   1.275   0.325  0.00  0.00    +0.034 C 
ATOM     17  C   UNL     1      -0.089  -0.241   0.176  0.00  0.00    +0.139 C 
BRANCH  17  18
ATOM     18  C   UNL     1       0.499  -0.922   1.385  0.00  0.00    +0.123 A 
ATOM     19  C   UNL     1       1.720  -1.482   1.457  0.00  0.00    +0.046 A 
ATOM     20  C   UNL     1       1.858  -1.999   2.765  0.00  0.00    +0.041 A 
ATOM     21  C   UNL     1       0.713  -1.724   3.415  0.00  0.00    +0.195 A 
ATOM     22  O   UNL     1      -0.104  -1.067   2.576  0.00  0.00    -0.466 OA
ENDBRANCH  17  18
ENDBRANCH  14  17
ENDBRANCH   1  14
TORSDOF 5
