REMARK  Name = ZINC49513010
REMARK  8 active torsions:
REMARK  status: ('A' for Active; 'I' for Inactive)
REMARK    1  A    between atoms: C_1  and  N_2
REMARK    2  A    between atoms: C_6  and  C_7
REMARK    3  A    between atoms: C_7  and  C_9
REMARK    4  A    between atoms: C_7  and  N_26
REMARK    5  A    between atoms: C_9  and  N_10
REMARK    6  A    between atoms: C_11  and  C_13
REMARK    7  A    between atoms: N_15  and  C_16
REMARK    8  A    between atoms: C_21  and  C_22
REMARK                            x       y       z     vdW  Elec       q    Type
REMARK                         _______ _______ _______ _____ _____    ______ ____
ROOT
ATOM      1  N   UNL     1       1.494   0.386   4.373  0.00  0.00    -0.309 N 
ATOM      2  C   UNL     1       2.531   1.023   4.952  0.00  0.00    +0.299 C 
ATOM      3  O   UNL     1       3.421   1.481   4.266  0.00  0.00    -0.265 OA
ATOM      4  H   UNL     1       0.782   0.020   4.921  0.00  0.00    +0.149 HD
ENDROOT
BRANCH   2   5
ATOM      5  C   UNL     1       2.583   1.167   6.437  0.00  0.00    +0.303 C 
ATOM      6  O   UNL     1       1.693   0.710   7.123  0.00  0.00    -0.265 OA
ATOM      7  N   UNL     1       3.620   1.805   7.016  0.00  0.00    -0.277 N 
ATOM      8  H   UNL     1       4.287   2.245   6.466  0.00  0.00    +0.155 HD
BRANCH   7   9
ATOM      9  C   UNL     1       3.733   1.833   8.409  0.00  0.00    +0.045 A 
ATOM     10  C   UNL     1       3.241   0.780   9.169  0.00  0.00    +0.024 A 
ATOM     11  C   UNL     1       3.355   0.811  10.544  0.00  0.00    +0.002 A 
ATOM     12  C   UNL     1       3.958   1.889  11.166  0.00  0.00    +0.001 A 
ATOM     13  C   UNL     1       4.449   2.939  10.412  0.00  0.00    +0.014 A 
ATOM     14  C   UNL     1       4.344   2.912   9.036  0.00  0.00    +0.076 A 
BRANCH  14  15
ATOM     15  C   UNL     1       4.886   4.054   8.215  0.00  0.00    +0.419 C 
ATOM     16  F   UNL     1       5.449   5.012   9.064  0.00  0.00    -0.166 F 
ATOM     17  F   UNL     1       5.865   3.575   7.338  0.00  0.00    -0.166 F 
ATOM     18  F   UNL     1       3.846   4.635   7.481  0.00  0.00    -0.166 F 
ENDBRANCH  14  15
ENDBRANCH   7   9
ENDBRANCH   2   5
BRANCH   1  19
ATOM     19  C   UNL     1       1.442   0.244   2.916  0.00  0.00    +0.095 C 
BRANCH  19  20
ATOM     20  C   UNL     1       0.249  -0.632   2.530  0.00  0.00    -0.003 C 
BRANCH  20  21
ATOM     21  N   UNL     1       0.439  -1.984   3.072  0.00  0.00    +0.386 N 
ATOM     22  C   UNL     1       0.256  -1.938   4.535  0.00  0.00    -0.078 C 
ATOM     23  C   UNL     1      -0.150  -3.312   5.006  0.00  0.00    -0.019 C 
ATOM     24  C   UNL     1       1.064  -4.118   5.504  0.00  0.00    -0.002 C 
ATOM     25  C   UNL     1       2.297  -3.914   4.600  0.00  0.00    -0.002 C 
ATOM     26  C   UNL     1       1.940  -3.904   3.136  0.00  0.00    -0.019 C 
ATOM     27  C   UNL     1       1.698  -2.448   2.686  0.00  0.00    -0.078 C 
ATOM     28  H   UNL     1      -0.265  -2.591   2.679  0.00  0.00    -0.081 HD
ENDBRANCH  20  21
BRANCH  20  34
ATOM     29  C   UNL     1       0.084   1.772   0.580  0.00  0.00    +0.148 C 
ATOM     30  N   UNL     1       0.070   0.363   0.181  0.00  0.00    -0.355 N 
ATOM     31  C   UNL     1      -0.011  -0.100  -1.099  0.00  0.00    +0.085 A 
ATOM     32  C   UNL     1       0.003  -1.448  -1.061  0.00  0.00    +0.019 A 
ATOM     33  C   UNL     1       0.097  -1.831   0.292  0.00  0.00    +0.021 A 
ATOM     34  C   UNL     1       0.142  -0.703   1.028  0.00  0.00    +0.006 A 
ENDBRANCH  20  34
ENDBRANCH  19  20
ENDBRANCH   1  19
TORSDOF 7
