REMARK  Name = ZINC12798602
REMARK  11 active torsions:
REMARK  status: ('A' for Active; 'I' for Inactive)
REMARK    1  A    between atoms: C_1  and  C_2
REMARK    2  A    between atoms: C_5  and  N_8
REMARK    3  A    between atoms: C_9  and  C_11
REMARK    4  A    between atoms: C_11  and  C_12
REMARK    5  A    between atoms: C_14  and  C_17
REMARK    6  A    between atoms: C_17  and  N_60
REMARK    7  A    between atoms: C_18  and  C_20
REMARK    8  A    between atoms: C_18  and  C_30
REMARK    9  A    between atoms: C_18  and  N_60
REMARK   10  A    between atoms: C_30  and  C_31
REMARK   11  A    between atoms: C_30  and  C_32
REMARK                            x       y       z     vdW  Elec       q    Type
REMARK                         _______ _______ _______ _____ _____    ______ ____
ROOT
ATOM      1  C   UNL     1      -5.354  -1.751   1.378  0.00  0.00    -0.025 C 
ENDROOT
BRANCH   1   4
ATOM      2  C   UNL     1      -6.683  -0.149   4.410  0.00  0.00    +0.087 A 
ATOM      3  N   UNL     1      -5.892  -0.771   3.566  0.00  0.00    -0.250 NA
ATOM      4  C   UNL     1      -6.273  -1.035   2.334  0.00  0.00    +0.032 A 
ATOM      5  C   UNL     1      -7.512  -0.641   1.944  0.00  0.00    +0.068 A 
ATOM      6  S   UNL     1      -8.104   0.119   3.449  0.00  0.00    -0.080 S 
BRANCH   2   7
ATOM      7  C   UNL     1      -6.423   0.235   5.844  0.00  0.00    +0.159 C 
BRANCH   7   9
ATOM      8  N   UNL     1      -5.492   2.164   7.080  0.00  0.00    -0.285 N 
ATOM      9  C   UNL     1      -5.811   1.611   5.893  0.00  0.00    +0.224 C 
ATOM     10  O   UNL     1      -5.605   2.220   4.865  0.00  0.00    -0.275 OA
ATOM     11  H   UNL     1      -5.581   1.647   7.896  0.00  0.00    +0.155 HD
BRANCH   8  16
ATOM     12  C   UNL     1      -3.629   7.518   7.305  0.00  0.00    +0.044 C 
ATOM     13  C   UNL     1      -4.124   6.096   7.245  0.00  0.00    -0.050 A 
ATOM     14  C   UNL     1      -5.073   5.734   6.307  0.00  0.00    +0.005 A 
ATOM     15  C   UNL     1      -5.529   4.432   6.250  0.00  0.00    +0.023 A 
ATOM     16  C   UNL     1      -5.032   3.484   7.135  0.00  0.00    +0.033 A 
ATOM     17  C   UNL     1      -4.082   3.852   8.079  0.00  0.00    +0.023 A 
ATOM     18  C   UNL     1      -3.627   5.155   8.128  0.00  0.00    +0.005 A 
ENDBRANCH   8  16
ENDBRANCH   7   9
ENDBRANCH   2   7
ENDBRANCH   1   4
BRANCH   1  19
ATOM     19  N   UNL     1      -4.461  -0.766   0.738  0.00  0.00    +0.387 N 
ATOM     20  H   UNL     1      -3.971  -0.231   1.465  0.00  0.00    -0.084 HD
ATOM     21  H   UNL     1      -5.019  -0.127   0.161  0.00  0.00    -0.084 HD
BRANCH  19  22
ATOM     22  C   UNL     1      -3.470  -1.452  -0.113  0.00  0.00    -0.038 C 
BRANCH  22  23
ATOM     23  C   UNL     1      -2.207  -0.632  -0.160  0.00  0.00    -0.057 A 
ATOM     24  C   UNL     1      -2.281   0.746  -0.243  0.00  0.00    +0.006 A 
ATOM     25  C   UNL     1      -1.124   1.501  -0.290  0.00  0.00    +0.049 A 
ATOM     26  C   UNL     1       0.115   0.878  -0.249  0.00  0.00    +0.162 A 
ATOM     27  C   UNL     1       0.189  -0.507  -0.164  0.00  0.00    +0.162 A 
ATOM     28  C   UNL     1      -0.976  -1.259  -0.121  0.00  0.00    +0.051 A 
ATOM     29  O   UNL     1       1.394  -1.139  -0.122  0.00  0.00    -0.485 OA
ATOM     30  C   UNL     1       2.533  -0.381  -0.545  0.00  0.00    +0.270 C 
ATOM     31  C   UNL     1       2.461   1.003   0.116  0.00  0.00    +0.270 C 
ATOM     32  O   UNL     1       1.245   1.635  -0.298  0.00  0.00    -0.485 OA
ENDBRANCH  22  23
BRANCH  22  33
ATOM     33  C   UNL     1      -4.032  -1.604  -1.528  0.00  0.00    -0.027 C 
ATOM     34  C   UNL     1      -4.329  -0.221  -2.111  0.00  0.00    +0.006 C 
ATOM     35  C   UNL     1      -3.006  -2.320  -2.410  0.00  0.00    +0.006 C 
ENDBRANCH  22  33
ENDBRANCH  19  22
ENDBRANCH   1  19
TORSDOF 8
