REMARK  Name = ZINC38681641
REMARK  15 active torsions:
REMARK  status: ('A' for Active; 'I' for Inactive)
REMARK    1  A    between atoms: C_1  and  C_2
REMARK    2  A    between atoms: C_2  and  C_3
REMARK    3  A    between atoms: C_3  and  O_4
REMARK    4  A    between atoms: O_4  and  C_5
REMARK    5  A    between atoms: C_10  and  C_11
REMARK    6  A    between atoms: C_16  and  O_25
REMARK    7  A    between atoms: C_20  and  N_24
REMARK    8  A    between atoms: C_21  and  C_22
REMARK    9  A    between atoms: O_25  and  C_26
REMARK   10  A    between atoms: C_26  and  C_28
REMARK   11  A    between atoms: C_31  and  O_34
REMARK   12  A    between atoms: O_34  and  C_35
REMARK   13  A    between atoms: C_35  and  C_36
REMARK   14  A    between atoms: C_36  and  C_37
REMARK   15  A    between atoms: C_36  and  C_38
REMARK                            x       y       z     vdW  Elec       q    Type
REMARK                         _______ _______ _______ _____ _____    ______ ____
ROOT
ATOM      1  C   UNL     1      -1.412  -4.735  -0.046  0.00  0.00    +0.101 C 
ATOM      2  C   UNL     1      -1.373  -5.604  -1.276  0.00  0.00    +0.008 A 
ATOM      3  C   UNL     1      -1.162  -5.022  -2.513  0.00  0.00    +0.012 A 
ATOM      4  C   UNL     1      -1.123  -5.803  -3.651  0.00  0.00    +0.047 A 
ATOM      5  C   UNL     1      -1.296  -7.177  -3.556  0.00  0.00    +0.135 A 
ATOM      6  C   UNL     1      -1.508  -7.762  -2.318  0.00  0.00    +0.093 A 
ATOM      7  C   UNL     1      -1.548  -6.975  -1.175  0.00  0.00    +0.138 A 
ATOM      8  O   UNL     1      -1.756  -7.563   0.029  0.00  0.00    -0.441 OA
ATOM      9  C   UNL     1      -1.420  -6.916   1.158  0.00  0.00    +0.199 C 
ATOM     10  C   UNL     1      -1.244  -5.577   1.187  0.00  0.00    +0.098 C 
ENDROOT
BRANCH   1  16
ATOM     11  C   UNL     1      -2.775  -2.631   0.004  0.00  0.00    +0.125 A 
ATOM     12  C   UNL     1      -3.996  -1.973   0.056  0.00  0.00    +0.046 A 
ATOM     13  C   UNL     1      -5.168  -2.700   0.125  0.00  0.00    +0.004 A 
ATOM     14  C   UNL     1      -5.126  -4.082   0.142  0.00  0.00    +0.001 A 
ATOM     15  C   UNL     1      -3.911  -4.740   0.091  0.00  0.00    +0.008 A 
ATOM     16  C   UNL     1      -2.736  -4.017   0.016  0.00  0.00    +0.007 A 
BRANCH  11  17
ATOM     17  O   UNL     1      -1.621  -1.918  -0.065  0.00  0.00    -0.492 OA
BRANCH  17  18
ATOM     18  C   UNL     1      -1.737  -0.493  -0.073  0.00  0.00    +0.229 C 
BRANCH  18  20
ATOM     19  C   UNL     1      -0.468   1.657  -0.162  0.00  0.00    +0.007 C 
ATOM     20  C   UNL     1      -0.343   0.132  -0.153  0.00  0.00    +0.038 C 
ENDBRANCH  18  20
ENDBRANCH  17  18
ENDBRANCH  11  17
ENDBRANCH   1  16
BRANCH   9  21
ATOM     21  N   UNL     1      -1.253  -7.636   2.314  0.00  0.00    -0.328 N 
ATOM     22  H   UNL     1      -1.377  -8.598   2.308  0.00  0.00    +0.145 HD
ATOM     23  H   UNL     1      -1.011  -7.184   3.137  0.00  0.00    +0.145 HD
ENDBRANCH   9  21
BRANCH  10  24
ATOM     24  C   UNL     1      -0.888  -4.947   2.423  0.00  0.00    +0.101 C 
ATOM     25  N   UNL     1      -0.605  -4.448   3.404  0.00  0.00    -0.191 NA
ENDBRANCH  10  24
BRANCH   5  26
ATOM     26  O   UNL     1      -1.258  -7.947  -4.675  0.00  0.00    -0.422 OA
BRANCH  26  27
ATOM     27  C   UNL     1      -0.074  -8.092  -5.303  0.00  0.00    +0.344 C 
ATOM     28  O   UNL     1       0.936  -7.631  -4.810  0.00  0.00    -0.245 OA
BRANCH  27  29
ATOM     29  C   UNL     1      -0.005  -8.812  -6.589  0.00  0.00    +0.060 A 
ATOM     30  C   UNL     1      -1.167  -9.339  -7.160  0.00  0.00    +0.018 A 
ATOM     31  C   UNL     1      -1.098 -10.009  -8.361  0.00  0.00    +0.046 A 
ATOM     32  C   UNL     1       0.124 -10.162  -9.005  0.00  0.00    +0.121 A 
ATOM     33  C   UNL     1       1.282  -9.640  -8.439  0.00  0.00    +0.046 A 
ATOM     34  C   UNL     1       1.221  -8.963  -7.242  0.00  0.00    +0.018 A 
BRANCH  32  35
ATOM     35  O   UNL     1       0.188 -10.824 -10.188  0.00  0.00    -0.492 OA
BRANCH  35  36
ATOM     36  C   UNL     1       1.476 -10.945 -10.795  0.00  0.00    +0.232 C 
BRANCH  36  37
ATOM     37  C   UNL     1       1.349 -11.715 -12.111  0.00  0.00    +0.020 C 
ATOM     38  C   UNL     1       2.703 -11.737 -12.822  0.00  0.00    +0.010 C 
ATOM     39  C   UNL     1       0.901 -13.149 -11.821  0.00  0.00    +0.010 C 
ENDBRANCH  36  37
ENDBRANCH  35  36
ENDBRANCH  32  35
ENDBRANCH  27  29
ENDBRANCH  26  27
ENDBRANCH   5  26
TORSDOF 12
