REMARK  Name = ZINC36595727
REMARK  12 active torsions:
REMARK  status: ('A' for Active; 'I' for Inactive)
REMARK    1  A    between atoms: C_1  and  C_2
REMARK    2  A    between atoms: C_5  and  S_8
REMARK    3  A    between atoms: S_8  and  C_11
REMARK    4  A    between atoms: C_11  and  N_12
REMARK    5  A    between atoms: C_13  and  C_15
REMARK    6  A    between atoms: C_15  and  C_17
REMARK    7  A    between atoms: C_15  and  N_24
REMARK    8  A    between atoms: C_20  and  O_23
REMARK    9  A    between atoms: N_24  and  C_25
REMARK   10  A    between atoms: C_25  and  C_26
REMARK   11  A    between atoms: C_29  and  C_31
REMARK   12  A    between atoms: C_32  and  C_34
REMARK                            x       y       z     vdW  Elec       q    Type
REMARK                         _______ _______ _______ _____ _____    ______ ____
ROOT
ATOM      1  C   UNL     1       3.026  -4.613   3.565  0.00  0.00    +0.193 C 
ENDROOT
BRANCH   1   2
ATOM      2  C   UNL     1       1.812  -3.799   3.933  0.00  0.00    -0.018 A 
ATOM      3  C   UNL     1       0.737  -4.406   4.556  0.00  0.00    +0.009 A 
ATOM      4  C   UNL     1      -0.377  -3.662   4.894  0.00  0.00    +0.046 A 
ATOM      5  C   UNL     1      -0.416  -2.305   4.609  0.00  0.00    +0.117 A 
ATOM      6  C   UNL     1       0.664  -1.698   3.985  0.00  0.00    +0.046 A 
ATOM      7  C   UNL     1       1.778  -2.445   3.653  0.00  0.00    +0.009 A 
BRANCH   5   8
ATOM      8  O   UNL     1      -1.511  -1.571   4.940  0.00  0.00    -0.507 OA
ATOM      9  H   UNL     1      -1.471  -1.183   5.825  0.00  0.00    +0.292 HD
ENDBRANCH   5   8
ENDBRANCH   1   2
BRANCH   1  11
ATOM     10  N   UNL     1       2.437  -4.468   1.167  0.00  0.00    -0.294 N 
ATOM     11  C   UNL     1       2.821  -5.234   2.207  0.00  0.00    +0.239 C 
ATOM     12  O   UNL     1       3.001  -6.423   2.051  0.00  0.00    -0.273 OA
ATOM     13  H   UNL     1       2.362  -3.507   1.273  0.00  0.00    +0.150 HD
BRANCH  10  14
ATOM     14  C   UNL     1       2.134  -5.088  -0.126  0.00  0.00    +0.278 C 
BRANCH  14  15
ATOM     15  S   UNL     1       0.357  -5.441  -0.225  0.00  0.00    +0.013 S 
ATOM     16  O   UNL     1      -0.090  -6.045   0.981  0.00  0.00    -0.168 OA
ATOM     17  O   UNL     1       0.043  -6.018  -1.485  0.00  0.00    -0.168 OA
BRANCH  15  22
ATOM     18  C   UNL     1      -2.300  -0.024  -0.309  0.00  0.00    +0.044 C 
ATOM     19  C   UNL     1      -1.636  -1.377  -0.288  0.00  0.00    -0.050 A 
ATOM     20  C   UNL     1      -1.266  -1.984  -1.474  0.00  0.00    +0.005 A 
ATOM     21  C   UNL     1      -0.657  -3.225  -1.454  0.00  0.00    +0.027 A 
ATOM     22  C   UNL     1      -0.418  -3.858  -0.249  0.00  0.00    +0.090 A 
ATOM     23  C   UNL     1      -0.786  -3.251   0.936  0.00  0.00    +0.027 A 
ATOM     24  C   UNL     1      -1.391  -2.008   0.917  0.00  0.00    +0.005 A 
ENDBRANCH  15  22
ENDBRANCH  14  15
ENDBRANCH  10  14
ENDBRANCH   1  11
BRANCH   1  25
ATOM     25  N   UNL     1       3.226  -5.669   4.560  0.00  0.00    -0.272 N 
ATOM     26  C   UNL     1       3.749  -5.368   5.766  0.00  0.00    +0.283 C 
ATOM     27  O   UNL     1       3.997  -6.256   6.560  0.00  0.00    -0.267 OA
BRANCH  26  28
ATOM     28  C   UNL     1       4.018  -3.971   6.121  0.00  0.00    +0.189 A 
ATOM     29  C   UNL     1       4.577  -3.533   7.287  0.00  0.00    +0.054 A 
ATOM     30  C   UNL     1       4.648  -2.134   7.199  0.00  0.00    +0.042 A 
ATOM     31  C   UNL     1       4.136  -1.784   5.999  0.00  0.00    +0.196 A 
ATOM     32  O   UNL     1       3.762  -2.894   5.350  0.00  0.00    -0.458 OA
ENDBRANCH  26  28
BRANCH  25  33
ATOM     33  C   UNL     1       2.858  -7.051   4.245  0.00  0.00    +0.183 C 
BRANCH  33  34
ATOM     34  C   UNL     1       4.093  -7.823   3.857  0.00  0.00    +0.122 A 
ATOM     35  C   UNL     1       4.889  -8.509   4.696  0.00  0.00    +0.046 A 
ATOM     36  C   UNL     1       5.920  -9.075   3.912  0.00  0.00    +0.045 A 
ATOM     37  C   UNL     1       5.693  -8.701   2.640  0.00  0.00    +0.102 A 
ATOM     38  O   UNL     1       4.582  -7.948   2.612  0.00  0.00    -0.463 OA
ATOM     39  C   UNL     1       6.539  -9.069   1.449  0.00  0.00    +0.086 C 
ENDBRANCH  33  34
ENDBRANCH  25  33
ENDBRANCH   1  25
TORSDOF 10
