REMARK  Name = ZINC06215831
REMARK  7 active torsions:
REMARK  status: ('A' for Active; 'I' for Inactive)
REMARK    1  A    between atoms: C_1  and  C_2
REMARK    2  A    between atoms: C_5  and  C_9
REMARK    3  A    between atoms: C_7  and  C_8
REMARK    4  A    between atoms: C_11  and  C_19
REMARK    5  A    between atoms: N_21  and  N_22
REMARK    6  A    between atoms: C_23  and  C_24
REMARK    7  A    between atoms: C_23  and  C_25
REMARK                            x       y       z     vdW  Elec       q    Type
REMARK                         _______ _______ _______ _____ _____    ______ ____
ROOT
ATOM      1  C   UNL     1      -0.108   5.672   0.131  0.00  0.00    +0.072 A 
ATOM      2  C   UNL     1      -0.042   4.270   0.135  0.00  0.00    +0.042 A 
ATOM      3  C   UNL     1      -1.213   3.533   0.027  0.00  0.00    +0.050 A 
ATOM      4  C   UNL     1      -2.469   4.278  -0.072  0.00  0.00    +0.013 A 
ATOM      5  C   UNL     1      -3.701   3.623  -0.178  0.00  0.00    +0.011 A 
ATOM      6  C   UNL     1      -4.847   4.356  -0.269  0.00  0.00    +0.001 A 
ATOM      7  C   UNL     1      -4.807   5.748  -0.256  0.00  0.00    +0.002 A 
ATOM      8  C   UNL     1      -3.626   6.417  -0.154  0.00  0.00    +0.028 A 
ATOM      9  C   UNL     1      -2.422   5.694  -0.059  0.00  0.00    +0.072 A 
ATOM     10  N   UNL     1      -1.249   6.322   0.042  0.00  0.00    -0.247 NA
ENDROOT
BRANCH   1  15
ATOM     11  C   UNL     1       4.781   8.684   0.556  0.00  0.00    +0.044 C 
ATOM     12  C   UNL     1       3.502   7.896   0.445  0.00  0.00    -0.047 A 
ATOM     13  C   UNL     1       3.549   6.518   0.334  0.00  0.00    +0.004 A 
ATOM     14  C   UNL     1       2.381   5.791   0.232  0.00  0.00    +0.010 A 
ATOM     15  C   UNL     1       1.151   6.447   0.241  0.00  0.00    +0.001 A 
ATOM     16  C   UNL     1       1.110   7.837   0.346  0.00  0.00    +0.013 A 
ATOM     17  C   UNL     1       2.284   8.553   0.454  0.00  0.00    -0.047 A 
ATOM     18  C   UNL     1       2.241  10.055   0.575  0.00  0.00    +0.044 C 
ENDBRANCH   1  15
BRANCH   3  19
ATOM     19  C   UNL     1      -1.193   2.055   0.019  0.00  0.00    +0.264 C 
ATOM     20  O   UNL     1      -2.238   1.433   0.028  0.00  0.00    -0.268 OA
ATOM     21  N   UNL     1      -0.017   1.397   0.002  0.00  0.00    -0.203 N 
ATOM     22  H   UNL     1       0.816   1.893  -0.010  0.00  0.00    +0.178 HD
BRANCH  21  23
ATOM     23  N   UNL     1       0.002  -0.004  -0.006  0.00  0.00    -0.189 NA
ATOM     24  C   UNL     1       1.119  -0.629  -0.028  0.00  0.00    +0.037 C 
ATOM     25  C   UNL     1       2.414   0.142  -0.045  0.00  0.00    +0.062 C 
BRANCH  24  26
ATOM     26  C   UNL     1       1.139  -2.136  -0.036  0.00  0.00    +0.035 C 
ATOM     27  C   UNL     1       0.526  -2.844  -1.246  0.00  0.00    +0.010 C 
ATOM     28  C   UNL     1      -0.201  -2.861   0.100  0.00  0.00    +0.010 C 
ENDBRANCH  24  26
ENDBRANCH  21  23
ENDBRANCH   3  19
TORSDOF 4
