REMARK  Name = ZINC67239952
REMARK  12 active torsions:
REMARK  status: ('A' for Active; 'I' for Inactive)
REMARK    1  A    between atoms: C_1  and  C_2
REMARK    2  A    between atoms: C_2  and  C_3
REMARK    3  A    between atoms: C_3  and  C_4
REMARK    4  A    between atoms: C_4  and  N_5
REMARK    5  A    between atoms: C_10  and  C_14
REMARK    6  A    between atoms: C_21  and  S_22
REMARK    7  A    between atoms: S_22  and  C_23
REMARK    8  A    between atoms: C_23  and  C_24
REMARK    9  A    between atoms: N_26  and  C_27
REMARK   10  A    between atoms: C_32  and  C_33
REMARK   11  A    between atoms: C_33  and  O_35
REMARK   12  A    between atoms: O_35  and  C_36
REMARK                            x       y       z     vdW  Elec       q    Type
REMARK                         _______ _______ _______ _____ _____    ______ ____
ROOT
ATOM      1  N   UNL     1       1.429  -2.483  -2.477  0.00  0.00    -0.286 N 
ATOM      2  C   UNL     1       0.725  -2.692  -3.611  0.00  0.00    +0.279 A 
ATOM      3  O   UNL     1      -0.480  -2.505  -3.640  0.00  0.00    -0.265 OA
ATOM      4  C   UNL     1       1.413  -3.131  -4.759  0.00  0.00    +0.131 A 
ATOM      5  C   UNL     1       2.795  -3.330  -4.674  0.00  0.00    +0.104 A 
ATOM      6  C   UNL     1       3.220  -3.778  -6.001  0.00  0.00    +0.026 A 
ATOM      7  C   UNL     1       2.102  -3.818  -6.778  0.00  0.00    +0.093 A 
ATOM      8  N   UNL     1       1.025  -3.436  -6.046  0.00  0.00    -0.355 N 
ATOM      9  H   UNL     1       0.116  -3.384  -6.380  0.00  0.00    +0.166 HD
ATOM     10  N   UNL     1       3.433  -3.103  -3.513  0.00  0.00    -0.221 NA
ATOM     11  C   UNL     1       2.778  -2.688  -2.453  0.00  0.00    +0.173 A 
ENDROOT
BRANCH   6  12
ATOM     12  C   UNL     1       4.601  -4.119  -6.420  0.00  0.00    -0.014 A 
ATOM     13  C   UNL     1       5.651  -3.243  -6.149  0.00  0.00    +0.008 A 
ATOM     14  C   UNL     1       6.934  -3.567  -6.541  0.00  0.00    +0.001 A 
ATOM     15  C   UNL     1       7.179  -4.757  -7.201  0.00  0.00    +0.000 A 
ATOM     16  C   UNL     1       6.141  -5.630  -7.472  0.00  0.00    +0.001 A 
ATOM     17  C   UNL     1       4.855  -5.321  -7.080  0.00  0.00    +0.008 A 
ENDBRANCH   6  12
BRANCH   1  18
ATOM     18  C   UNL     1       0.740  -2.026  -1.268  0.00  0.00    +0.127 C 
BRANCH  18  19
ATOM     19  C   UNL     1       0.717  -0.496  -1.241  0.00  0.00    +0.021 C 
BRANCH  19  21
ATOM     20  C   UNL     1      -0.026   1.510   0.049  0.00  0.00    +0.004 C 
ATOM     21  C   UNL     1      -0.002  -0.019   0.022  0.00  0.00    -0.002 C 
ENDBRANCH  19  21
ENDBRANCH  18  19
ENDBRANCH   1  18
BRANCH  11  22
ATOM     22  S   UNL     1       3.663  -2.398  -0.957  0.00  0.00    -0.078 S 
BRANCH  22  23
ATOM     23  C   UNL     1       5.382  -2.791  -1.381  0.00  0.00    +0.173 C 
BRANCH  23  24
ATOM     24  C   UNL     1       6.258  -2.582  -0.172  0.00  0.00    +0.228 C 
ATOM     25  O   UNL     1       5.770  -2.204   0.872  0.00  0.00    -0.275 OA
ATOM     26  N   UNL     1       7.583  -2.813  -0.252  0.00  0.00    -0.284 N 
ATOM     27  H   UNL     1       7.962  -3.191  -1.062  0.00  0.00    +0.155 HD
BRANCH  26  28
ATOM     28  C   UNL     1       8.409  -2.511   0.827  0.00  0.00    +0.047 A 
ATOM     29  C   UNL     1       8.033  -1.536   1.742  0.00  0.00    +0.024 A 
ATOM     30  C   UNL     1       8.854  -1.238   2.811  0.00  0.00    +0.002 A 
ATOM     31  C   UNL     1      10.056  -1.906   2.981  0.00  0.00    +0.001 A 
ATOM     32  C   UNL     1      10.445  -2.876   2.084  0.00  0.00    +0.017 A 
ATOM     33  C   UNL     1       9.623  -3.193   0.999  0.00  0.00    +0.080 A 
BRANCH  33  34
ATOM     34  C   UNL     1      10.031  -4.234   0.039  0.00  0.00    +0.341 C 
ATOM     35  O   UNL     1       9.361  -4.442  -0.953  0.00  0.00    -0.245 OA
BRANCH  34  36
ATOM     36  O   UNL     1      11.147  -4.956   0.262  0.00  0.00    -0.464 OA
ATOM     37  C   UNL     1      11.483  -5.948  -0.711  0.00  0.00    +0.280 C 
ENDBRANCH  34  36
ENDBRANCH  33  34
ENDBRANCH  26  28
ENDBRANCH  23  24
ENDBRANCH  22  23
ENDBRANCH  11  22
TORSDOF 10
