REMARK  Name = ZINC12563126
REMARK  9 active torsions:
REMARK  status: ('A' for Active; 'I' for Inactive)
REMARK    1  A    between atoms: C_1  and  C_2
REMARK    2  A    between atoms: C_5  and  O_27
REMARK    3  A    between atoms: C_6  and  N_8
REMARK    4  A    between atoms: N_8  and  C_9
REMARK    5  A    between atoms: C_9  and  C_11
REMARK    6  A    between atoms: C_9  and  C_12
REMARK    7  A    between atoms: N_14  and  C_15
REMARK    8  A    between atoms: C_16  and  C_25
REMARK    9  A    between atoms: O_27  and  C_28
REMARK                            x       y       z     vdW  Elec       q    Type
REMARK                         _______ _______ _______ _____ _____    ______ ____
ROOT
ATOM      1  C   UNL     1      -0.749   3.086   1.275  0.00  0.00    +0.238 C 
ATOM      2  O   UNL     1      -1.808   3.678   1.288  0.00  0.00    -0.273 OA
ATOM      3  N   UNL     1       0.409   3.776   1.268  0.00  0.00    -0.277 N 
ATOM      4  H   UNL     1       1.255   3.302   1.257  0.00  0.00    +0.155 HD
ENDROOT
BRANCH   3   5
ATOM      5  C   UNL     1       0.390   5.164   1.275  0.00  0.00    +0.090 A 
ATOM      6  C   UNL     1       1.463   6.039   1.270  0.00  0.00    +0.084 A 
ATOM      7  C   UNL     1       1.174   7.466   1.278  0.00  0.00    -0.018 A 
ATOM      8  C   UNL     1      -0.139   7.781   1.300  0.00  0.00    -0.004 A 
ATOM      9  S   UNL     1      -0.981   6.222   1.286  0.00  0.00    -0.077 S 
ATOM     10  C   UNL     1      -0.754   9.146   1.327  0.00  0.00    +0.043 C 
ATOM     11  C   UNL     1      -0.107  10.014   0.240  0.00  0.00    +0.005 C 
ATOM     12  C   UNL     1       1.112  10.709   0.838  0.00  0.00    +0.001 C 
ATOM     13  C   UNL     1       1.767   9.813   1.887  0.00  0.00    +0.005 C 
ATOM     14  C   UNL     1       2.271   8.524   1.248  0.00  0.00    +0.037 C 
BRANCH   6  15
ATOM     15  C   UNL     1       2.811   5.557   1.256  0.00  0.00    +0.102 C 
ATOM     16  N   UNL     1       3.881   5.175   1.246  0.00  0.00    -0.191 NA
ENDBRANCH   6  15
ENDBRANCH   3   5
BRANCH   1  17
ATOM     17  C   UNL     1      -0.729   1.579   1.267  0.00  0.00    +0.154 C 
ATOM     18  C   UNL     1      -0.013   1.086   0.008  0.00  0.00    +0.038 C 
BRANCH  17  19
ATOM     19  N   UNL     1      -2.103   1.072   1.277  0.00  0.00    -0.330 N 
ATOM     20  H   UNL     1      -2.825   1.620   0.932  0.00  0.00    +0.147 HD
BRANCH  19  26
ATOM     21  C   UNL     1      -0.493  -3.102   3.316  0.00  0.00    +0.044 C 
ATOM     22  C   UNL     1      -1.614  -2.249   2.780  0.00  0.00    -0.048 A 
ATOM     23  C   UNL     1      -2.911  -2.728   2.791  0.00  0.00    +0.007 A 
ATOM     24  C   UNL     1      -3.944  -1.951   2.300  0.00  0.00    +0.048 A 
ATOM     25  C   UNL     1      -3.681  -0.688   1.796  0.00  0.00    +0.141 A 
ATOM     26  C   UNL     1      -2.375  -0.203   1.785  0.00  0.00    +0.070 A 
ATOM     27  C   UNL     1      -1.343  -0.991   2.274  0.00  0.00    +0.030 A 
BRANCH  25  28
ATOM     28  O   UNL     1      -4.696   0.078   1.312  0.00  0.00    -0.493 OA
ATOM     29  C   UNL     1      -6.009  -0.483   1.355  0.00  0.00    +0.277 C 
ENDBRANCH  25  28
ENDBRANCH  19  26
ENDBRANCH  17  19
ENDBRANCH   1  17
TORSDOF 6
