REMARK  Name = ZINC09359353
REMARK  7 active torsions:
REMARK  status: ('A' for Active; 'I' for Inactive)
REMARK    1  A    between atoms: C_1  and  C_2
REMARK    2  A    between atoms: C_2  and  C_3
REMARK    3  A    between atoms: C_2  and  C_4
REMARK    4  A    between atoms: C_4  and  C_5
REMARK    5  A    between atoms: C_5  and  C_7
REMARK    6  A    between atoms: C_5  and  N_21
REMARK    7  A    between atoms: C_12  and  C_15
REMARK                            x       y       z     vdW  Elec       q    Type
REMARK                         _______ _______ _______ _____ _____    ______ ____
ROOT
ATOM      1  C   UNL     1      -0.729   1.579   1.267  0.00  0.00    +0.171 C 
ENDROOT
BRANCH   1   2
ATOM      2  N   UNL     1      -0.645   3.040   1.336  0.00  0.00    -0.222 N 
ATOM      3  C   UNL     1       0.506   3.734   1.397  0.00  0.00    +0.254 C 
ATOM      4  O   UNL     1       1.623   3.257   1.403  0.00  0.00    -0.270 OA
ATOM      5  C   UNL     1       0.184   5.176   1.452  0.00  0.00    +0.049 A 
ATOM      6  C   UNL     1       0.941   6.335   1.522  0.00  0.00    +0.014 A 
ATOM      7  C   UNL     1       0.308   7.567   1.565  0.00  0.00    +0.001 A 
ATOM      8  C   UNL     1      -1.071   7.648   1.540  0.00  0.00    +0.001 A 
ATOM      9  C   UNL     1      -1.841   6.497   1.471  0.00  0.00    +0.014 A 
ATOM     10  C   UNL     1      -1.223   5.258   1.426  0.00  0.00    +0.049 A 
ATOM     11  C   UNL     1      -1.708   3.864   1.352  0.00  0.00    +0.254 C 
ATOM     12  O   UNL     1      -2.872   3.520   1.311  0.00  0.00    -0.270 OA
ENDBRANCH   1   2
BRANCH   1  13
ATOM     13  C   UNL     1      -0.074   0.981   2.485  0.00  0.00    +0.240 C 
ATOM     14  O   UNL     1       0.415   1.703   3.327  0.00  0.00    -0.273 OA
ATOM     15  N   UNL     1      -0.031  -0.358   2.638  0.00  0.00    -0.263 N 
ATOM     16  C   UNL     1       0.573  -0.910   3.761  0.00  0.00    +0.165 A 
ATOM     17  N   UNL     1       0.716  -2.179   4.093  0.00  0.00    -0.225 NA
ATOM     18  C   UNL     1       1.326  -2.532   5.215  0.00  0.00    +0.080 A 
ATOM     19  C   UNL     1       1.816  -1.563   6.045  0.00  0.00    +0.076 A 
ATOM     20  S   UNL     1       1.368  -0.090   5.135  0.00  0.00    -0.060 S 
ATOM     21  H   UNL     1      -0.475  -1.013   1.874  0.00  0.00    +0.157 HD
BRANCH  18  22
ATOM     22  C   UNL     1       1.475  -3.965   5.567  0.00  0.00    +0.001 A 
ATOM     23  C   UNL     1       2.122  -4.332   6.746  0.00  0.00    +0.010 A 
ATOM     24  C   UNL     1       2.253  -5.667   7.071  0.00  0.00    +0.001 A 
ATOM     25  C   UNL     1       1.754  -6.640   6.224  0.00  0.00    +0.000 A 
ATOM     26  C   UNL     1       1.116  -6.282   5.050  0.00  0.00    +0.001 A 
ATOM     27  C   UNL     1       0.974  -4.950   4.717  0.00  0.00    +0.010 A 
ENDBRANCH  18  22
ENDBRANCH   1  13
BRANCH   1  28
ATOM     28  C   UNL     1      -0.013   1.086   0.008  0.00  0.00    +0.035 C 
BRANCH  28  30
ATOM     29  C   UNL     1       0.031   1.205  -2.487  0.00  0.00    +0.007 C 
ATOM     30  C   UNL     1      -0.753   1.593  -1.232  0.00  0.00    -0.015 C 
ATOM     31  C   UNL     1      -2.147   0.964  -1.286  0.00  0.00    +0.007 C 
ENDBRANCH  28  30
ENDBRANCH   1  28
TORSDOF 5
