REMARK  Name = ZINC00659220
REMARK  7 active torsions:
REMARK  status: ('A' for Active; 'I' for Inactive)
REMARK    1  A    between atoms: C_1  and  C_2
REMARK    2  A    between atoms: C_2  and  O_3
REMARK    3  A    between atoms: O_3  and  C_4
REMARK    4  A    between atoms: C_4  and  C_6
REMARK    5  A    between atoms: C_7  and  C_36
REMARK    6  A    between atoms: C_11  and  C_13
REMARK    7  A    between atoms: C_26  and  C_29
REMARK                            x       y       z     vdW  Elec       q    Type
REMARK                         _______ _______ _______ _____ _____    ______ ____
ROOT
ATOM      1  C   UNL     1       1.236  -2.363  -2.589  0.00  0.00    +0.065 C 
ATOM      2  C   UNL     1       1.608  -3.654  -2.578  0.00  0.00    +0.016 C 
ATOM      3  N   UNL     1       2.421  -4.149  -3.559  0.00  0.00    -0.321 N 
ATOM      4  C   UNL     1       2.552  -3.493  -4.754  0.00  0.00    +0.016 C 
ATOM      5  C   UNL     1       2.215  -2.191  -4.861  0.00  0.00    +0.024 C 
ATOM      6  C   UNL     1       1.696  -1.429  -3.670  0.00  0.00    +0.093 C 
ATOM      7  C   UNL     1       2.329  -1.510  -6.086  0.00  0.00    +0.162 C 
ATOM      8  O   UNL     1       2.025  -0.336  -6.146  0.00  0.00    -0.292 OA
ATOM      9  C   UNL     1       2.823  -2.210  -7.323  0.00  0.00    +0.088 C 
ATOM     10  C   UNL     1       2.474  -3.699  -7.227  0.00  0.00    +0.032 C 
ATOM     11  C   UNL     1       3.084  -4.258  -5.940  0.00  0.00    +0.059 C 
ATOM     12  C   UNL     1       1.127  -4.562  -1.476  0.00  0.00    +0.061 C 
ATOM     13  H   UNL     1       2.910  -4.973  -3.407  0.00  0.00    +0.152 HD
ENDROOT
BRANCH   6  14
ATOM     14  C   UNL     1       2.799  -0.554  -3.130  0.00  0.00    -0.018 A 
ATOM     15  C   UNL     1       3.967  -1.126  -2.662  0.00  0.00    +0.055 A 
ATOM     16  C   UNL     1       4.981  -0.324  -2.165  0.00  0.00    +0.167 A 
ATOM     17  C   UNL     1       4.821   1.060  -2.139  0.00  0.00    +0.167 A 
ATOM     18  C   UNL     1       3.649   1.627  -2.610  0.00  0.00    +0.065 A 
ATOM     19  C   UNL     1       2.642   0.820  -3.110  0.00  0.00    +0.026 A 
ATOM     20 BR   UNL     1       1.045   1.597  -3.760  0.00  0.00    -0.050 Br
ATOM     21  O   UNL     1       5.948   1.619  -1.610  0.00  0.00    -0.453 OA
ATOM     22  C   UNL     1       6.631   0.545  -0.936  0.00  0.00    +0.466 C 
ATOM     23  O   UNL     1       6.208  -0.631  -1.652  0.00  0.00    -0.453 OA
ENDBRANCH   6  14
BRANCH  10  24
ATOM     24  C   UNL     1       3.039  -4.428  -8.419  0.00  0.00    -0.043 A 
ATOM     25  C   UNL     1       4.402  -4.425  -8.649  0.00  0.00    +0.005 A 
ATOM     26  C   UNL     1       4.920  -5.095  -9.741  0.00  0.00    +0.020 A 
ATOM     27  C   UNL     1       4.075  -5.767 -10.605  0.00  0.00    +0.041 A 
ATOM     28  C   UNL     1       2.710  -5.770 -10.375  0.00  0.00    +0.020 A 
ATOM     29  C   UNL     1       2.194  -5.105  -9.278  0.00  0.00    +0.005 A 
ATOM     30 CL   UNL     1       4.725  -6.607 -11.978  0.00  0.00    -0.084 Cl
ENDBRANCH  10  24
BRANCH   1  31
ATOM     31  C   UNL     1       0.388  -1.876  -1.567  0.00  0.00    +0.338 C 
ATOM     32  O   UNL     1      -0.096  -2.647  -0.759  0.00  0.00    -0.245 OA
BRANCH  31  33
ATOM     33  O   UNL     1       0.115  -0.557  -1.487  0.00  0.00    -0.462 OA
BRANCH  33  35
ATOM     34  C   UNL     1      -0.940   1.381  -0.500  0.00  0.00    +0.048 C 
ATOM     35  C   UNL     1      -0.749  -0.136  -0.429  0.00  0.00    +0.229 C 
ENDBRANCH  33  35
ENDBRANCH  31  33
ENDBRANCH   1  31
TORSDOF 5
