REMARK  Name = ZINC38288229
REMARK  13 active torsions:
REMARK  status: ('A' for Active; 'I' for Inactive)
REMARK    1  A    between atoms: C_1  and  C_2
REMARK    2  A    between atoms: C_5  and  O_37
REMARK    3  A    between atoms: C_6  and  N_8
REMARK    4  A    between atoms: C_9  and  C_11
REMARK    5  A    between atoms: C_14  and  C_36
REMARK    6  A    between atoms: C_15  and  C_16
REMARK    7  A    between atoms: C_15  and  C_17
REMARK    8  A    between atoms: N_19  and  O_20
REMARK    9  A    between atoms: O_20  and  C_21
REMARK   10  A    between atoms: C_21  and  C_23
REMARK   11  A    between atoms: C_25  and  N_32
REMARK   12  A    between atoms: C_27  and  N_29
REMARK   13  A    between atoms: O_37  and  C_38
REMARK                            x       y       z     vdW  Elec       q    Type
REMARK                         _______ _______ _______ _____ _____    ______ ____
ROOT
ATOM      1  C   UNL     1       0.279  -2.894   4.860  0.00  0.00    +0.058 C 
ATOM      2  C   UNL     1      -0.915  -3.828   5.228  0.00  0.00    +0.018 C 
ATOM      3  C   UNL     1      -0.761  -4.073   6.746  0.00  0.00    +0.014 C 
ATOM      4  C   UNL     1       0.505  -3.257   7.149  0.00  0.00    +0.015 C 
ATOM      5  C   UNL     1       0.388  -2.036   6.171  0.00  0.00    -0.010 C 
ATOM      6  C   UNL     1      -0.884  -1.228   6.437  0.00  0.00    +0.013 C 
ATOM      7  C   UNL     1       1.635  -1.150   6.176  0.00  0.00    +0.013 C 
ATOM      8  C   UNL     1       1.675  -4.023   6.516  0.00  0.00    +0.066 C 
ATOM      9  N   UNL     1       2.575  -4.704   7.120  0.00  0.00    -0.083 NA
ATOM     10  C   UNL     1       1.550  -3.785   5.006  0.00  0.00    +0.071 C 
ATOM     11  C   UNL     1       0.636  -2.920   8.636  0.00  0.00    +0.018 C 
ENDROOT
BRANCH   1  13
ATOM     12  N   UNL     1       0.050  -2.795   2.399  0.00  0.00    -0.282 N 
ATOM     13  C   UNL     1       0.149  -2.130   3.568  0.00  0.00    +0.224 C 
ATOM     14  O   UNL     1       0.134  -0.917   3.579  0.00  0.00    -0.275 OA
ATOM     15  H   UNL     1      -0.018  -3.762   2.396  0.00  0.00    +0.155 HD
BRANCH  12  21
ATOM     16  C   UNL     1       1.263   1.227  -0.157  0.00  0.00    +0.044 C 
ATOM     17  C   UNL     1       0.627  -0.137  -0.079  0.00  0.00    -0.048 A 
ATOM     18  C   UNL     1       0.040  -0.689  -1.202  0.00  0.00    +0.007 A 
ATOM     19  C   UNL     1      -0.546  -1.940  -1.136  0.00  0.00    +0.048 A 
ATOM     20  C   UNL     1      -0.545  -2.643   0.058  0.00  0.00    +0.141 A 
ATOM     21  C   UNL     1       0.047  -2.088   1.189  0.00  0.00    +0.076 A 
ATOM     22  C   UNL     1       0.637  -0.835   1.114  0.00  0.00    +0.030 A 
BRANCH  20  23
ATOM     23  O   UNL     1      -1.121  -3.873   0.124  0.00  0.00    -0.493 OA
ATOM     24  C   UNL     1      -1.709  -4.380  -1.076  0.00  0.00    +0.277 C 
ENDBRANCH  20  23
ENDBRANCH  12  21
ENDBRANCH   1  13
BRANCH   9  25
ATOM     25  O   UNL     1       2.553  -4.809   8.532  0.00  0.00    -0.312 OA
BRANCH  25  26
ATOM     26  C   UNL     1       3.554  -5.553   9.041  0.00  0.00    +0.366 C 
ATOM     27  O   UNL     1       4.371  -6.062   8.299  0.00  0.00    -0.243 OA
BRANCH  26  28
ATOM     28  C   UNL     1       3.659  -5.751  10.501  0.00  0.00    +0.066 A 
ATOM     29  C   UNL     1       2.719  -5.173  11.356  0.00  0.00    +0.048 A 
ATOM     30  C   UNL     1       2.822  -5.361  12.719  0.00  0.00    +0.129 A 
ATOM     31  C   UNL     1       3.855  -6.122  13.238  0.00  0.00    +0.065 A 
ATOM     32  C   UNL     1       4.790  -6.698  12.397  0.00  0.00    +0.129 A 
ATOM     33  C   UNL     1       4.695  -6.522  11.032  0.00  0.00    +0.048 A 
BRANCH  32  34
ATOM     34  N   UNL     1       5.891  -7.510  12.962  0.00  0.00    +0.057 N 
ATOM     35  O   UNL     1       5.973  -7.668  14.157  0.00  0.00    -0.126 OA
ATOM     36  O   UNL     1       6.709  -8.014  12.228  0.00  0.00    -0.126 OA
ENDBRANCH  32  34
BRANCH  30  37
ATOM     37  N   UNL     1       1.827  -4.748  13.627  0.00  0.00    +0.057 N 
ATOM     38  O   UNL     1       0.925  -4.083  13.174  0.00  0.00    -0.126 OA
ATOM     39  O   UNL     1       1.917  -4.913  14.821  0.00  0.00    -0.126 OA
ENDBRANCH  30  37
ENDBRANCH  26  28
ENDBRANCH  25  26
ENDBRANCH   9  25
TORSDOF 8
