REMARK  Name = ZINC20583993
REMARK  6 active torsions:
REMARK  status: ('A' for Active; 'I' for Inactive)
REMARK    1  A    between atoms: C_1  and  C_2
REMARK    2  A    between atoms: C_4  and  C_36
REMARK    3  A    between atoms: C_6  and  N_8
REMARK    4  A    between atoms: C_10  and  C_15
REMARK    5  A    between atoms: C_21  and  C_23
REMARK    6  A    between atoms: N_28  and  C_30
REMARK                            x       y       z     vdW  Elec       q    Type
REMARK                         _______ _______ _______ _____ _____    ______ ____
ROOT
ATOM      1  C   UNL     1       0.009  -0.024   0.000  0.00  0.00    +0.109 A 
ATOM      2  N   UNL     1       0.002   1.294  -0.007  0.00  0.00    -0.144 NA
ATOM      3  N   UNL     1       1.084   1.943  -0.018  0.00  0.00    -0.126 NA
ATOM      4  C   UNL     1       2.260   1.340  -0.023  0.00  0.00    +0.188 A 
ATOM      5  S   UNL     1       1.771  -0.330  -0.011  0.00  0.00    -0.035 S 
ATOM      6  N   UNL     1       3.538   1.889  -0.035  0.00  0.00    -0.263 N 
ATOM      7  C   UNL     1       3.696   3.227  -0.043  0.00  0.00    +0.224 C 
ATOM      8  O   UNL     1       2.725   3.953  -0.040  0.00  0.00    -0.275 OA
ATOM      9  H   UNL     1       4.420   1.230  -0.038  0.00  0.00    +0.157 HD
ENDROOT
BRANCH   1  12
ATOM     10  N   UNL     1      -3.410  -1.045  -0.765  0.00  0.00    -0.271 N 
ATOM     11  C   UNL     1      -2.038  -0.810  -1.231  0.00  0.00    +0.124 C 
ATOM     12  C   UNL     1      -1.142  -0.998   0.013  0.00  0.00    +0.073 C 
ATOM     13  C   UNL     1      -2.126  -0.677   1.161  0.00  0.00    +0.108 C 
ATOM     14  C   UNL     1      -3.489  -0.970   0.575  0.00  0.00    +0.220 C 
ATOM     15  O   UNL     1      -4.506  -1.116   1.220  0.00  0.00    -0.275 OA
BRANCH  10  21
ATOM     16  C   UNL     1      -8.144  -2.254  -1.311  0.00  0.00    +0.044 C 
ATOM     17  C   UNL     1      -6.802  -1.900  -1.898  0.00  0.00    -0.048 A 
ATOM     18  C   UNL     1      -6.642  -1.838  -3.270  0.00  0.00    +0.006 A 
ATOM     19  C   UNL     1      -5.412  -1.513  -3.813  0.00  0.00    -0.048 A 
ATOM     20  C   UNL     1      -4.339  -1.250  -2.985  0.00  0.00    +0.027 A 
ATOM     21  C   UNL     1      -4.495  -1.311  -1.606  0.00  0.00    +0.037 A 
ATOM     22  C   UNL     1      -5.730  -1.644  -1.065  0.00  0.00    +0.027 A 
ATOM     23  C   UNL     1      -5.244  -1.446  -5.309  0.00  0.00    +0.044 C 
ENDBRANCH  10  21
ENDBRANCH   1  12
BRANCH   7  24
ATOM     24  C   UNL     1       5.081   3.822  -0.057  0.00  0.00    +0.101 C 
ATOM     25  C   UNL     1       5.845   3.476   1.243  0.00  0.00    +0.110 C 
ATOM     26  C   UNL     1       6.645   4.724   1.546  0.00  0.00    +0.217 C 
ATOM     27  O   UNL     1       7.582   4.779   2.314  0.00  0.00    -0.276 OA
ATOM     28  N   UNL     1       6.166   5.763   0.841  0.00  0.00    -0.298 N 
ATOM     29  C   UNL     1       5.021   5.364   0.014  0.00  0.00    +0.121 C 
BRANCH  28  30
ATOM     30  C   UNL     1       6.717   7.120   0.890  0.00  0.00    +0.076 C 
ATOM     31  C   UNL     1       8.180   7.093   0.444  0.00  0.00    +0.022 C 
ATOM     32  C   UNL     1       8.755   8.510   0.496  0.00  0.00    +0.002 C 
ATOM     33  C   UNL     1       8.668   9.044   1.927  0.00  0.00    +0.000 C 
ATOM     34  C   UNL     1       7.205   9.070   2.373  0.00  0.00    +0.002 C 
ATOM     35  C   UNL     1       6.629   7.654   2.321  0.00  0.00    +0.022 C 
ENDBRANCH  28  30
ENDBRANCH   7  24
TORSDOF 4
