REMARK  Name = ZINC15015414
REMARK  8 active torsions:
REMARK  status: ('A' for Active; 'I' for Inactive)
REMARK    1  A    between atoms: C_1  and  C_2
REMARK    2  A    between atoms: N_4  and  C_30
REMARK    3  A    between atoms: C_8  and  N_9
REMARK    4  A    between atoms: N_9  and  N_10
REMARK    5  A    between atoms: C_11  and  C_13
REMARK    6  A    between atoms: C_13  and  N_21
REMARK    7  A    between atoms: C_14  and  C_15
REMARK    8  A    between atoms: C_22  and  C_24
REMARK                            x       y       z     vdW  Elec       q    Type
REMARK                         _______ _______ _______ _____ _____    ______ ____
ROOT
ATOM      1  N   UNL     1       0.456  -0.802   4.837  0.00  0.00    -0.232 N 
ATOM      2  C   UNL     1       0.661  -1.766   5.757  0.00  0.00    +0.274 C 
ATOM      3  O   UNL     1       1.074  -2.857   5.413  0.00  0.00    -0.267 OA
ATOM      4  H   UNL     1       0.127   0.068   5.111  0.00  0.00    +0.173 HD
ENDROOT
BRANCH   1   5
ATOM      5  N   UNL     1       0.719  -1.057   3.485  0.00  0.00    -0.271 N 
ATOM      6  H   UNL     1       1.048  -1.928   3.210  0.00  0.00    +0.169 HD
BRANCH   5  14
ATOM      7  C   UNL     1       0.122   2.001   0.168  0.00  0.00    +0.068 C 
ATOM      8  C   UNL     1       0.611   0.577   0.094  0.00  0.00    +0.070 C 
ATOM      9  N   UNL     1       0.970  -0.056  -0.981  0.00  0.00    -0.176 NA
ATOM     10  N   UNL     1       1.370  -1.360  -0.691  0.00  0.00    -0.156 N 
ATOM     11  C   UNL     1       1.269  -1.593   0.633  0.00  0.00    +0.273 C 
ATOM     12  O   UNL     1       1.539  -2.628   1.219  0.00  0.00    -0.268 OA
ATOM     13  C   UNL     1       0.774  -0.345   1.228  0.00  0.00    +0.076 C 
ATOM     14  C   UNL     1       0.514  -0.093   2.564  0.00  0.00    +0.102 C 
BRANCH  10  15
ATOM     15  C   UNL     1       1.812  -2.293  -1.638  0.00  0.00    +0.060 A 
ATOM     16  C   UNL     1       2.181  -3.570  -1.237  0.00  0.00    +0.025 A 
ATOM     17  C   UNL     1       2.616  -4.487  -2.174  0.00  0.00    +0.002 A 
ATOM     18  C   UNL     1       2.685  -4.135  -3.509  0.00  0.00    +0.000 A 
ATOM     19  C   UNL     1       2.317  -2.864  -3.911  0.00  0.00    +0.002 A 
ATOM     20  C   UNL     1       1.876  -1.944  -2.981  0.00  0.00    +0.025 A 
ENDBRANCH  10  15
ENDBRANCH   5  14
ENDBRANCH   1   5
BRANCH   2  21
ATOM     21  C   UNL     1       0.385  -1.498   7.176  0.00  0.00    +0.098 C 
ATOM     22  C   UNL     1      -0.074  -0.284   7.558  0.00  0.00    +0.036 C 
BRANCH  22  23
ATOM     23  C   UNL     1      -0.203   0.036   8.989  0.00  0.00    -0.023 A 
ATOM     24  C   UNL     1       0.483  -0.721   9.943  0.00  0.00    +0.008 A 
ATOM     25  C   UNL     1       0.357  -0.414  11.282  0.00  0.00    +0.001 A 
ATOM     26  C   UNL     1      -0.447   0.639  11.681  0.00  0.00    +0.000 A 
ATOM     27  C   UNL     1      -1.130   1.393  10.742  0.00  0.00    +0.001 A 
ATOM     28  C   UNL     1      -1.009   1.103   9.400  0.00  0.00    +0.008 A 
ENDBRANCH  22  23
BRANCH  21  29
ATOM     29  N   UNL     1       0.597  -2.497   8.130  0.00  0.00    -0.277 N 
ATOM     30  C   UNL     1       1.815  -3.061   8.256  0.00  0.00    +0.248 C 
ATOM     31  O   UNL     1       2.699  -2.781   7.469  0.00  0.00    -0.270 OA
ATOM     32  H   UNL     1      -0.132  -2.785   8.701  0.00  0.00    +0.155 HD
BRANCH  30  33
ATOM     33  C   UNL     1       2.076  -4.020   9.350  0.00  0.00    +0.037 A 
ATOM     34  C   UNL     1       1.035  -4.434  10.182  0.00  0.00    +0.013 A 
ATOM     35  C   UNL     1       1.285  -5.330  11.201  0.00  0.00    +0.001 A 
ATOM     36  C   UNL     1       2.565  -5.818  11.399  0.00  0.00    +0.000 A 
ATOM     37  C   UNL     1       3.601  -5.412  10.577  0.00  0.00    +0.001 A 
ATOM     38  C   UNL     1       3.364  -4.521   9.551  0.00  0.00    +0.013 A 
ENDBRANCH  30  33
ENDBRANCH  21  29
ENDBRANCH   2  21
TORSDOF 7
