REMARK  Name = ZINC13496806
REMARK  12 active torsions:
REMARK  status: ('A' for Active; 'I' for Inactive)
REMARK    1  A    between atoms: C_1  and  C_2
REMARK    2  A    between atoms: C_7  and  S_15
REMARK    3  A    between atoms: C_11  and  C_12
REMARK    4  A    between atoms: S_15  and  C_16
REMARK    5  A    between atoms: C_16  and  C_17
REMARK    6  A    between atoms: N_19  and  C_20
REMARK    7  A    between atoms: C_23  and  S_26
REMARK    8  A    between atoms: S_26  and  N_29
REMARK    9  A    between atoms: N_29  and  C_30
REMARK   10  A    between atoms: C_30  and  C_31
REMARK   11  A    between atoms: C_30  and  C_32
REMARK   12  A    between atoms: C_30  and  C_33
REMARK                            x       y       z     vdW  Elec       q    Type
REMARK                         _______ _______ _______ _____ _____    ______ ____
ROOT
ATOM      1  C   UNL     1       0.446  -0.093 -10.262  0.00  0.00    +0.227 C 
ATOM      2  O   UNL     1       0.362   0.066 -11.461  0.00  0.00    -0.275 OA
ATOM      3  N   UNL     1       0.394  -1.335  -9.742  0.00  0.00    -0.285 N 
ATOM      4  H   UNL     1       0.531  -1.469  -8.791  0.00  0.00    +0.155 HD
ENDROOT
BRANCH   3   5
ATOM      5  C   UNL     1       0.143  -2.432 -10.573  0.00  0.00    +0.034 A 
ATOM      6  C   UNL     1      -0.616  -3.499 -10.109  0.00  0.00    +0.025 A 
ATOM      7  C   UNL     1      -0.861  -4.580 -10.933  0.00  0.00    +0.030 A 
ATOM      8  C   UNL     1      -0.352  -4.601 -12.218  0.00  0.00    +0.105 A 
ATOM      9  C   UNL     1       0.404  -3.542 -12.683  0.00  0.00    +0.030 A 
ATOM     10  C   UNL     1       0.648  -2.455 -11.867  0.00  0.00    +0.025 A 
BRANCH   8  11
ATOM     11  S   UNL     1      -0.668  -5.983 -13.266  0.00  0.00    +0.059 S 
ATOM     12  O   UNL     1       0.178  -5.836 -14.397  0.00  0.00    -0.153 OA
ATOM     13  O   UNL     1      -0.639  -7.136 -12.436  0.00  0.00    -0.153 OA
BRANCH  11  14
ATOM     14  N   UNL     1      -2.223  -5.835 -13.816  0.00  0.00    -0.185 NA
ATOM     15  H   UNL     1      -2.919  -6.410 -13.462  0.00  0.00    +0.149 HD
BRANCH  14  16
ATOM     16  C   UNL     1      -2.547  -4.835 -14.836  0.00  0.00    +0.032 C 
ATOM     17  C   UNL     1      -1.870  -5.214 -16.154  0.00  0.00    +0.029 C 
ATOM     18  C   UNL     1      -4.063  -4.784 -15.037  0.00  0.00    +0.029 C 
ATOM     19  C   UNL     1      -2.047  -3.462 -14.382  0.00  0.00    +0.029 C 
ENDBRANCH  14  16
ENDBRANCH  11  14
ENDBRANCH   8  11
ENDBRANCH   3   5
BRANCH   1  20
ATOM     20  C   UNL     1       0.609   1.098  -9.353  0.00  0.00    +0.173 C 
BRANCH  20  21
ATOM     21  S   UNL     1       0.644   2.616 -10.346  0.00  0.00    -0.078 S 
BRANCH  21  28
ATOM     22  C   UNL     1       1.400   6.923  -4.982  0.00  0.00    +0.046 C 
ATOM     23  C   UNL     1       1.290   7.059  -6.479  0.00  0.00    -0.015 A 
ATOM     24  C   UNL     1       1.139   5.943  -7.307  0.00  0.00    +0.076 A 
ATOM     25  C   UNL     1       1.061   4.508  -6.925  0.00  0.00    +0.282 A 
ATOM     26  O   UNL     1       1.130   4.177  -5.753  0.00  0.00    -0.265 OA
ATOM     27  N   UNL     1       0.915   3.586  -7.880  0.00  0.00    -0.185 NA
ATOM     28  C   UNL     1       0.836   3.900  -9.155  0.00  0.00    +0.171 A 
ATOM     29  N   UNL     1       0.900   5.194  -9.578  0.00  0.00    -0.328 N 
ATOM     30  C   UNL     1       1.049   6.208  -8.681  0.00  0.00    +0.093 A 
ATOM     31  S   UNL     1       1.164   7.869  -8.819  0.00  0.00    -0.064 S 
ATOM     32  C   UNL     1       1.328   8.291  -7.096  0.00  0.00    +0.106 A 
ATOM     33  H   UNL     1       0.840   5.395 -10.525  0.00  0.00    +0.168 HD
BRANCH  32  34
ATOM     34  C   UNL     1       1.464   9.573  -6.507  0.00  0.00    +0.393 C 
ATOM     35  O   UNL     1       1.568   9.680  -5.291  0.00  0.00    -0.240 OA
ATOM     36  O   UNL     1       1.479  10.573  -7.213  0.00  0.00    -0.240 OA
ENDBRANCH  32  34
ENDBRANCH  21  28
ENDBRANCH  20  21
ENDBRANCH   1  20
TORSDOF 8
