REMARK  Name = ZINC04897660
REMARK  3 active torsions:
REMARK  status: ('A' for Active; 'I' for Inactive)
REMARK    1  A    between atoms: C_1  and  C_2
REMARK    2  A    between atoms: C_3  and  C_12
REMARK    3  A    between atoms: N_13  and  N_14
REMARK                            x       y       z     vdW  Elec       q    Type
REMARK                         _______ _______ _______ _____ _____    ______ ____
ROOT
ATOM      1  N   UNL     1      -0.037   1.401  -4.099  0.00  0.00    -0.219 N 
ATOM      2  C   UNL     1      -0.058   2.759  -4.377  0.00  0.00    +0.167 A 
ATOM      3  C   UNL     1      -0.077   3.220  -5.771  0.00  0.00    +0.029 A 
ATOM      4  C   UNL     1      -0.076   2.324  -6.839  0.00  0.00    +0.012 A 
ATOM      5  C   UNL     1      -0.096   2.803  -8.130  0.00  0.00    +0.001 A 
ATOM      6  C   UNL     1      -0.115   4.169  -8.380  0.00  0.00    +0.001 A 
ATOM      7  C   UNL     1      -0.116   5.073  -7.340  0.00  0.00    +0.012 A 
ATOM      8  C   UNL     1      -0.097   4.609  -6.025  0.00  0.00    +0.031 A 
ATOM      9  C   UNL     1      -0.098   5.523  -4.879  0.00  0.00    +0.185 A 
ATOM     10  N   UNL     1      -0.113   6.835  -4.758  0.00  0.00    -0.128 NA
ATOM     11  N   UNL     1      -0.105   7.148  -3.510  0.00  0.00    -0.136 NA
ATOM     12  C   UNL     1      -0.084   6.065  -2.775  0.00  0.00    +0.249 A 
ATOM     13  N   UNL     1      -0.079   5.001  -3.612  0.00  0.00    -0.198 N 
ATOM     14  N   UNL     1      -0.064   3.623  -3.396  0.00  0.00    -0.146 NA
ATOM     15  H   UNL     1      -0.032   0.758  -4.826  0.00  0.00    +0.176 HD
ENDROOT
BRANCH   1  17
ATOM     16  C   UNL     1      -0.006  -0.315  -2.511  0.00  0.00    +0.140 C 
ATOM     17  N   UNL     1      -0.025   0.958  -2.771  0.00  0.00    -0.189 NA
BRANCH  16  20
ATOM     18  C   UNL     1      -0.018   1.503   0.010  0.00  0.00    +0.064 C 
ATOM     19  C   UNL     1       0.002  -0.004   0.002  0.00  0.00    +0.023 A 
ATOM     20  C   UNL     1       0.007  -0.781  -1.114  0.00  0.00    +0.023 A 
ATOM     21  C   UNL     1       0.030  -2.180  -0.653  0.00  0.00    +0.009 A 
ATOM     22  C   UNL     1       0.043  -3.413  -1.303  0.00  0.00    +0.010 A 
ATOM     23  C   UNL     1       0.063  -4.567  -0.570  0.00  0.00    +0.001 A 
ATOM     24  C   UNL     1       0.069  -4.520   0.817  0.00  0.00    +0.002 A 
ATOM     25  C   UNL     1       0.056  -3.312   1.478  0.00  0.00    +0.026 A 
ATOM     26  C   UNL     1       0.036  -2.125   0.751  0.00  0.00    +0.047 A 
ATOM     27  N   UNL     1       0.024  -0.796   1.113  0.00  0.00    -0.358 N 
ATOM     28  H   UNL     1       0.028  -0.469   2.027  0.00  0.00    +0.166 HD
ENDBRANCH  16  20
ENDBRANCH   1  17
TORSDOF 2
