REMARK  Name = ZINC09563979
REMARK  8 active torsions:
REMARK  status: ('A' for Active; 'I' for Inactive)
REMARK    1  A    between atoms: C_1  and  S_2
REMARK    2  A    between atoms: S_2  and  C_3
REMARK    3  A    between atoms: C_3  and  C_4
REMARK    4  A    between atoms: C_4  and  N_5
REMARK    5  A    between atoms: C_9  and  N_29
REMARK    6  A    between atoms: N_14  and  C_15
REMARK    7  A    between atoms: C_15  and  C_17
REMARK    8  A    between atoms: C_21  and  N_26
REMARK                            x       y       z     vdW  Elec       q    Type
REMARK                         _______ _______ _______ _____ _____    ______ ____
ROOT
ATOM      1  N   UNL     1      -1.095   2.176  -0.002  0.00  0.00    -0.320 N 
ATOM      2  C   UNL     1      -0.923   3.548  -0.029  0.00  0.00    +0.058 A 
ATOM      3  C   UNL     1      -1.922   4.537  -0.040  0.00  0.00    +0.029 A 
ATOM      4  C   UNL     1      -1.595   5.871  -0.075  0.00  0.00    +0.035 A 
ATOM      5  C   UNL     1      -0.274   6.286  -0.100  0.00  0.00    +0.127 A 
ATOM      6  C   UNL     1       0.732   5.335  -0.091  0.00  0.00    +0.050 A 
ATOM      7  C   UNL     1       0.405   4.001  -0.056  0.00  0.00    +0.041 A 
ATOM      8  S   UNL     1       1.351   2.498  -0.034  0.00  0.00    -0.052 S 
ATOM      9  C   UNL     1      -0.013   1.347   0.010  0.00  0.00    +0.167 A 
ATOM     10  N   UNL     1       0.018   0.020   0.040  0.00  0.00    -0.152 NA
ENDROOT
BRANCH   5  11
ATOM     11  N   UNL     1       0.058   7.728  -0.137  0.00  0.00    +0.056 N 
ATOM     12  O   UNL     1      -0.833   8.558  -0.145  0.00  0.00    -0.126 OA
ATOM     13  O   UNL     1       1.222   8.085  -0.159  0.00  0.00    -0.126 OA
ENDBRANCH   5  11
BRANCH  10  14
ATOM     14  C   UNL     1       1.193  -0.622   0.040  0.00  0.00    +0.276 C 
ATOM     15  O   UNL     1       2.234   0.012   0.013  0.00  0.00    -0.267 OA
BRANCH  14  16
ATOM     16  C   UNL     1       1.227  -2.095   0.073  0.00  0.00    +0.077 A 
ATOM     17  C   UNL     1       2.309  -2.916   0.079  0.00  0.00    +0.029 A 
ATOM     18  C   UNL     1       2.132  -4.312   0.113  0.00  0.00    -0.008 A 
ATOM     19  C   UNL     1       3.126  -5.324   0.124  0.00  0.00    +0.041 A 
ATOM     20  C   UNL     1       2.781  -6.636   0.159  0.00  0.00    +0.127 A 
ATOM     21  C   UNL     1       1.451  -7.040   0.184  0.00  0.00    +0.034 A 
ATOM     22  C   UNL     1       0.452  -6.088   0.174  0.00  0.00    +0.018 A 
ATOM     23  C   UNL     1       0.787  -4.751   0.139  0.00  0.00    +0.020 A 
ATOM     24  S   UNL     1      -0.142  -3.239   0.124  0.00  0.00    -0.084 S 
BRANCH  20  25
ATOM     25  N   UNL     1       3.847  -7.663   0.170  0.00  0.00    +0.056 N 
ATOM     26  O   UNL     1       3.554  -8.845   0.201  0.00  0.00    -0.126 OA
ATOM     27  O   UNL     1       5.017  -7.326   0.148  0.00  0.00    -0.126 OA
ENDBRANCH  20  25
ENDBRANCH  14  16
ENDBRANCH  10  14
BRANCH   1  28
ATOM     28  C   UNL     1      -2.447   1.611   0.020  0.00  0.00    +0.135 C 
BRANCH  28  29
ATOM     29  C   UNL     1      -2.477   0.329  -0.815  0.00  0.00    +0.090 C 
BRANCH  29  31
ATOM     30  C   UNL     1      -4.048  -1.777  -1.942  0.00  0.00    +0.084 C 
ATOM     31  S   UNL     1      -4.184  -0.273  -0.935  0.00  0.00    -0.162 S 
ENDBRANCH  29  31
ENDBRANCH  28  29
ENDBRANCH   1  28
TORSDOF 7
