REMARK  Name = ZINC10190426
REMARK  6 active torsions:
REMARK  status: ('A' for Active; 'I' for Inactive)
REMARK    1  A    between atoms: C_1  and  C_2
REMARK    2  A    between atoms: N_13  and  C_30
REMARK    3  A    between atoms: C_14  and  S_16
REMARK    4  A    between atoms: S_16  and  C_17
REMARK    5  A    between atoms: C_17  and  C_18
REMARK    6  A    between atoms: C_30  and  C_31
REMARK                            x       y       z     vdW  Elec       q    Type
REMARK                         _______ _______ _______ _____ _____    ______ ____
ROOT
ATOM      1  C   UNL     1      12.014   8.355  -0.150  0.00  0.00    +0.008 C 
ATOM      2  C   UNL     1      10.520   8.169  -0.426  0.00  0.00    -0.009 C 
ATOM      3  C   UNL     1       9.711   9.154   0.423  0.00  0.00    +0.008 C 
ATOM      4  C   UNL     1       8.250   9.148  -0.026  0.00  0.00    +0.037 C 
ATOM      5  C   UNL     1       7.741   7.709  -0.030  0.00  0.00    -0.023 A 
ATOM      6  C   UNL     1       8.604   6.673  -0.043  0.00  0.00    -0.004 A 
ATOM      7  S   UNL     1       7.584   5.224  -0.041  0.00  0.00    -0.073 S 
ATOM      8  C   UNL     1       5.996   6.016  -0.023  0.00  0.00    +0.117 A 
ATOM      9  C   UNL     1       6.314   7.384  -0.019  0.00  0.00    +0.076 A 
ATOM     10  C   UNL     1       5.200   8.283  -0.004  0.00  0.00    +0.263 A 
ATOM     11  O   UNL     1       5.379   9.489   0.001  0.00  0.00    -0.267 OA
ATOM     12  N   UNL     1       3.953   7.778   0.005  0.00  0.00    -0.285 N 
ATOM     13  C   UNL     1       3.733   6.431   0.000  0.00  0.00    +0.173 A 
ATOM     14  N   UNL     1       4.741   5.582  -0.008  0.00  0.00    -0.216 NA
ATOM     15  C   UNL     1      10.101   6.739  -0.056  0.00  0.00    +0.046 C 
ENDROOT
BRANCH  13  16
ATOM     16  S   UNL     1       2.081   5.819   0.013  0.00  0.00    -0.080 S 
BRANCH  16  17
ATOM     17  C   UNL     1       2.405   4.039   0.000  0.00  0.00    +0.151 C 
BRANCH  17  18
ATOM     18  C   UNL     1       1.097   3.290   0.009  0.00  0.00    +0.121 A 
ATOM     19  N   UNL     1       1.132   1.932   0.002  0.00  0.00    -0.310 N 
ATOM     20  H   UNL     1       1.987   1.473  -0.009  0.00  0.00    +0.170 HD
ATOM     21  C   UNL     1      -0.014   1.213   0.009  0.00  0.00    +0.259 A 
ATOM     22  O   UNL     1       0.002  -0.004   0.002  0.00  0.00    -0.267 OA
ATOM     23  C   UNL     1      -1.281   1.960   0.019  0.00  0.00    +0.065 A 
ATOM     24  C   UNL     1      -2.517   1.315   0.033  0.00  0.00    +0.015 A 
ATOM     25  C   UNL     1      -3.673   2.064   0.048  0.00  0.00    +0.001 A 
ATOM     26  C   UNL     1      -3.615   3.452   0.055  0.00  0.00    +0.002 A 
ATOM     27  C   UNL     1      -2.405   4.108   0.047  0.00  0.00    +0.028 A 
ATOM     28  C   UNL     1      -1.219   3.371   0.032  0.00  0.00    +0.078 A 
ATOM     29  N   UNL     1      -0.005   3.976   0.023  0.00  0.00    -0.233 NA
ENDBRANCH  17  18
ENDBRANCH  16  17
ENDBRANCH  13  16
BRANCH  12  30
ATOM     30  C   UNL     1       2.808   8.692   0.020  0.00  0.00    +0.159 C 
BRANCH  30  31
ATOM     31  C   UNL     1       2.423   9.003   1.468  0.00  0.00    +0.138 C 
ATOM     32  C   UNL     1       1.148   9.873   1.496  0.00  0.00    +0.035 C 
ATOM     33  C   UNL     1       1.450  10.865   2.652  0.00  0.00    +0.031 C 
ATOM     34  C   UNL     1       2.982  11.042   2.494  0.00  0.00    +0.160 C 
ATOM     35  O   UNL     1       3.470   9.750   2.100  0.00  0.00    -0.375 OA
ENDBRANCH  30  31
ENDBRANCH  12  30
TORSDOF 5
