REMARK  Name = ZINC12468391
REMARK  17 active torsions:
REMARK  status: ('A' for Active; 'I' for Inactive)
REMARK    1  A    between atoms: C_1  and  C_2
REMARK    2  A    between atoms: C_2  and  N_3
REMARK    3  A    between atoms: N_3  and  C_4
REMARK    4  A    between atoms: N_3  and  C_6
REMARK    5  A    between atoms: C_4  and  C_5
REMARK    6  A    between atoms: C_6  and  C_7
REMARK    7  A    between atoms: C_7  and  C_8
REMARK    8  A    between atoms: C_8  and  N_9
REMARK    9  A    between atoms: C_10  and  C_32
REMARK   10  A    between atoms: C_12  and  C_17
REMARK   11  A    between atoms: C_17  and  C_19
REMARK   12  A    between atoms: C_20  and  C_31
REMARK   13  A    between atoms: C_21  and  C_26
REMARK   14  A    between atoms: C_24  and  C_25
REMARK   15  A    between atoms: C_26  and  O_28
REMARK   16  A    between atoms: O_28  and  C_29
REMARK   17  A    between atoms: C_29  and  C_30
REMARK                            x       y       z     vdW  Elec       q    Type
REMARK                         _______ _______ _______ _____ _____    ______ ____
ROOT
ATOM      1  N   UNL     1       0.410  -4.749   4.105  0.00  0.00    -0.284 N 
ATOM      2  C   UNL     1       1.867  -4.813   3.944  0.00  0.00    +0.146 C 
ATOM      3  C   UNL     1       2.400  -5.474   5.193  0.00  0.00    +0.076 C 
ATOM      4  C   UNL     1       1.332  -5.752   5.975  0.00  0.00    +0.249 C 
ATOM      5  C   UNL     1       0.101  -5.294   5.296  0.00  0.00    +0.288 C 
ATOM      6  O   UNL     1      -1.023  -5.397   5.746  0.00  0.00    -0.266 OA
ATOM      7  O   UNL     1       1.382  -6.349   7.188  0.00  0.00    -0.282 OA
ENDROOT
BRANCH   2   8
ATOM      8  C   UNL     1       2.219  -5.634   2.731  0.00  0.00    -0.004 A 
ATOM      9  C   UNL     1       3.268  -5.255   1.906  0.00  0.00    +0.009 A 
ATOM     10  C   UNL     1       3.555  -6.041   0.801  0.00  0.00    +0.020 A 
ATOM     11  C   UNL     1       2.793  -7.168   0.559  0.00  0.00    +0.111 A 
ATOM     12  N   UNL     1       1.802  -7.498   1.365  0.00  0.00    -0.263 NA
ATOM     13  C   UNL     1       1.504  -6.777   2.428  0.00  0.00    +0.116 A 
ENDBRANCH   2   8
BRANCH   3  14
ATOM     14  C   UNL     1       3.806  -5.761   5.500  0.00  0.00    +0.197 C 
ATOM     15  O   UNL     1       4.357  -6.718   4.989  0.00  0.00    -0.287 OA
BRANCH  14  16
ATOM     16  C   UNL     1       4.551  -4.889   6.426  0.00  0.00    +0.046 A 
ATOM     17  C   UNL     1       5.861  -5.103   6.910  0.00  0.00    -0.008 A 
ATOM     18  C   UNL     1       6.157  -4.058   7.736  0.00  0.00    +0.128 A 
ATOM     19  N   UNL     1       5.069  -3.213   7.772  0.00  0.00    -0.352 N 
ATOM     20  H   UNL     1       5.013  -2.391   8.284  0.00  0.00    +0.166 HD
ATOM     21  C   UNL     1       4.101  -3.704   6.982  0.00  0.00    +0.025 A 
ATOM     22  C   UNL     1       2.753  -3.074   6.744  0.00  0.00    +0.064 C 
ATOM     23  C   UNL     1       6.761  -6.265   6.577  0.00  0.00    +0.047 C 
BRANCH  18  24
ATOM     24  C   UNL     1       7.417  -3.868   8.461  0.00  0.00    +0.356 C 
ATOM     25  O   UNL     1       8.311  -4.684   8.352  0.00  0.00    -0.243 OA
BRANCH  24  26
ATOM     26  O   UNL     1       7.585  -2.786   9.250  0.00  0.00    -0.460 OA
BRANCH  26  27
ATOM     27  C   UNL     1       8.837  -2.664   9.927  0.00  0.00    +0.229 C 
ATOM     28  C   UNL     1       8.841  -1.385  10.767  0.00  0.00    +0.048 C 
ENDBRANCH  26  27
ENDBRANCH  24  26
ENDBRANCH  18  24
ENDBRANCH  14  16
ENDBRANCH   3  14
BRANCH   1  29
ATOM     29  C   UNL     1      -0.541  -4.187   3.142  0.00  0.00    +0.107 C 
BRANCH  29  30
ATOM     30  C   UNL     1      -0.740  -2.698   3.433  0.00  0.00    +0.000 C 
BRANCH  30  31
ATOM     31  C   UNL     1      -1.732  -2.111   2.427  0.00  0.00    -0.077 C 
BRANCH  31  32
ATOM     32  N   UNL     1      -2.017  -0.713   2.780  0.00  0.00    +0.379 N 
ATOM     33  H   UNL     1      -2.315  -0.663   3.742  0.00  0.00    -0.082 HD
BRANCH  32  35
ATOM     34  C   UNL     1      -1.063   1.522   3.084  0.00  0.00    -0.017 C 
ATOM     35  C   UNL     1      -0.803   0.094   2.600  0.00  0.00    -0.082 C 
ENDBRANCH  32  35
BRANCH  32  36
ATOM     36  C   UNL     1      -3.082  -0.196   1.909  0.00  0.00    -0.082 C 
ATOM     37  C   UNL     1      -4.384  -0.947   2.195  0.00  0.00    -0.017 C 
ENDBRANCH  32  36
ENDBRANCH  31  32
ENDBRANCH  30  31
ENDBRANCH  29  30
ENDBRANCH   1  29
TORSDOF 12
