REMARK  Name = ZINC39232216
REMARK  7 active torsions:
REMARK  status: ('A' for Active; 'I' for Inactive)
REMARK    1  A    between atoms: C_1  and  C_2
REMARK    2  A    between atoms: C_4  and  C_9
REMARK    3  A    between atoms: C_5  and  C_8
REMARK    4  A    between atoms: C_9  and  C_10
REMARK    5  A    between atoms: C_11  and  C_25
REMARK    6  A    between atoms: N_13  and  C_18
REMARK    7  A    between atoms: C_21  and  C_24
REMARK                            x       y       z     vdW  Elec       q    Type
REMARK                         _______ _______ _______ _____ _____    ______ ____
ROOT
ATOM      1  C   UNL     1      -0.998   0.504  -3.049  0.00  0.00    +0.076 C 
ATOM      2  C   UNL     1      -1.842   1.281  -2.067  0.00  0.00    +0.147 C 
ATOM      3  N   UNL     1      -2.981   1.805  -2.830  0.00  0.00    -0.261 N 
ATOM      4  C   UNL     1      -2.845   1.399  -4.106  0.00  0.00    +0.289 C 
ATOM      5  O   UNL     1      -3.619   1.660  -5.006  0.00  0.00    -0.266 OA
ATOM      6  C   UNL     1      -1.614   0.596  -4.252  0.00  0.00    +0.249 C 
ATOM      7  O   UNL     1      -1.174   0.038  -5.403  0.00  0.00    -0.282 OA
ENDROOT
BRANCH   2   8
ATOM      8  C   UNL     1      -1.043   2.417  -1.481  0.00  0.00    -0.021 A 
ATOM      9  C   UNL     1      -0.787   3.544  -2.239  0.00  0.00    +0.007 A 
ATOM     10  C   UNL     1      -0.054   4.586  -1.704  0.00  0.00    +0.022 A 
ATOM     11  C   UNL     1       0.424   4.502  -0.408  0.00  0.00    +0.059 A 
ATOM     12  C   UNL     1       0.168   3.373   0.351  0.00  0.00    +0.060 A 
ATOM     13  C   UNL     1      -0.571   2.333  -0.185  0.00  0.00    +0.027 A 
ATOM     14 CL   UNL     1       0.767   3.265   1.976  0.00  0.00    -0.082 Cl
ATOM     15 CL   UNL     1       1.346   5.810   0.265  0.00  0.00    -0.082 Cl
ENDBRANCH   2   8
BRANCH   3  16
ATOM     16  C   UNL     1      -4.072   2.624  -2.297  0.00  0.00    +0.208 C 
ATOM     17  C   UNL     1      -5.355   1.819  -2.209  0.00  0.00    +0.057 C 
ATOM     18  C   UNL     1      -6.119   2.164  -3.224  0.00  0.00    +0.121 C 
ATOM     19  O   UNL     1      -5.535   3.097  -4.014  0.00  0.00    -0.409 OA
ATOM     20  N   UNL     1      -4.429   3.710  -3.247  0.00  0.00    -0.131 NA
ATOM     21  C   UNL     1      -7.488   1.587  -3.478  0.00  0.00    +0.088 C 
ATOM     22  H   UNL     1      -4.741   4.533  -2.754  0.00  0.00    +0.170 HD
ENDBRANCH   3  16
BRANCH   1  23
ATOM     23  C   UNL     1       0.252  -0.207  -2.759  0.00  0.00    +0.193 C 
ATOM     24  O   UNL     1       1.271   0.420  -2.536  0.00  0.00    -0.287 OA
BRANCH  23  27
ATOM     25  C   UNL     1      -1.913  -2.373  -1.753  0.00  0.00    +0.035 C 
ATOM     26  C   UNL     1      -0.908  -2.610  -2.883  0.00  0.00    +0.110 C 
ATOM     27  C   UNL     1       0.273  -1.677  -2.737  0.00  0.00    +0.026 C 
ATOM     28  C   UNL     1       1.352  -2.475  -2.583  0.00  0.00    -0.026 C 
ATOM     29  C   UNL     1       0.924  -3.873  -2.622  0.00  0.00    +0.082 C 
ATOM     30  N   UNL     1      -0.354  -3.966  -2.792  0.00  0.00    -0.383 N 
ATOM     31  C   UNL     1       2.771  -2.000  -2.400  0.00  0.00    +0.046 C 
ATOM     32  H   UNL     1      -0.861  -4.791  -2.850  0.00  0.00    +0.160 HD
ENDBRANCH  23  27
ENDBRANCH   1  23
TORSDOF 4
