REMARK  Name = ZINC36507200
REMARK  14 active torsions:
REMARK  status: ('A' for Active; 'I' for Inactive)
REMARK    1  A    between atoms: C_1  and  C_2
REMARK    2  A    between atoms: C_2  and  C_3
REMARK    3  A    between atoms: C_3  and  C_4
REMARK    4  A    between atoms: C_4  and  C_5
REMARK    5  A    between atoms: N_7  and  C_8
REMARK    6  A    between atoms: N_7  and  C_14
REMARK    7  A    between atoms: C_8  and  C_9
REMARK    8  A    between atoms: C_14  and  C_16
REMARK    9  A    between atoms: C_14  and  C_23
REMARK   10  A    between atoms: C_20  and  O_22
REMARK   11  A    between atoms: N_25  and  C_26
REMARK   12  A    between atoms: C_26  and  S_27
REMARK   13  A    between atoms: S_27  and  C_30
REMARK   14  A    between atoms: C_33  and  C_36
REMARK                            x       y       z     vdW  Elec       q    Type
REMARK                         _______ _______ _______ _____ _____    ______ ____
ROOT
ATOM      1  C   UNL     1      -4.000  -3.686   0.517  0.00  0.00    +0.193 C 
ENDROOT
BRANCH   1   2
ATOM      2  C   UNL     1      -2.974  -4.344   1.403  0.00  0.00    -0.015 A 
ATOM      3  C   UNL     1      -1.820  -4.869   0.851  0.00  0.00    +0.006 A 
ATOM      4  C   UNL     1      -0.877  -5.474   1.660  0.00  0.00    +0.004 A 
ATOM      5  C   UNL     1      -1.085  -5.555   3.024  0.00  0.00    +0.045 A 
ATOM      6  C   UNL     1      -2.242  -5.029   3.580  0.00  0.00    +0.117 A 
ATOM      7  C   UNL     1      -3.184  -4.417   2.766  0.00  0.00    +0.051 A 
BRANCH   6   8
ATOM      8  O   UNL     1      -2.449  -5.108   4.921  0.00  0.00    -0.507 OA
ATOM      9  H   UNL     1      -2.103  -4.353   5.417  0.00  0.00    +0.292 HD
ENDBRANCH   6   8
ENDBRANCH   1   2
BRANCH   1  10
ATOM     10  C   UNL     1      -4.726  -4.739  -0.280  0.00  0.00    +0.239 C 
ATOM     11  O   UNL     1      -4.154  -5.319  -1.179  0.00  0.00    -0.273 OA
ATOM     12  N   UNL     1      -6.009  -5.036   0.005  0.00  0.00    -0.294 N 
ATOM     13  H   UNL     1      -6.465  -4.572   0.725  0.00  0.00    +0.150 HD
BRANCH  12  14
ATOM     14  C   UNL     1      -6.713  -6.060  -0.770  0.00  0.00    +0.278 C 
BRANCH  14  15
ATOM     15  S   UNL     1      -6.606  -7.653   0.093  0.00  0.00    +0.013 S 
ATOM     16  O   UNL     1      -7.338  -8.643  -0.615  0.00  0.00    -0.168 OA
ATOM     17  O   UNL     1      -5.268  -7.897   0.504  0.00  0.00    -0.168 OA
BRANCH  15  18
ATOM     18  C   UNL     1      -7.501  -7.417   1.592  0.00  0.00    +0.090 A 
ATOM     19  C   UNL     1      -6.849  -6.957   2.721  0.00  0.00    +0.027 A 
ATOM     20  C   UNL     1      -7.551  -6.772   3.897  0.00  0.00    +0.005 A 
ATOM     21  C   UNL     1      -8.905  -7.047   3.945  0.00  0.00    -0.050 A 
ATOM     22  C   UNL     1      -9.557  -7.505   2.815  0.00  0.00    +0.005 A 
ATOM     23  C   UNL     1      -8.856  -7.686   1.638  0.00  0.00    +0.027 A 
ATOM     24  C   UNL     1      -9.670  -6.846   5.227  0.00  0.00    +0.044 C 
ENDBRANCH  15  18
ENDBRANCH  14  15
ENDBRANCH  12  14
ENDBRANCH   1  10
BRANCH   1  27
ATOM     25  C   UNL     1      -2.760  -1.634   0.084  0.00  0.00    +0.217 C 
ATOM     26  O   UNL     1      -2.798  -1.395   1.272  0.00  0.00    -0.276 OA
ATOM     27  N   UNL     1      -3.333  -2.755  -0.396  0.00  0.00    -0.279 N 
BRANCH  25  28
ATOM     28  C   UNL     1      -2.073  -0.677  -0.856  0.00  0.00    +0.096 C 
BRANCH  28  29
ATOM     29  C   UNL     1      -1.513   0.504  -0.061  0.00  0.00    +0.009 C 
BRANCH  29  31
ATOM     30  C   UNL     1      -0.255   2.657  -0.220  0.00  0.00    +0.004 C 
ATOM     31  C   UNL     1      -0.815   1.476  -1.015  0.00  0.00    -0.003 C 
ENDBRANCH  29  31
ENDBRANCH  28  29
ENDBRANCH  25  28
BRANCH  27  32
ATOM     32  C   UNL     1      -3.287  -3.044  -1.832  0.00  0.00    +0.183 C 
BRANCH  32  33
ATOM     33  C   UNL     1      -1.965  -3.683  -2.174  0.00  0.00    +0.122 A 
ATOM     34  C   UNL     1      -1.796  -4.921  -2.671  0.00  0.00    +0.046 A 
ATOM     35  C   UNL     1      -0.404  -5.108  -2.840  0.00  0.00    +0.041 A 
ATOM     36  C   UNL     1       0.193  -3.972  -2.437  0.00  0.00    +0.195 A 
ATOM     37  O   UNL     1      -0.758  -3.111  -2.039  0.00  0.00    -0.466 OA
ENDBRANCH  32  33
ENDBRANCH  27  32
ENDBRANCH   1  27
TORSDOF 12
