REMARK  Name = ZINC28049726
REMARK  12 active torsions:
REMARK  status: ('A' for Active; 'I' for Inactive)
REMARK    1  A    between atoms: C_1  and  C_2
REMARK    2  A    between atoms: C_5  and  O_33
REMARK    3  A    between atoms: C_6  and  N_8
REMARK    4  A    between atoms: C_9  and  C_11
REMARK    5  A    between atoms: C_11  and  C_12
REMARK    6  A    between atoms: N_17  and  N_18
REMARK    7  A    between atoms: C_19  and  C_20
REMARK    8  A    between atoms: C_19  and  C_21
REMARK    9  A    between atoms: C_22  and  C_23
REMARK   10  A    between atoms: C_26  and  O_29
REMARK   11  A    between atoms: O_29  and  C_30
REMARK   12  A    between atoms: O_33  and  C_34
REMARK                            x       y       z     vdW  Elec       q    Type
REMARK                         _______ _______ _______ _____ _____    ______ ____
ROOT
ATOM      1  C   UNL     1      -6.805   2.424  -0.268  0.00  0.00    +0.149 C 
ATOM      2  C   UNL     1      -8.266   2.835  -0.387  0.00  0.00    +0.233 C 
ATOM      3  N   UNL     1      -8.516   3.785  -1.206  0.00  0.00    -0.263 N 
ATOM      4  C   UNL     1      -7.579   4.417  -1.945  0.00  0.00    +0.183 C 
ATOM      5  N   UNL     1      -7.744   5.402  -2.812  0.00  0.00    -0.127 NA
ATOM      6  S   UNL     1      -6.060   3.600  -1.469  0.00  0.00    -0.075 S 
ATOM      7  O   UNL     1      -9.236   2.237   0.329  0.00  0.00    -0.274 OA
ATOM      8  H   UNL     1      -9.550   4.135  -1.344  0.00  0.00    +0.157 HD
ENDROOT
BRANCH   5   9
ATOM      9  N   UNL     1      -8.923   5.875  -3.035  0.00  0.00    -0.152 NA
ATOM     10  C   UNL     1      -9.087   6.852  -3.895  0.00  0.00    +0.061 C 
ATOM     11  C   UNL     1      -7.897   7.423  -4.622  0.00  0.00    +0.067 C 
BRANCH  10  12
ATOM     12  C   UNL     1     -10.377   7.369  -4.138  0.00  0.00    +0.025 C 
ATOM     13  C   UNL     1     -11.445   6.856  -3.485  0.00  0.00    +0.010 C 
BRANCH  13  14
ATOM     14  C   UNL     1     -12.790   7.394  -3.739  0.00  0.00    -0.025 A 
ATOM     15  C   UNL     1     -12.967   8.441  -4.652  0.00  0.00    +0.011 A 
ATOM     16  C   UNL     1     -14.229   8.938  -4.889  0.00  0.00    +0.046 A 
ATOM     17  C   UNL     1     -15.325   8.409  -4.218  0.00  0.00    +0.120 A 
ATOM     18  C   UNL     1     -15.154   7.374  -3.307  0.00  0.00    +0.046 A 
ATOM     19  C   UNL     1     -13.897   6.866  -3.065  0.00  0.00    +0.011 A 
BRANCH  17  20
ATOM     20  O   UNL     1     -16.567   8.907  -4.452  0.00  0.00    -0.495 OA
ATOM     21  C   UNL     1     -16.671   9.971  -5.400  0.00  0.00    +0.277 C 
ENDBRANCH  17  20
ENDBRANCH  13  14
ENDBRANCH  10  12
ENDBRANCH   5   9
BRANCH   1  22
ATOM     22  C   UNL     1      -6.271   2.658   1.147  0.00  0.00    +0.120 C 
BRANCH  22  24
ATOM     23  N   UNL     1      -4.119   2.447   2.346  0.00  0.00    -0.283 N 
ATOM     24  C   UNL     1      -4.804   2.317   1.193  0.00  0.00    +0.219 C 
ATOM     25  O   UNL     1      -4.241   1.925   0.193  0.00  0.00    -0.275 OA
ATOM     26  H   UNL     1      -4.647   2.714   3.273  0.00  0.00    +0.155 HD
BRANCH  23  32
ATOM     27  C   UNL     1       0.183   2.390  -0.036  0.00  0.00    +0.044 C 
ATOM     28  C   UNL     1      -0.623   2.207   1.225  0.00  0.00    -0.048 A 
ATOM     29  C   UNL     1       0.008   1.838   2.399  0.00  0.00    +0.007 A 
ATOM     30  C   UNL     1      -0.726   1.669   3.558  0.00  0.00    +0.048 A 
ATOM     31  C   UNL     1      -2.097   1.870   3.546  0.00  0.00    +0.141 A 
ATOM     32  C   UNL     1      -2.733   2.242   2.364  0.00  0.00    +0.076 A 
ATOM     33  C   UNL     1      -1.989   2.415   1.206  0.00  0.00    +0.030 A 
BRANCH  31  34
ATOM     34  O   UNL     1      -2.820   1.704   4.686  0.00  0.00    -0.493 OA
ATOM     35  C   UNL     1      -2.101   1.321   5.860  0.00  0.00    +0.277 C 
ENDBRANCH  31  34
ENDBRANCH  23  32
ENDBRANCH  22  24
ENDBRANCH   1  22
TORSDOF 8
