REMARK  Name = ZINC67583427
REMARK  6 active torsions:
REMARK  status: ('A' for Active; 'I' for Inactive)
REMARK    1  A    between atoms: C_1  and  C_2
REMARK    2  A    between atoms: C_7  and  C_10
REMARK    3  A    between atoms: N_18  and  C_19
REMARK    4  A    between atoms: C_22  and  N_26
REMARK    5  A    between atoms: N_26  and  C_27
REMARK    6  A    between atoms: N_26  and  C_28
REMARK                            x       y       z     vdW  Elec       q    Type
REMARK                         _______ _______ _______ _____ _____    ______ ____
ROOT
ATOM      1  C   UNL     1       0.414   2.216   1.385  0.00  0.00    +0.039 C 
ATOM      2  C   UNL     1       0.421   0.856   0.683  0.00  0.00    +0.133 C 
ATOM      3  C   UNL     1      -0.998   0.514   0.215  0.00  0.00    +0.140 C 
ATOM      4  N   UNL     1      -1.836   0.286   1.403  0.00  0.00    -0.280 N 
ATOM      5  C   UNL     1      -1.341  -0.642   2.432  0.00  0.00    +0.145 C 
ATOM      6  C   UNL     1       0.095  -0.244   2.792  0.00  0.00    +0.166 C 
ATOM      7  O   UNL     1       0.873  -0.149   1.595  0.00  0.00    -0.366 OA
ATOM      8  C   UNL     1      -3.022   0.911   1.545  0.00  0.00    +0.307 C 
ATOM      9  O   UNL     1      -3.369   1.748   0.735  0.00  0.00    -0.252 OA
ATOM     10  N   UNL     1      -3.823   0.607   2.586  0.00  0.00    -0.269 N 
ATOM     11  H   UNL     1      -3.505   0.016   3.287  0.00  0.00    +0.156 HD
ENDROOT
BRANCH  10  12
ATOM     12  C   UNL     1      -5.116   1.144   2.655  0.00  0.00    +0.040 A 
ATOM     13  C   UNL     1      -5.839   1.364   1.491  0.00  0.00    +0.063 A 
ATOM     14  C   UNL     1      -7.115   1.893   1.558  0.00  0.00    +0.149 A 
ATOM     15  C   UNL     1      -7.673   2.205   2.792  0.00  0.00    +0.101 A 
ATOM     16  C   UNL     1      -6.949   1.984   3.958  0.00  0.00    +0.149 A 
ATOM     17  C   UNL     1      -5.675   1.450   3.889  0.00  0.00    +0.063 A 
ATOM     18  F   UNL     1      -7.490   2.287   5.158  0.00  0.00    -0.203 F 
ATOM     19  F   UNL     1      -7.819   2.108   0.425  0.00  0.00    -0.203 F 
BRANCH  15  20
ATOM     20  N   UNL     1      -8.967   2.742   2.862  0.00  0.00    -0.332 N 
ATOM     21  C   UNL     1     -10.125   1.851   2.976  0.00  0.00    +0.129 C 
ATOM     22  C   UNL     1      -9.161   4.194   2.821  0.00  0.00    +0.129 C 
ENDBRANCH  15  20
ENDBRANCH  10  12
BRANCH   6  23
ATOM     23  C   UNL     1       0.694  -1.287   3.700  0.00  0.00    -0.017 A 
ATOM     24  C   UNL     1       1.288  -2.413   3.162  0.00  0.00    +0.006 A 
ATOM     25  C   UNL     1       1.838  -3.369   3.995  0.00  0.00    +0.000 A 
ATOM     26  C   UNL     1       1.793  -3.200   5.366  0.00  0.00    +0.000 A 
ATOM     27  C   UNL     1       1.199  -2.073   5.904  0.00  0.00    +0.000 A 
ATOM     28  C   UNL     1       0.654  -1.115   5.071  0.00  0.00    +0.006 A 
ENDBRANCH   6  23
TORSDOF 3
