REMARK  Name = ZINC10149910
REMARK  10 active torsions:
REMARK  status: ('A' for Active; 'I' for Inactive)
REMARK    1  A    between atoms: C_1  and  C_2
REMARK    2  A    between atoms: C_2  and  C_3
REMARK    3  A    between atoms: C_4  and  C_25
REMARK    4  A    between atoms: C_6  and  N_11
REMARK    5  A    between atoms: C_7  and  C_8
REMARK    6  A    between atoms: N_11  and  C_12
REMARK    7  A    between atoms: C_12  and  N_14
REMARK    8  A    between atoms: C_15  and  C_17
REMARK    9  A    between atoms: C_17  and  C_18
REMARK   10  A    between atoms: C_18  and  C_19
REMARK                            x       y       z     vdW  Elec       q    Type
REMARK                         _______ _______ _______ _____ _____    ______ ____
ROOT
ATOM      1  N   UNL     1       3.983  -1.480  -2.756  0.00  0.00    -0.291 N 
ATOM      2  H   UNL     1       4.663  -1.387  -2.071  0.00  0.00    +0.154 HD
ENDROOT
BRANCH   1   6
ATOM      3  C   UNL     1       0.707  -0.490  -1.238  0.00  0.00    -0.024 A 
ATOM      4  C   UNL     1       0.050  -0.726  -2.388  0.00  0.00    -0.008 A 
ATOM      5  S   UNL     1       1.337  -1.266  -3.492  0.00  0.00    -0.078 S 
ATOM      6  C   UNL     1       2.662  -1.177  -2.468  0.00  0.00    +0.084 A 
ATOM      7  C   UNL     1       2.133  -0.726  -1.267  0.00  0.00    +0.068 A 
ATOM      8  C   UNL     1      -1.422  -0.570  -2.673  0.00  0.00    +0.052 C 
BRANCH   7   9
ATOM      9  C   UNL     1       2.975  -0.506  -0.088  0.00  0.00    +0.244 C 
ATOM     10  O   UNL     1       3.166  -1.413   0.702  0.00  0.00    -0.270 OA
ATOM     11  N   UNL     1       3.539   0.700   0.122  0.00  0.00    -0.325 N 
ATOM     12  H   UNL     1       3.387   1.422  -0.507  0.00  0.00    +0.145 HD
ATOM     13  H   UNL     1       4.096   0.846   0.903  0.00  0.00    +0.145 HD
ENDBRANCH   7   9
BRANCH   3  15
ATOM     14  C   UNL     1      -0.019   1.526   0.010  0.00  0.00    +0.009 C 
ATOM     15  C   UNL     1       0.002  -0.004   0.002  0.00  0.00    +0.033 C 
ENDBRANCH   3  15
ENDBRANCH   1   6
BRANCH   1  16
ATOM     16  C   UNL     1       4.324  -1.904  -3.990  0.00  0.00    +0.141 C 
ATOM     17  S   UNL     1       3.124  -2.068  -5.200  0.00  0.00    -0.018 S 
BRANCH  16  18
ATOM     18  N   UNL     1       5.609  -2.199  -4.270  0.00  0.00    -0.268 N 
ATOM     19  C   UNL     1       5.949  -2.622  -5.503  0.00  0.00    +0.218 C 
ATOM     20  O   UNL     1       5.100  -2.738  -6.361  0.00  0.00    -0.275 OA
ATOM     21  H   UNL     1       6.288  -2.106  -3.584  0.00  0.00    +0.156 HD
BRANCH  19  22
ATOM     22  C   UNL     1       7.386  -2.952  -5.817  0.00  0.00    +0.096 C 
BRANCH  22  23
ATOM     23  C   UNL     1       7.499  -3.405  -7.274  0.00  0.00    +0.013 C 
BRANCH  23  24
ATOM     24  C   UNL     1       8.958  -3.739  -7.592  0.00  0.00    -0.011 C 
ATOM     25  C   UNL     1       9.805  -2.469  -7.497  0.00  0.00    +0.003 C 
ATOM     26  C   UNL     1      11.263  -2.803  -7.815  0.00  0.00    +0.000 C 
ATOM     27  C   UNL     1      11.358  -3.374  -9.231  0.00  0.00    +0.000 C 
ATOM     28  C   UNL     1      10.511  -4.644  -9.327  0.00  0.00    +0.000 C 
ATOM     29  C   UNL     1       9.053  -4.310  -9.009  0.00  0.00    +0.003 C 
ENDBRANCH  23  24
ENDBRANCH  22  23
ENDBRANCH  19  22
ENDBRANCH  16  18
ENDBRANCH   1  16
TORSDOF 8
