REMARK  Name = ZINC39604171
REMARK  10 active torsions:
REMARK  status: ('A' for Active; 'I' for Inactive)
REMARK    1  A    between atoms: C_1  and  C_2
REMARK    2  A    between atoms: C_2  and  O_3
REMARK    3  A    between atoms: O_3  and  C_4
REMARK    4  A    between atoms: C_4  and  C_6
REMARK    5  A    between atoms: C_6  and  C_7
REMARK    6  A    between atoms: C_7  and  N_8
REMARK    7  A    between atoms: C_9  and  C_11
REMARK    8  A    between atoms: C_22  and  C_24
REMARK    9  A    between atoms: C_29  and  S_30
REMARK   10  A    between atoms: S_30  and  C_31
REMARK                            x       y       z     vdW  Elec       q    Type
REMARK                         _______ _______ _______ _____ _____    ______ ____
ROOT
ATOM      1  C   UNL     1       2.921  -6.315  -5.047  0.00  0.00    +0.100 C 
ATOM      2  C   UNL     1       4.374  -5.797  -5.133  0.00  0.00    +0.121 C 
ATOM      3  N   UNL     1       5.186  -6.852  -4.484  0.00  0.00    -0.296 N 
ATOM      4  C   UNL     1       4.568  -8.122  -4.934  0.00  0.00    +0.115 C 
ATOM      5  C   UNL     1       3.053  -7.842  -4.920  0.00  0.00    -0.004 C 
ATOM      6  C   UNL     1       2.441  -8.318  -3.606  0.00  0.00    -0.010 C 
ATOM      7  C   UNL     1       2.534  -9.844  -3.529  0.00  0.00    -0.082 C 
ATOM      8  N   UNL     1       1.821 -10.438  -4.666  0.00  0.00    +0.379 N 
ATOM      9  C   UNL     1       2.472 -10.049  -5.923  0.00  0.00    -0.082 C 
ATOM     10  C   UNL     1       2.377  -8.531  -6.102  0.00  0.00    -0.010 C 
ATOM     11  C   UNL     1       6.248  -6.693  -3.669  0.00  0.00    +0.249 C 
ATOM     12  O   UNL     1       6.580  -5.579  -3.313  0.00  0.00    -0.270 OA
ATOM     13  H   UNL     1       1.831 -11.443  -4.580  0.00  0.00    -0.086 HD
ATOM     14  H   UNL     1       0.866 -10.113  -4.669  0.00  0.00    -0.086 HD
ENDROOT
BRANCH  11  15
ATOM     15  C   UNL     1       7.007  -7.870  -3.210  0.00  0.00    +0.069 A 
ATOM     16  C   UNL     1       7.186  -8.975  -4.050  0.00  0.00    +0.017 A 
ATOM     17  C   UNL     1       7.907 -10.055  -3.572  0.00  0.00    +0.020 A 
ATOM     18  C   UNL     1       8.426 -10.014  -2.289  0.00  0.00    +0.112 A 
ATOM     19  N   UNL     1       8.247  -8.964  -1.513  0.00  0.00    -0.248 NA
ATOM     20  C   UNL     1       7.569  -7.902  -1.922  0.00  0.00    +0.114 A 
BRANCH  20  21
ATOM     21  S   UNL     1       7.367  -6.523  -0.843  0.00  0.00    -0.069 S 
BRANCH  21  22
ATOM     22  C   UNL     1       8.090  -7.057   0.672  0.00  0.00    +0.014 A 
ATOM     23  C   UNL     1       9.410  -6.739   0.964  0.00  0.00    +0.015 A 
ATOM     24  C   UNL     1       9.973  -7.159   2.153  0.00  0.00    +0.001 A 
ATOM     25  C   UNL     1       9.225  -7.896   3.052  0.00  0.00    +0.000 A 
ATOM     26  C   UNL     1       7.910  -8.215   2.765  0.00  0.00    +0.001 A 
ATOM     27  C   UNL     1       7.339  -7.793   1.581  0.00  0.00    +0.015 A 
ENDBRANCH  21  22
ENDBRANCH  20  21
ENDBRANCH  11  15
BRANCH   1  29
ATOM     28  N   UNL     1       0.900  -5.531  -3.854  0.00  0.00    -0.314 N 
ATOM     29  C   UNL     1       2.231  -5.745  -3.834  0.00  0.00    +0.218 C 
ATOM     30  O   UNL     1       2.873  -5.479  -2.841  0.00  0.00    -0.275 OA
ATOM     31  H   UNL     1       0.387  -5.744  -4.649  0.00  0.00    +0.149 HD
BRANCH  28  32
ATOM     32  C   UNL     1       0.230  -4.977  -2.675  0.00  0.00    +0.115 C 
BRANCH  32  33
ATOM     33  C   UNL     1      -1.266  -4.834  -2.959  0.00  0.00    +0.139 C 
BRANCH  33  34
ATOM     34  C   UNL     1      -1.956  -4.265  -1.746  0.00  0.00    +0.309 C 
ATOM     35  O   UNL     1      -1.316  -4.000  -0.756  0.00  0.00    -0.251 OA
BRANCH  34  36
ATOM     36  O   UNL     1      -3.281  -4.051  -1.766  0.00  0.00    -0.465 OA
BRANCH  36  38
ATOM     37  C   UNL     1      -5.374  -3.337  -0.791  0.00  0.00    +0.048 C 
ATOM     38  C   UNL     1      -3.868  -3.509  -0.581  0.00  0.00    +0.229 C 
ENDBRANCH  36  38
ENDBRANCH  34  36
ENDBRANCH  33  34
ENDBRANCH  32  33
ENDBRANCH  28  32
ENDBRANCH   1  29
TORSDOF 9
