REMARK  Name = ZINC57623004
REMARK  7 active torsions:
REMARK  status: ('A' for Active; 'I' for Inactive)
REMARK    1  A    between atoms: C_1  and  C_2
REMARK    2  A    between atoms: C_9  and  C_27
REMARK    3  A    between atoms: C_10  and  N_11
REMARK    4  A    between atoms: C_12  and  C_14
REMARK    5  A    between atoms: C_14  and  C_15
REMARK    6  A    between atoms: C_16  and  C_26
REMARK    7  A    between atoms: C_24  and  C_25
REMARK                            x       y       z     vdW  Elec       q    Type
REMARK                         _______ _______ _______ _____ _____    ______ ____
ROOT
ATOM      1  N   UNL     1       0.068  -3.855   2.923  0.00  0.00    -0.269 N 
ATOM      2  C   UNL     1      -0.024  -4.859   2.029  0.00  0.00    +0.223 C 
ATOM      3  O   UNL     1      -0.033  -4.615   0.841  0.00  0.00    -0.275 OA
ATOM      4  H   UNL     1       0.147  -4.054   3.869  0.00  0.00    +0.156 HD
ENDROOT
BRANCH   1  14
ATOM      5  C   UNL     1       0.965   1.699   0.569  0.00  0.00    +0.047 C 
ATOM      6  C   UNL     1       1.408   0.278   0.805  0.00  0.00    -0.008 A 
ATOM      7  C   UNL     1       2.594  -0.162   0.307  0.00  0.00    +0.008 A 
ATOM      8  C   UNL     1       2.997  -1.490   0.535  0.00  0.00    +0.018 A 
ATOM      9  C   UNL     1       2.213  -2.327   1.244  0.00  0.00    +0.094 A 
ATOM     10  N   UNL     1       1.016  -1.900   1.750  0.00  0.00    -0.287 N 
ATOM     11  C   UNL     1       0.599  -0.605   1.549  0.00  0.00    +0.143 A 
ATOM     12  N   UNL     1      -0.575  -0.444   2.140  0.00  0.00    -0.226 NA
ATOM     13  C   UNL     1      -0.937  -1.597   2.730  0.00  0.00    +0.112 A 
ATOM     14  C   UNL     1       0.051  -2.529   2.487  0.00  0.00    +0.137 A 
BRANCH  13  15
ATOM     15  C   UNL     1      -2.184  -1.829   3.495  0.00  0.00    +0.004 A 
ATOM     16  C   UNL     1      -2.815  -3.072   3.445  0.00  0.00    +0.010 A 
ATOM     17  C   UNL     1      -3.976  -3.282   4.161  0.00  0.00    +0.001 A 
ATOM     18  C   UNL     1      -4.515  -2.263   4.926  0.00  0.00    +0.000 A 
ATOM     19  C   UNL     1      -3.893  -1.028   4.979  0.00  0.00    +0.001 A 
ATOM     20  C   UNL     1      -2.729  -0.808   4.273  0.00  0.00    +0.010 A 
ENDBRANCH  13  15
ENDBRANCH   1  14
BRANCH   2  21
ATOM     21  C   UNL     1      -0.116  -6.286   2.505  0.00  0.00    +0.133 C 
BRANCH  21  22
ATOM     22  C   UNL     1      -0.209  -7.208   1.317  0.00  0.00    -0.014 A 
ATOM     23  C   UNL     1      -1.430  -7.537   0.800  0.00  0.00    -0.036 A 
ATOM     24  C   UNL     1      -1.470  -8.400  -0.311  0.00  0.00    +0.004 A 
ATOM     25  C   UNL     1      -2.688  -8.782  -0.896  0.00  0.00    +0.010 A 
ATOM     26  C   UNL     1      -2.686  -9.618  -1.970  0.00  0.00    +0.001 A 
ATOM     27  C   UNL     1      -1.489 -10.102  -2.497  0.00  0.00    +0.002 A 
ATOM     28  C   UNL     1      -0.291  -9.753  -1.954  0.00  0.00    +0.028 A 
ATOM     29  C   UNL     1      -0.253  -8.890  -0.845  0.00  0.00    +0.072 A 
ATOM     30  N   UNL     1       0.909  -8.528  -0.292  0.00  0.00    -0.252 NA
ATOM     31  C   UNL     1       0.951  -7.721   0.740  0.00  0.00    +0.043 A 
ATOM     32  C   UNL     1       2.289  -7.341   1.321  0.00  0.00    +0.066 C 
ATOM     33  C   UNL     1      -2.698  -6.990   1.403  0.00  0.00    +0.045 C 
ENDBRANCH  21  22
ENDBRANCH   2  21
TORSDOF 4
