REMARK  Name = ZINC36495935
REMARK  20 active torsions:
REMARK  status: ('A' for Active; 'I' for Inactive)
REMARK    1  A    between atoms: C_1  and  C_2
REMARK    2  A    between atoms: C_2  and  C_3
REMARK    3  A    between atoms: C_3  and  C_4
REMARK    4  A    between atoms: C_4  and  C_5
REMARK    5  A    between atoms: C_5  and  C_6
REMARK    6  A    between atoms: C_7  and  C_8
REMARK    7  A    between atoms: N_10  and  C_11
REMARK    8  A    between atoms: N_10  and  C_17
REMARK    9  A    between atoms: C_11  and  C_12
REMARK   10  A    between atoms: C_17  and  C_19
REMARK   11  A    between atoms: C_17  and  C_26
REMARK   12  A    between atoms: C_24  and  O_25
REMARK   13  A    between atoms: N_28  and  C_29
REMARK   14  A    between atoms: C_29  and  C_30
REMARK   15  A    between atoms: C_29  and  C_31
REMARK   16  A    between atoms: C_29  and  C_32
REMARK   17  A    between atoms: C_32  and  C_33
REMARK   18  A    between atoms: C_33  and  C_34
REMARK   19  A    between atoms: C_33  and  C_35
REMARK   20  A    between atoms: C_33  and  C_36
REMARK                            x       y       z     vdW  Elec       q    Type
REMARK                         _______ _______ _______ _____ _____    ______ ____
ROOT
ATOM      1  C   UNL     1      -0.978  -2.886  -7.875  0.00  0.00    +0.196 C 
ENDROOT
BRANCH   1   2
ATOM      2  C   UNL     1      -2.468  -2.925  -8.098  0.00  0.00    +0.023 A 
ATOM      3  C   UNL     1      -3.049  -4.027  -8.696  0.00  0.00    +0.009 A 
ATOM      4  C   UNL     1      -4.416  -4.063  -8.902  0.00  0.00    +0.001 A 
ATOM      5  C   UNL     1      -5.205  -2.997  -8.510  0.00  0.00    +0.004 A 
ATOM      6  C   UNL     1      -4.629  -1.893  -7.911  0.00  0.00    +0.046 A 
ATOM      7  C   UNL     1      -3.258  -1.857  -7.699  0.00  0.00    +0.122 A 
BRANCH   7   8
ATOM      8  O   UNL     1      -2.690  -0.775  -7.106  0.00  0.00    -0.506 OA
ATOM      9  H   UNL     1      -2.486  -0.053  -7.716  0.00  0.00    +0.292 HD
ENDBRANCH   7   8
ENDBRANCH   1   2
BRANCH   1  10
ATOM     10  C   UNL     1      -0.312  -3.918  -8.748  0.00  0.00    +0.239 C 
ATOM     11  O   UNL     1       0.121  -4.939  -8.257  0.00  0.00    -0.273 OA
ATOM     12  N   UNL     1      -0.198  -3.707 -10.074  0.00  0.00    -0.308 N 
ATOM     13  H   UNL     1      -0.475  -2.859 -10.456  0.00  0.00    +0.149 HD
BRANCH  12  14
ATOM     14  C   UNL     1       0.344  -4.757 -10.940  0.00  0.00    +0.030 C 
ATOM     15  C   UNL     1       1.791  -5.051 -10.540  0.00  0.00    +0.031 C 
ATOM     16  C   UNL     1      -0.496  -6.027 -10.787  0.00  0.00    +0.031 C 
BRANCH  14  17
ATOM     17  C   UNL     1       0.301  -4.290 -12.396  0.00  0.00    +0.031 C 
BRANCH  17  18
ATOM     18  C   UNL     1      -1.154  -4.165 -12.850  0.00  0.00    -0.036 C 
ATOM     19  C   UNL     1      -1.968  -3.459 -11.764  0.00  0.00    +0.010 C 
ATOM     20  C   UNL     1      -1.217  -3.352 -14.144  0.00  0.00    +0.010 C 
ATOM     21  C   UNL     1      -1.734  -5.560 -13.095  0.00  0.00    +0.010 C 
ENDBRANCH  17  18
ENDBRANCH  14  17
ENDBRANCH  12  14
ENDBRANCH   1  10
BRANCH   1  24
ATOM     22  C   UNL     1      -1.142  -4.314  -5.907  0.00  0.00    +0.240 C 
ATOM     23  O   UNL     1      -1.793  -5.100  -6.567  0.00  0.00    -0.271 OA
ATOM     24  N   UNL     1      -0.688  -3.176  -6.468  0.00  0.00    -0.275 N 
BRANCH  22  26
ATOM     25  C   UNL     1      -1.163  -5.790  -3.981  0.00  0.00    -0.022 C 
ATOM     26  C   UNL     1      -0.850  -4.604  -4.495  0.00  0.00    +0.063 C 
BRANCH  25  27
ATOM     27  C   UNL     1      -1.510  -6.939  -4.894  0.00  0.00    +0.027 C 
BRANCH  27  28
ATOM     28  C   UNL     1      -0.702  -8.173  -4.489  0.00  0.00    +0.004 C 
BRANCH  28  29
ATOM     29  C   UNL     1      -1.054  -9.339  -5.416  0.00  0.00    +0.000 C 
BRANCH  29  31
ATOM     30  C   UNL     1      -0.597 -11.739  -5.938  0.00  0.00    +0.004 C 
ATOM     31  C   UNL     1      -0.246 -10.574  -5.011  0.00  0.00    -0.003 C 
ENDBRANCH  29  31
ENDBRANCH  28  29
ENDBRANCH  27  28
ENDBRANCH  25  27
ENDBRANCH  22  26
BRANCH  24  32
ATOM     32  C   UNL     1       0.096  -2.228  -5.673  0.00  0.00    +0.183 C 
BRANCH  32  33
ATOM     33  C   UNL     1       1.545  -2.644  -5.680  0.00  0.00    +0.122 A 
ATOM     34  C   UNL     1       2.492  -2.181  -6.516  0.00  0.00    +0.046 A 
ATOM     35  C   UNL     1       3.697  -2.836  -6.173  0.00  0.00    +0.041 A 
ATOM     36  C   UNL     1       3.414  -3.660  -5.148  0.00  0.00    +0.195 A 
ATOM     37  O   UNL     1       2.111  -3.535  -4.850  0.00  0.00    -0.466 OA
ENDBRANCH  32  33
ENDBRANCH  24  32
ENDBRANCH   1  24
TORSDOF 14
