REMARK  Name = ZINC10775574
REMARK  10 active torsions:
REMARK  status: ('A' for Active; 'I' for Inactive)
REMARK    1  A    between atoms: C_1  and  C_2
REMARK    2  A    between atoms: C_5  and  C_33
REMARK    3  A    between atoms: N_11  and  C_12
REMARK    4  A    between atoms: C_12  and  C_13
REMARK    5  A    between atoms: C_13  and  N_63
REMARK    6  A    between atoms: C_14  and  N_63
REMARK    7  A    between atoms: C_15  and  N_63
REMARK    8  A    between atoms: C_16  and  C_18
REMARK    9  A    between atoms: N_24  and  S_25
REMARK   10  A    between atoms: S_25  and  C_28
REMARK                            x       y       z     vdW  Elec       q    Type
REMARK                         _______ _______ _______ _____ _____    ______ ____
ROOT
ATOM      1  C   UNL     1      -2.388  -4.265  -0.366  0.00  0.00    +0.046 C 
ATOM      2  C   UNL     1      -3.173  -3.124  -0.960  0.00  0.00    -0.024 A 
ATOM      3  C   UNL     1      -4.409  -3.361  -1.503  0.00  0.00    +0.006 A 
ATOM      4  C   UNL     1      -5.164  -2.340  -2.060  0.00  0.00    +0.005 A 
ATOM      5  C   UNL     1      -4.659  -1.052  -2.070  0.00  0.00    -0.035 A 
ATOM      6  C   UNL     1      -3.422  -0.805  -1.529  0.00  0.00    +0.044 A 
ATOM      7  C   UNL     1      -2.625  -1.820  -0.952  0.00  0.00    +0.083 A 
ATOM      8  N   UNL     1      -1.433  -1.420  -0.461  0.00  0.00    -0.224 NA
ATOM      9  C   UNL     1      -1.032  -0.171  -0.512  0.00  0.00    +0.168 A 
ATOM     10  S   UNL     1      -2.408   0.638  -1.316  0.00  0.00    -0.052 S 
ATOM     11  N   UNL     1       0.153   0.381  -0.054  0.00  0.00    -0.251 N 
ATOM     12  C   UNL     1       1.076  -0.402   0.538  0.00  0.00    +0.240 C 
ATOM     13  O   UNL     1       0.913  -1.602   0.585  0.00  0.00    -0.273 OA
ATOM     14  C   UNL     1      -5.462   0.073  -2.671  0.00  0.00    +0.045 C 
ENDROOT
BRANCH  12  15
ATOM     15  C   UNL     1       2.311   0.215   1.143  0.00  0.00    +0.166 C 
ATOM     16  C   UNL     1       2.363  -0.102   2.641  0.00  0.00    +0.030 C 
ATOM     17  C   UNL     1       3.686   0.406   3.220  0.00  0.00    +0.003 C 
ATOM     18  C   UNL     1       4.853  -0.308   2.534  0.00  0.00    +0.017 C 
ATOM     19  C   UNL     1       4.829   0.007   1.035  0.00  0.00    +0.110 C 
ATOM     20  N   UNL     1       3.507  -0.343   0.496  0.00  0.00    -0.164 NA
BRANCH  20  21
ATOM     21  S   UNL     1       3.368  -1.349  -0.811  0.00  0.00    +0.068 S 
ATOM     22  O   UNL     1       2.105  -1.075  -1.402  0.00  0.00    -0.152 OA
ATOM     23  O   UNL     1       4.586  -1.246  -1.534  0.00  0.00    -0.152 OA
BRANCH  21  24
ATOM     24  C   UNL     1       3.287  -2.998  -0.193  0.00  0.00    +0.143 A 
ATOM     25  C   UNL     1       2.197  -3.771   0.035  0.00  0.00    +0.036 A 
ATOM     26  C   UNL     1       2.374  -5.051   0.525  0.00  0.00    +0.010 A 
ATOM     27  C   UNL     1       3.632  -5.492   0.773  0.00  0.00    +0.047 A 
ATOM     28  S   UNL     1       4.618  -4.079   0.303  0.00  0.00    -0.077 S 
ENDBRANCH  21  24
ENDBRANCH  20  21
ENDBRANCH  12  15
BRANCH  11  29
ATOM     29  C   UNL     1       0.402   1.816  -0.213  0.00  0.00    +0.097 C 
BRANCH  29  30
ATOM     30  C   UNL     1      -0.144   2.567   1.004  0.00  0.00    -0.060 C 
BRANCH  30  33
ATOM     31  C   UNL     1      -0.734   4.769   1.819  0.00  0.00    -0.097 C 
ATOM     32  C   UNL     1       1.403   4.411   0.737  0.00  0.00    -0.097 C 
ATOM     33  N   UNL     1      -0.023   4.020   0.762  0.00  0.00    +0.377 N 
ATOM     34  H   UNL     1      -0.446   4.243  -0.147  0.00  0.00    -0.083 HD
ENDBRANCH  30  33
ENDBRANCH  29  30
ENDBRANCH  11  29
TORSDOF 6
