REMARK  Name = ZINC48670552
REMARK  2 active torsions:
REMARK  status: ('A' for Active; 'I' for Inactive)
REMARK    1  A    between atoms: C_1  and  C_2
REMARK    2  A    between atoms: C_9  and  C_11
REMARK                            x       y       z     vdW  Elec       q    Type
REMARK                         _______ _______ _______ _____ _____    ______ ____
ROOT
ATOM      1  C   UNL     1       2.209  -0.120   3.092  0.00  0.00    +0.122 A 
ATOM      2  C   UNL     1       2.680   0.620   4.132  0.00  0.00    +0.078 A 
ATOM      3  C   UNL     1       3.517  -0.216   4.912  0.00  0.00    +0.020 A 
ATOM      4  C   UNL     1       4.263  -0.009   6.079  0.00  0.00    +0.031 A 
ATOM      5  C   UNL     1       4.992  -1.035   6.610  0.00  0.00    +0.042 A 
ATOM      6  C   UNL     1       4.999  -2.286   6.003  0.00  0.00    +0.022 A 
ATOM      7  C   UNL     1       4.274  -2.513   4.855  0.00  0.00    +0.028 A 
ATOM      8  C   UNL     1       3.523  -1.482   4.295  0.00  0.00    +0.049 A 
ATOM      9  N   UNL     1       2.713  -1.405   3.187  0.00  0.00    -0.349 N 
ATOM     10  H   UNL     1       2.527  -2.131   2.571  0.00  0.00    +0.166 HD
ATOM     11 CL   UNL     1       5.916  -0.775   8.056  0.00  0.00    -0.084 Cl
ATOM     12 CL   UNL     1       2.322   2.289   4.445  0.00  0.00    -0.081 Cl
ENDROOT
BRANCH   1  20
ATOM     13  C   UNL     1       0.028   1.372  -0.098  0.00  0.00    +0.028 C 
ATOM     14  C   UNL     1      -0.379  -0.045   0.312  0.00  0.00    +0.073 C 
ATOM     15  C   UNL     1      -0.164  -1.001  -0.866  0.00  0.00    +0.022 C 
ATOM     16  C   UNL     1      -0.439  -2.436  -0.408  0.00  0.00    +0.003 C 
ATOM     17  C   UNL     1       0.539  -2.814   0.706  0.00  0.00    +0.019 C 
ATOM     18  C   UNL     1       0.333  -1.878   1.901  0.00  0.00    +0.108 C 
ATOM     19  N   UNL     1       0.450  -0.487   1.441  0.00  0.00    -0.294 N 
ATOM     20  C   UNL     1       1.304   0.365   2.042  0.00  0.00    +0.265 C 
ATOM     21  O   UNL     1       1.325   1.536   1.714  0.00  0.00    -0.268 OA
ENDBRANCH   1  20
TORSDOF 1
