REMARK  Name = ZINC41514307
REMARK  9 active torsions:
REMARK  status: ('A' for Active; 'I' for Inactive)
REMARK    1  A    between atoms: C_1  and  C_2
REMARK    2  A    between atoms: C_4  and  O_31
REMARK    3  A    between atoms: C_5  and  C_23
REMARK    4  A    between atoms: C_11  and  C_12
REMARK    5  A    between atoms: C_15  and  C_18
REMARK    6  A    between atoms: C_18  and  C_19
REMARK    7  A    between atoms: C_18  and  C_20
REMARK    8  A    between atoms: C_18  and  C_21
REMARK    9  A    between atoms: C_23  and  N_24
REMARK                            x       y       z     vdW  Elec       q    Type
REMARK                         _______ _______ _______ _____ _____    ______ ____
ROOT
ATOM      1  C   UNL     1       0.170   1.486  -0.640  0.00  0.00    +0.045 C 
ATOM      2  C   UNL     1       0.160  -0.014  -0.495  0.00  0.00    -0.033 A 
ATOM      3  C   UNL     1       0.172  -0.809  -1.606  0.00  0.00    +0.050 A 
ATOM      4  C   UNL     1       0.163  -2.195  -1.475  0.00  0.00    +0.122 A 
ATOM      5  C   UNL     1       0.143  -2.784  -0.220  0.00  0.00    +0.020 A 
ATOM      6  C   UNL     1       0.131  -1.990   0.920  0.00  0.00    +0.145 A 
ATOM      7  C   UNL     1       0.145  -0.594   0.774  0.00  0.00    +0.071 A 
ATOM      8  C   UNL     1       0.134  -0.034   2.138  0.00  0.00    +0.232 C 
ATOM      9  O   UNL     1       0.137   1.141   2.462  0.00  0.00    -0.283 OA
ATOM     10  C   UNL     1       0.120  -1.212   3.020  0.00  0.00    +0.176 C 
ATOM     11  C   UNL     1       0.106  -1.198   4.376  0.00  0.00    +0.058 C 
ATOM     12  O   UNL     1       0.111  -2.312   2.232  0.00  0.00    -0.451 OA
ENDROOT
BRANCH  11  13
ATOM     13  C   UNL     1       0.214  -2.458   5.125  0.00  0.00    -0.021 A 
ATOM     14  C   UNL     1       0.322  -2.440   6.520  0.00  0.00    +0.008 A 
ATOM     15  C   UNL     1       0.422  -3.626   7.215  0.00  0.00    +0.005 A 
ATOM     16  C   UNL     1       0.415  -4.833   6.537  0.00  0.00    -0.042 A 
ATOM     17  C   UNL     1       0.308  -4.860   5.157  0.00  0.00    +0.005 A 
ATOM     18  C   UNL     1       0.202  -3.683   4.448  0.00  0.00    +0.008 A 
BRANCH  16  19
ATOM     19  C   UNL     1       0.525  -6.125   7.305  0.00  0.00    -0.013 C 
ATOM     20  C   UNL     1      -0.648  -6.240   8.281  0.00  0.00    +0.015 C 
ATOM     21  C   UNL     1       0.493  -7.303   6.329  0.00  0.00    +0.015 C 
ATOM     22  C   UNL     1       1.841  -6.144   8.086  0.00  0.00    +0.015 C 
ENDBRANCH  16  19
ENDBRANCH  11  13
BRANCH   4  23
ATOM     23  O   UNL     1       0.174  -2.976  -2.584  0.00  0.00    -0.506 OA
ATOM     24  H   UNL     1       1.058  -3.144  -2.938  0.00  0.00    +0.292 HD
ENDBRANCH   4  23
BRANCH   5  25
ATOM     25  C   UNL     1       0.133  -4.286  -0.093  0.00  0.00    -0.036 C 
BRANCH  25  26
ATOM     26  N   UNL     1      -1.241  -4.781  -0.252  0.00  0.00    +0.383 N 
ATOM     27  C   UNL     1      -2.071  -4.232   0.838  0.00  0.00    -0.078 C 
ATOM     28  C   UNL     1      -3.507  -4.213   0.377  0.00  0.00    -0.019 C 
ATOM     29  C   UNL     1      -4.269  -5.463   0.856  0.00  0.00    -0.002 C 
ATOM     30  C   UNL     1      -3.409  -6.737   0.742  0.00  0.00    -0.002 C 
ATOM     31  C   UNL     1      -2.610  -6.778  -0.536  0.00  0.00    -0.019 C 
ATOM     32  C   UNL     1      -1.213  -6.177  -0.277  0.00  0.00    -0.078 C 
ATOM     33  H   UNL     1      -1.605  -4.449  -1.132  0.00  0.00    -0.081 HD
ENDBRANCH  25  26
ENDBRANCH   5  25
TORSDOF 5
