REMARK  Name = ZINC01773022
REMARK  8 active torsions:
REMARK  status: ('A' for Active; 'I' for Inactive)
REMARK    1  A    between atoms: C_4  and  C_7
REMARK    2  A    between atoms: C_8  and  C_9
REMARK    3  A    between atoms: N_10  and  N_11
REMARK    4  A    between atoms: C_12  and  C_14
REMARK    5  A    between atoms: C_14  and  S_15
REMARK    6  A    between atoms: S_15  and  C_16
REMARK    7  A    between atoms: C_19  and  C_27
REMARK    8  A    between atoms: N_20  and  C_21
REMARK                            x       y       z     vdW  Elec       q    Type
REMARK                         _______ _______ _______ _____ _____    ______ ____
ROOT
ATOM      1  C   UNL     1       8.908  -9.248   0.741  0.00  0.00    +0.197 A 
ATOM      2  N   UNL     1      10.043  -8.586   0.740  0.00  0.00    -0.122 NA
ATOM      3  N   UNL     1      11.031  -9.403   0.830  0.00  0.00    -0.128 NA
ATOM      4  C   UNL     1      10.590 -10.638   0.893  0.00  0.00    +0.169 A 
ATOM      5  N   UNL     1       9.214 -10.578   0.844  0.00  0.00    -0.270 N 
ENDROOT
BRANCH   4   6
ATOM      6  C   UNL     1      11.413 -11.861   1.002  0.00  0.00    +0.020 A 
ATOM      7  C   UNL     1      10.848 -13.111   0.742  0.00  0.00    +0.013 A 
ATOM      8  C   UNL     1      11.621 -14.248   0.846  0.00  0.00    +0.021 A 
ATOM      9  C   UNL     1      12.955 -14.152   1.206  0.00  0.00    +0.041 A 
ATOM     10  C   UNL     1      13.521 -12.915   1.466  0.00  0.00    +0.021 A 
ATOM     11  C   UNL     1      12.759 -11.770   1.360  0.00  0.00    +0.013 A 
ATOM     12 CL   UNL     1      13.921 -15.588   1.335  0.00  0.00    -0.084 Cl
ENDBRANCH   4   6
BRANCH   5  13
ATOM     13  C   UNL     1       8.317 -11.654   0.887  0.00  0.00    +0.051 A 
ATOM     14  C   UNL     1       8.219 -12.432   2.033  0.00  0.00    +0.026 A 
ATOM     15  C   UNL     1       7.333 -13.491   2.072  0.00  0.00    +0.002 A 
ATOM     16  C   UNL     1       6.546 -13.778   0.972  0.00  0.00    +0.000 A 
ATOM     17  C   UNL     1       6.642 -13.005  -0.170  0.00  0.00    +0.002 A 
ATOM     18  C   UNL     1       7.520 -11.940  -0.213  0.00  0.00    +0.026 A 
ENDBRANCH   5  13
BRANCH   1  19
ATOM     19  S   UNL     1       7.292  -8.553   0.636  0.00  0.00    -0.076 S 
BRANCH  19  20
ATOM     20  C   UNL     1       7.590  -6.767   0.522  0.00  0.00    +0.174 C 
BRANCH  20  22
ATOM     21  N   UNL     1       6.246  -4.699   0.331  0.00  0.00    -0.206 N 
ATOM     22  C   UNL     1       6.271  -6.043   0.426  0.00  0.00    +0.242 C 
ATOM     23  O   UNL     1       5.233  -6.671   0.433  0.00  0.00    -0.273 OA
ATOM     24  H   UNL     1       7.076  -4.197   0.326  0.00  0.00    +0.177 HD
BRANCH  21  26
ATOM     25  C   UNL     1       4.995  -2.728   0.151  0.00  0.00    +0.145 C 
ATOM     26  N   UNL     1       5.020  -4.026   0.242  0.00  0.00    -0.187 NA
BRANCH  25  28
ATOM     27  C   UNL     1       3.691  -0.680  -0.037  0.00  0.00    +0.024 C 
ATOM     28  C   UNL     1       3.717  -2.026   0.057  0.00  0.00    +0.038 C 
ATOM     29 BR   UNL     1       2.099  -3.004   0.068  0.00  0.00    -0.049 Br
BRANCH  27  33
ATOM     30  C   UNL     1      -0.004   1.392   0.180  0.00  0.00    +0.000 A 
ATOM     31  C   UNL     1       0.193   0.254   0.943  0.00  0.00    +0.001 A 
ATOM     32  C   UNL     1       1.391  -0.425   0.877  0.00  0.00    +0.008 A 
ATOM     33  C   UNL     1       2.409   0.039   0.038  0.00  0.00    -0.024 A 
ATOM     34  C   UNL     1       2.203   1.190  -0.730  0.00  0.00    +0.008 A 
ATOM     35  C   UNL     1       0.999   1.858  -0.653  0.00  0.00    +0.001 A 
ENDBRANCH  27  33
ENDBRANCH  25  28
ENDBRANCH  21  26
ENDBRANCH  20  22
ENDBRANCH  19  20
ENDBRANCH   1  19
TORSDOF 8
