REMARK  Name = ZINC14358640
REMARK  14 active torsions:
REMARK  status: ('A' for Active; 'I' for Inactive)
REMARK    1  A    between atoms: C_1  and  C_2
REMARK    2  A    between atoms: C_4  and  N_12
REMARK    3  A    between atoms: C_5  and  N_9
REMARK    4  A    between atoms: C_7  and  C_8
REMARK    5  A    between atoms: C_13  and  C_15
REMARK    6  A    between atoms: C_15  and  O_16
REMARK    7  A    between atoms: O_16  and  C_17
REMARK    8  A    between atoms: C_17  and  C_19
REMARK    9  A    between atoms: C_19  and  C_21
REMARK   10  A    between atoms: C_19  and  N_25
REMARK   11  A    between atoms: C_21  and  C_23
REMARK   12  A    between atoms: C_21  and  O_24
REMARK   13  A    between atoms: N_25  and  S_26
REMARK   14  A    between atoms: S_26  and  C_29
REMARK                            x       y       z     vdW  Elec       q    Type
REMARK                         _______ _______ _______ _____ _____    ______ ____
ROOT
ATOM      1  C   UNL     1       1.390   3.119  -0.128  0.00  0.00    +0.329 C 
ATOM      2  O   UNL     1       1.911   3.659  -1.075  0.00  0.00    -0.249 OA
ENDROOT
BRANCH   1   3
ATOM      3  O   UNL     1       0.789   3.857   0.819  0.00  0.00    -0.454 OA
BRANCH   3   4
ATOM      4  C   UNL     1       0.802   5.297   0.639  0.00  0.00    +0.328 C 
BRANCH   4   6
ATOM      5  N   UNL     1      -0.027   7.296   1.837  0.00  0.00    -0.281 N 
ATOM      6  C   UNL     1       0.086   5.954   1.790  0.00  0.00    +0.255 C 
ATOM      7  O   UNL     1      -0.390   5.275   2.675  0.00  0.00    -0.272 OA
ATOM      8  H   UNL     1       0.422   7.844   1.173  0.00  0.00    +0.155 HD
BRANCH   5  12
ATOM      9  C   UNL     1      -3.695   7.033   5.100  0.00  0.00    +0.044 C 
ATOM     10  C   UNL     1      -2.574   7.796   4.441  0.00  0.00    -0.046 A 
ATOM     11  C   UNL     1      -1.822   7.197   3.449  0.00  0.00    +0.029 A 
ATOM     12  C   UNL     1      -0.790   7.900   2.842  0.00  0.00    +0.064 A 
ATOM     13  C   UNL     1      -0.514   9.202   3.239  0.00  0.00    +0.148 A 
ATOM     14  C   UNL     1      -1.273   9.797   4.227  0.00  0.00    +0.038 A 
ATOM     15  C   UNL     1      -2.300   9.094   4.830  0.00  0.00    -0.045 A 
ATOM     16  C   UNL     1      -3.122   9.744   5.912  0.00  0.00    +0.044 C 
BRANCH  13  17
ATOM     17  N   UNL     1       0.590   9.953   2.599  0.00  0.00    +0.058 N 
ATOM     18  O   UNL     1       0.890  11.060   3.007  0.00  0.00    -0.126 OA
ATOM     19  O   UNL     1       1.197   9.464   1.663  0.00  0.00    -0.126 OA
ENDBRANCH  13  17
ENDBRANCH   5  12
ENDBRANCH   4   6
ENDBRANCH   3   4
ENDBRANCH   1   3
BRANCH   1  20
ATOM     20  C   UNL     1       1.416   1.617  -0.009  0.00  0.00    +0.213 C 
BRANCH  20  21
ATOM     21  C   UNL     1      -0.018   1.083   0.020  0.00  0.00    +0.141 C 
ATOM     22  C   UNL     1      -0.720   1.577   1.287  0.00  0.00    +0.040 C 
BRANCH  21  23
ATOM     23  O   UNL     1      -0.724   1.551  -1.130  0.00  0.00    -0.390 OA
ATOM     24  H   UNL     1      -1.642   1.251  -1.177  0.00  0.00    +0.210 HD
ENDBRANCH  21  23
ENDBRANCH  20  21
BRANCH  20  25
ATOM     25  N   UNL     1       2.126   1.048  -1.158  0.00  0.00    -0.174 NA
ATOM     26  H   UNL     1       2.051   1.466  -2.030  0.00  0.00    +0.149 HD
BRANCH  25  27
ATOM     27  S   UNL     1       3.055  -0.309  -0.968  0.00  0.00    +0.059 S 
ATOM     28  O   UNL     1       3.582  -0.624  -2.249  0.00  0.00    -0.153 OA
ATOM     29  O   UNL     1       3.886  -0.077   0.162  0.00  0.00    -0.153 OA
BRANCH  27  30
ATOM     30  C   UNL     1       1.970  -1.627  -0.532  0.00  0.00    +0.105 A 
ATOM     31  C   UNL     1       1.695  -1.885   0.798  0.00  0.00    +0.030 A 
ATOM     32  C   UNL     1       0.840  -2.915   1.141  0.00  0.00    +0.022 A 
ATOM     33  C   UNL     1       0.267  -3.696   0.152  0.00  0.00    +0.041 A 
ATOM     34  C   UNL     1       0.547  -3.441  -1.179  0.00  0.00    +0.022 A 
ATOM     35  C   UNL     1       1.398  -2.407  -1.520  0.00  0.00    +0.030 A 
ATOM     36 CL   UNL     1      -0.802  -4.994   0.581  0.00  0.00    -0.084 Cl
ENDBRANCH  27  30
ENDBRANCH  25  27
ENDBRANCH  20  25
ENDBRANCH   1  20
TORSDOF 11
