REMARK  Name = ZINC58667739
REMARK  7 active torsions:
REMARK  status: ('A' for Active; 'I' for Inactive)
REMARK    1  A    between atoms: C_1  and  C_2
REMARK    2  A    between atoms: C_5  and  C_8
REMARK    3  A    between atoms: C_8  and  C_9
REMARK    4  A    between atoms: N_11  and  C_12
REMARK    5  A    between atoms: C_13  and  C_24
REMARK    6  A    between atoms: C_14  and  C_18
REMARK    7  A    between atoms: C_15  and  C_17
REMARK                            x       y       z     vdW  Elec       q    Type
REMARK                         _______ _______ _______ _____ _____    ______ ____
ROOT
ATOM      1  C   UNL     1       3.063  -6.526  -0.050  0.00  0.00    +0.085 A 
ATOM      2  C   UNL     1       3.515  -7.835  -0.066  0.00  0.00    +0.073 A 
ATOM      3  C   UNL     1       4.954  -8.025  -0.074  0.00  0.00    +0.006 A 
ATOM      4  C   UNL     1       5.693  -6.885  -0.065  0.00  0.00    -0.003 A 
ATOM      5  S   UNL     1       4.462  -5.601  -0.054  0.00  0.00    -0.077 S 
ATOM      6  C   UNL     1       7.193  -6.743  -0.070  0.00  0.00    +0.052 C 
ENDROOT
BRANCH   3   7
ATOM      7  C   UNL     1       5.575  -9.371  -0.090  0.00  0.00    -0.016 A 
ATOM      8  C   UNL     1       5.405 -10.233   0.993  0.00  0.00    +0.008 A 
ATOM      9  C   UNL     1       5.986 -11.485   0.973  0.00  0.00    +0.001 A 
ATOM     10  C   UNL     1       6.735 -11.885  -0.119  0.00  0.00    +0.000 A 
ATOM     11  C   UNL     1       6.906 -11.034  -1.197  0.00  0.00    +0.001 A 
ATOM     12  C   UNL     1       6.326  -9.782  -1.190  0.00  0.00    +0.008 A 
ENDBRANCH   3   7
BRANCH   2  13
ATOM     13  C   UNL     1       2.588  -8.970  -0.073  0.00  0.00    +0.244 C 
ATOM     14  O   UNL     1       2.199  -9.431  -1.130  0.00  0.00    -0.270 OA
ATOM     15  N   UNL     1       2.167  -9.503   1.091  0.00  0.00    -0.325 N 
ATOM     16  H   UNL     1       2.477  -9.136   1.933  0.00  0.00    +0.145 HD
ATOM     17  H   UNL     1       1.553 -10.254   1.086  0.00  0.00    +0.145 HD
ENDBRANCH   2  13
BRANCH   1  20
ATOM     18  C   UNL     1       1.487  -4.759  -0.032  0.00  0.00    +0.222 C 
ATOM     19  O   UNL     1       2.398  -3.959  -0.033  0.00  0.00    -0.275 OA
ATOM     20  N   UNL     1       1.750  -6.081  -0.041  0.00  0.00    -0.279 N 
ATOM     21  H   UNL     1       1.021  -6.721  -0.040  0.00  0.00    +0.155 HD
BRANCH  18  22
ATOM     22  C   UNL     1       0.059  -4.275  -0.021  0.00  0.00    +0.131 C 
BRANCH  22  27
ATOM     23  C   UNL     1      -0.018   1.503   0.010  0.00  0.00    +0.044 C 
ATOM     24  C   UNL     1       0.002  -0.004   0.002  0.00  0.00    -0.050 A 
ATOM     25  C   UNL     1       0.006  -0.689  -1.199  0.00  0.00    +0.003 A 
ATOM     26  C   UNL     1       0.025  -2.071  -1.206  0.00  0.00    +0.004 A 
ATOM     27  C   UNL     1       0.040  -2.768  -0.013  0.00  0.00    -0.039 A 
ATOM     28  C   UNL     1       0.037  -2.084   1.188  0.00  0.00    +0.004 A 
ATOM     29  C   UNL     1       0.023  -0.702   1.195  0.00  0.00    +0.003 A 
ENDBRANCH  22  27
ENDBRANCH  18  22
ENDBRANCH   1  20
TORSDOF 5
