REMARK  Name = ZINC02618045
REMARK  10 active torsions:
REMARK  status: ('A' for Active; 'I' for Inactive)
REMARK    1  A    between atoms: C_1  and  C_2
REMARK    2  A    between atoms: C_2  and  C_4
REMARK    3  A    between atoms: C_2  and  S_10
REMARK    4  A    between atoms: S_10  and  C_11
REMARK    5  A    between atoms: C_14  and  C_23
REMARK    6  A    between atoms: N_15  and  C_16
REMARK    7  A    between atoms: C_27  and  S_29
REMARK    8  A    between atoms: S_29  and  N_32
REMARK    9  A    between atoms: N_32  and  C_33
REMARK   10  A    between atoms: N_32  and  C_34
REMARK                            x       y       z     vdW  Elec       q    Type
REMARK                         _______ _______ _______ _____ _____    ______ ____
ROOT
ATOM      1  C   UNL     1       1.053   2.245  -0.131  0.00  0.00    +0.197 A 
ATOM      2  N   UNL     1       0.581   3.471  -0.101  0.00  0.00    -0.122 NA
ATOM      3  N   UNL     1      -0.691   3.452   0.083  0.00  0.00    -0.128 NA
ATOM      4  C   UNL     1      -1.112   2.212   0.176  0.00  0.00    +0.169 A 
ATOM      5  N   UNL     1      -0.007   1.399   0.048  0.00  0.00    -0.270 N 
ENDROOT
BRANCH   5   6
ATOM      6  C   UNL     1       0.023  -0.003   0.087  0.00  0.00    +0.051 A 
ATOM      7  C   UNL     1      -0.567  -0.739  -0.931  0.00  0.00    +0.029 A 
ATOM      8  C   UNL     1      -0.531  -2.119  -0.894  0.00  0.00    +0.040 A 
ATOM      9  C   UNL     1       0.082  -2.769   0.165  0.00  0.00    +0.124 A 
ATOM     10  C   UNL     1       0.666  -2.036   1.184  0.00  0.00    +0.040 A 
ATOM     11  C   UNL     1       0.638  -0.655   1.147  0.00  0.00    +0.029 A 
ATOM     12  F   UNL     1       0.110  -4.119   0.203  0.00  0.00    -0.205 F 
ENDBRANCH   5   6
BRANCH   4  13
ATOM     13  C   UNL     1      -2.508   1.772   0.382  0.00  0.00    +0.021 A 
ATOM     14  C   UNL     1      -2.776   0.475   0.826  0.00  0.00    +0.012 A 
ATOM     15  C   UNL     1      -4.081   0.072   1.020  0.00  0.00    +0.003 A 
ATOM     16  C   UNL     1      -5.123   0.947   0.766  0.00  0.00    +0.028 A 
ATOM     17  C   UNL     1      -4.865   2.231   0.322  0.00  0.00    +0.106 A 
ATOM     18  C   UNL     1      -3.564   2.648   0.128  0.00  0.00    +0.040 A 
BRANCH  17  19
ATOM     19  S   UNL     1      -6.200   3.336   0.002  0.00  0.00    +0.060 S 
ATOM     20  O   UNL     1      -7.298   2.882   0.782  0.00  0.00    -0.153 OA
ATOM     21  O   UNL     1      -5.675   4.651   0.118  0.00  0.00    -0.153 OA
BRANCH  19  22
ATOM     22  N   UNL     1      -6.631   3.136  -1.584  0.00  0.00    -0.183 NA
ATOM     23  C   UNL     1      -7.649   2.147  -1.947  0.00  0.00    +0.131 C 
ATOM     24  C   UNL     1      -5.995   3.949  -2.624  0.00  0.00    +0.131 C 
ENDBRANCH  19  22
ENDBRANCH  17  19
ENDBRANCH   4  13
BRANCH   1  25
ATOM     25  S   UNL     1       2.736   1.777  -0.359  0.00  0.00    -0.073 S 
BRANCH  25  27
ATOM     26  C   UNL     1       2.979   4.093  -1.787  0.00  0.00    +0.029 C 
ATOM     27  C   UNL     1       3.497   3.411  -0.519  0.00  0.00    +0.137 C 
BRANCH  27  28
ATOM     28  C   UNL     1       4.994   3.262  -0.605  0.00  0.00    +0.233 C 
ATOM     29  O   UNL     1       5.478   2.227  -1.011  0.00  0.00    -0.274 OA
ATOM     30  N   UNL     1       5.796   4.279  -0.230  0.00  0.00    -0.239 N 
ATOM     31  C   UNL     1       7.135   4.145  -0.307  0.00  0.00    +0.303 C 
ATOM     32  O   UNL     1       7.620   3.108  -0.714  0.00  0.00    -0.253 OA
ATOM     33  N   UNL     1       7.936   5.162   0.068  0.00  0.00    -0.313 N 
ATOM     34  H   UNL     1       5.409   5.107   0.095  0.00  0.00    +0.159 HD
ATOM     35  H   UNL     1       7.549   5.990   0.393  0.00  0.00    +0.146 HD
ATOM     36  H   UNL     1       8.900   5.066   0.013  0.00  0.00    +0.146 HD
ENDBRANCH  27  28
ENDBRANCH  25  27
ENDBRANCH   1  25
TORSDOF 7
