REMARK  Name = ZINC39686159
REMARK  8 active torsions:
REMARK  status: ('A' for Active; 'I' for Inactive)
REMARK    1  A    between atoms: C_1  and  C_2
REMARK    2  A    between atoms: C_7  and  C_8
REMARK    3  A    between atoms: C_12  and  C_21
REMARK    4  A    between atoms: N_23  and  C_24
REMARK    5  A    between atoms: C_30  and  C_32
REMARK    6  A    between atoms: C_32  and  C_33
REMARK    7  A    between atoms: C_33  and  C_34
REMARK    8  A    between atoms: C_33  and  C_35
REMARK                            x       y       z     vdW  Elec       q    Type
REMARK                         _______ _______ _______ _____ _____    ______ ____
ROOT
ATOM      1  C   UNL     1       0.116  -0.226   2.515  0.00  0.00    +0.247 C 
ATOM      2  O   UNL     1      -0.021   0.981   2.581  0.00  0.00    -0.270 OA
ATOM      3  N   UNL     1       0.322  -0.943   3.637  0.00  0.00    -0.296 N 
ATOM      4  C   UNL     1       0.621  -2.390   3.747  0.00  0.00    +0.121 C 
ATOM      5  C   UNL     1       1.669  -2.487   4.878  0.00  0.00    +0.100 C 
ATOM      6  C   UNL     1       1.454  -1.221   5.723  0.00  0.00    -0.004 C 
ATOM      7  C   UNL     1       0.308  -0.462   5.039  0.00  0.00    +0.115 C 
ATOM      8  C   UNL     1       2.717  -0.366   5.726  0.00  0.00    -0.010 C 
ATOM      9  C   UNL     1       2.497   0.858   6.619  0.00  0.00    -0.082 C 
ATOM     10  N   UNL     1       2.176   0.420   7.982  0.00  0.00    +0.379 N 
ATOM     11  C   UNL     1       0.910  -0.323   7.984  0.00  0.00    -0.082 C 
ATOM     12  C   UNL     1       1.062  -1.597   7.149  0.00  0.00    -0.010 C 
ATOM     13  H   UNL     1       2.914  -0.175   8.326  0.00  0.00    -0.086 HD
ATOM     14  H   UNL     1       2.091   1.227   8.582  0.00  0.00    -0.086 HD
ENDROOT
BRANCH   1  21
ATOM     15  C   UNL     1       1.415   0.970   0.223  0.00  0.00    +0.044 C 
ATOM     16  C   UNL     1       0.679  -0.338   0.091  0.00  0.00    -0.038 A 
ATOM     17  C   UNL     1       0.624  -0.980  -1.129  0.00  0.00    +0.004 A 
ATOM     18  C   UNL     1      -0.052  -2.181  -1.252  0.00  0.00    +0.000 A 
ATOM     19  C   UNL     1      -0.677  -2.746  -0.154  0.00  0.00    +0.001 A 
ATOM     20  C   UNL     1      -0.629  -2.114   1.071  0.00  0.00    +0.013 A 
ATOM     21  C   UNL     1       0.056  -0.905   1.203  0.00  0.00    +0.040 A 
ENDBRANCH   1  21
BRANCH   5  22
ATOM     22  C   UNL     1       3.062  -2.506   4.301  0.00  0.00    +0.218 C 
ATOM     23  O   UNL     1       3.281  -1.984   3.229  0.00  0.00    -0.275 OA
ATOM     24  N   UNL     1       4.064  -3.102   4.978  0.00  0.00    -0.312 N 
ATOM     25  H   UNL     1       3.888  -3.519   5.836  0.00  0.00    +0.149 HD
BRANCH  24  26
ATOM     26  C   UNL     1       5.417  -3.119   4.418  0.00  0.00    +0.076 C 
ATOM     27  C   UNL     1       5.556  -4.303   3.458  0.00  0.00    +0.041 C 
ATOM     28  C   UNL     1       6.961  -4.298   2.848  0.00  0.00    +0.109 C 
ATOM     29  N   UNL     1       7.949  -4.284   3.935  0.00  0.00    -0.301 N 
ATOM     30  C   UNL     1       7.851  -3.240   4.965  0.00  0.00    +0.109 C 
ATOM     31  C   UNL     1       6.436  -3.257   5.551  0.00  0.00    +0.041 C 
ATOM     32  C   UNL     1       8.926  -5.211   3.988  0.00  0.00    +0.216 C 
ATOM     33  O   UNL     1       8.995  -6.068   3.132  0.00  0.00    -0.276 OA
BRANCH  32  34
ATOM     34  C   UNL     1       9.931  -5.184   5.110  0.00  0.00    +0.099 C 
BRANCH  34  35
ATOM     35  C   UNL     1      10.923  -6.335   4.934  0.00  0.00    -0.008 C 
ATOM     36  C   UNL     1      12.016  -6.234   6.000  0.00  0.00    +0.008 C 
ATOM     37  C   UNL     1      10.188  -7.669   5.083  0.00  0.00    +0.008 C 
ENDBRANCH  34  35
ENDBRANCH  32  34
ENDBRANCH  24  26
ENDBRANCH   5  22
TORSDOF 5
