REMARK  Name = ZINC39974540
REMARK  7 active torsions:
REMARK  status: ('A' for Active; 'I' for Inactive)
REMARK    1  A    between atoms: C_1  and  C_2
REMARK    2  A    between atoms: N_7  and  S_9
REMARK    3  A    between atoms: S_9  and  C_12
REMARK    4  A    between atoms: C_15  and  N_18
REMARK    5  A    between atoms: N_18  and  C_19
REMARK    6  A    between atoms: C_19  and  N_21
REMARK    7  A    between atoms: N_21  and  C_22
REMARK                            x       y       z     vdW  Elec       q    Type
REMARK                         _______ _______ _______ _____ _____    ______ ____
ROOT
ATOM      1  C   UNL     1       1.709  -3.193   3.486  0.00  0.00    +0.106 A 
ATOM      2  C   UNL     1       2.734  -4.063   3.159  0.00  0.00    +0.030 A 
ATOM      3  C   UNL     1       3.803  -4.224   4.018  0.00  0.00    +0.025 A 
ATOM      4  C   UNL     1       3.849  -3.513   5.210  0.00  0.00    +0.033 A 
ATOM      5  C   UNL     1       2.819  -2.640   5.534  0.00  0.00    +0.025 A 
ATOM      6  C   UNL     1       1.754  -2.479   4.669  0.00  0.00    +0.030 A 
ENDROOT
BRANCH   1   7
ATOM      7  S   UNL     1       0.346  -2.990   2.388  0.00  0.00    +0.061 S 
ATOM      8  O   UNL     1      -0.743  -2.525   3.174  0.00  0.00    -0.153 OA
ATOM      9  O   UNL     1       0.272  -4.175   1.608  0.00  0.00    -0.153 OA
BRANCH   7  15
ATOM     10  C   UNL     1      -0.641   1.717   0.763  0.00  0.00    +0.009 C 
ATOM     11  C   UNL     1      -0.396   0.229   0.503  0.00  0.00    +0.002 C 
ATOM     12  C   UNL     1       0.405   0.062  -0.790  0.00  0.00    +0.006 C 
ATOM     13  C   UNL     1       0.623  -1.427  -1.068  0.00  0.00    +0.017 C 
ATOM     14  C   UNL     1       1.426  -2.045   0.081  0.00  0.00    +0.109 C 
ATOM     15  N   UNL     1       0.735  -1.762   1.346  0.00  0.00    -0.176 NA
ATOM     16  C   UNL     1       0.395  -0.370   1.671  0.00  0.00    +0.112 C 
ENDBRANCH   7  15
ENDBRANCH   1   7
BRANCH   4  17
ATOM     17  N   UNL     1       4.931  -3.675   6.082  0.00  0.00    -0.297 N 
ATOM     18  H   UNL     1       4.779  -3.735   7.038  0.00  0.00    +0.154 HD
BRANCH  17  19
ATOM     19  C   UNL     1       6.185  -3.747   5.593  0.00  0.00    +0.135 C 
ATOM     20  S   UNL     1       6.469  -3.498   3.923  0.00  0.00    -0.019 S 
BRANCH  19  21
ATOM     21  N   UNL     1       7.216  -4.014   6.420  0.00  0.00    -0.323 N 
ATOM     22  H   UNL     1       7.055  -4.155   7.366  0.00  0.00    +0.148 HD
BRANCH  21  23
ATOM     23  C   UNL     1       8.579  -4.092   5.889  0.00  0.00    +0.078 C 
ATOM     24  C   UNL     1       8.837  -5.501   5.350  0.00  0.00    +0.010 C 
ATOM     25  C   UNL     1      10.261  -5.582   4.795  0.00  0.00    +0.009 C 
ATOM     26  C   UNL     1      11.261  -5.272   5.911  0.00  0.00    -0.010 C 
ATOM     27  C   UNL     1      11.095  -6.289   7.042  0.00  0.00    +0.007 C 
ATOM     28  C   UNL     1       9.671  -6.207   7.596  0.00  0.00    -0.010 C 
ATOM     29  C   UNL     1       8.671  -6.518   6.481  0.00  0.00    +0.009 C 
ATOM     30  C   UNL     1       9.413  -4.799   8.135  0.00  0.00    +0.009 C 
ATOM     31  C   UNL     1       9.579  -3.782   7.004  0.00  0.00    +0.010 C 
ATOM     32  C   UNL     1      11.003  -3.863   6.450  0.00  0.00    +0.009 C 
ENDBRANCH  21  23
ENDBRANCH  19  21
ENDBRANCH  17  19
ENDBRANCH   4  17
TORSDOF 6
