REMARK  Name = ZINC08789550
REMARK  5 active torsions:
REMARK  status: ('A' for Active; 'I' for Inactive)
REMARK    1  A    between atoms: C_1  and  S_2
REMARK    2  A    between atoms: S_2  and  C_3
REMARK    3  A    between atoms: C_3  and  C_4
REMARK    4  A    between atoms: C_4  and  C_5
REMARK    5  A    between atoms: N_13  and  C_16
REMARK                            x       y       z     vdW  Elec       q    Type
REMARK                         _______ _______ _______ _____ _____    ______ ____
ROOT
ATOM      1  C   UNL     1       0.354   0.771   5.343  0.00  0.00    -0.057 C 
ATOM      2  C   UNL     1      -0.227   1.280   6.679  0.00  0.00    +0.073 C 
ATOM      3  C   UNL     1      -0.060   0.091   7.666  0.00  0.00    +0.088 C 
ATOM      4  C   UNL     1      -1.480  -0.303   8.003  0.00  0.00    +0.229 C 
ATOM      5  O   UNL     1      -1.799  -1.194   8.761  0.00  0.00    -0.275 OA
ATOM      6  N   UNL     1      -2.331   0.484   7.335  0.00  0.00    -0.210 N 
ATOM      7  C   UNL     1      -1.745   1.402   6.559  0.00  0.00    +0.228 C 
ATOM      8  O   UNL     1      -2.328   2.212   5.870  0.00  0.00    -0.275 OA
ATOM      9  C   UNL     1       0.596  -1.015   6.829  0.00  0.00    +0.050 C 
ATOM     10  C   UNL     1       2.083  -1.058   7.042  0.00  0.00    -0.028 A 
ATOM     11  C   UNL     1       3.093  -0.141   6.861  0.00  0.00    +0.004 A 
ATOM     12  C   UNL     1       4.401  -0.485   7.154  0.00  0.00    +0.000 A 
ATOM     13  C   UNL     1       4.690  -1.752   7.627  0.00  0.00    +0.002 A 
ATOM     14  C   UNL     1       3.680  -2.675   7.810  0.00  0.00    +0.023 A 
ATOM     15  C   UNL     1       2.361  -2.336   7.519  0.00  0.00    +0.036 A 
ATOM     16  N   UNL     1       1.184  -3.082   7.619  0.00  0.00    -0.286 N 
ATOM     17  C   UNL     1       0.103  -2.377   7.232  0.00  0.00    +0.211 C 
ATOM     18  O   UNL     1      -1.046  -2.766   7.213  0.00  0.00    -0.277 OA
ATOM     19  H   UNL     1       1.149  -4.000   7.930  0.00  0.00    +0.155 HD
ATOM     20  N   UNL     1       0.270  -0.687   5.453  0.00  0.00    +0.394 N 
ATOM     21  H   UNL     1       0.940  -1.131   4.814  0.00  0.00    -0.083 HD
ATOM     22  H   UNL     1      -0.680  -1.006   5.228  0.00  0.00    -0.083 HD
ENDROOT
BRANCH   6  23
ATOM     23  C   UNL     1      -3.723   0.357   7.441  0.00  0.00    +0.044 A 
ATOM     24  C   UNL     1      -4.353  -0.783   6.930  0.00  0.00    +0.024 A 
ATOM     25  C   UNL     1      -5.701  -0.937   7.021  0.00  0.00    +0.010 A 
ATOM     26  C   UNL     1      -6.478   0.066   7.627  0.00  0.00    -0.018 A 
ATOM     27  C   UNL     1      -7.874  -0.058   7.733  0.00  0.00    +0.008 A 
ATOM     28  C   UNL     1      -8.595   0.932   8.325  0.00  0.00    +0.001 A 
ATOM     29  C   UNL     1      -7.971   2.072   8.831  0.00  0.00    +0.001 A 
ATOM     30  C   UNL     1      -6.622   2.227   8.746  0.00  0.00    +0.008 A 
ATOM     31  C   UNL     1      -5.843   1.225   8.141  0.00  0.00    -0.016 A 
ATOM     32  C   UNL     1      -4.448   1.351   8.036  0.00  0.00    +0.032 A 
ENDBRANCH   6  23
BRANCH   1  33
ATOM     33  C   UNL     1      -0.478   1.291   4.169  0.00  0.00    -0.004 C 
BRANCH  33  34
ATOM     34  C   UNL     1       0.143   0.815   2.854  0.00  0.00    +0.067 C 
BRANCH  34  36
ATOM     35  C   UNL     1       0.014   0.788  -0.002  0.00  0.00    +0.084 C 
ATOM     36  S   UNL     1      -0.843   1.432   1.462  0.00  0.00    -0.164 S 
ENDBRANCH  34  36
ENDBRANCH  33  34
ENDBRANCH   1  33
TORSDOF 4
