REMARK  Name = ZINC11967385
REMARK  8 active torsions:
REMARK  status: ('A' for Active; 'I' for Inactive)
REMARK    1  A    between atoms: C_2  and  C_3
REMARK    2  A    between atoms: C_3  and  N_4
REMARK    3  A    between atoms: C_5  and  C_17
REMARK    4  A    between atoms: C_8  and  S_9
REMARK    5  A    between atoms: S_9  and  C_10
REMARK    6  A    between atoms: C_10  and  C_11
REMARK    7  A    between atoms: C_22  and  C_23
REMARK    8  A    between atoms: C_22  and  N_62
REMARK                            x       y       z     vdW  Elec       q    Type
REMARK                         _______ _______ _______ _____ _____    ______ ____
ROOT
ATOM      1  N   UNL     1      -5.838   3.836  -5.905  0.00  0.00    -0.302 N 
ATOM      2  C   UNL     1      -4.826   4.319  -5.123  0.00  0.00    +0.137 A 
ATOM      3  N   UNL     1      -4.161   5.182  -5.838  0.00  0.00    -0.133 NA
ATOM      4  N   UNL     1      -4.682   5.280  -7.008  0.00  0.00    -0.122 NA
ATOM      5  C   UNL     1      -5.717   4.478  -7.104  0.00  0.00    +0.192 A 
ENDROOT
BRANCH   2   6
ATOM      6  C   UNL     1      -4.532   3.923  -3.699  0.00  0.00    +0.054 C 
ATOM      7  C   UNL     1      -4.617   5.157  -2.796  0.00  0.00    -0.008 C 
ATOM      8  C   UNL     1      -4.259   4.760  -1.362  0.00  0.00    -0.078 C 
ATOM      9  C   UNL     1      -2.806   2.990  -2.154  0.00  0.00    -0.078 C 
ATOM     10  C   UNL     1      -3.121   3.334  -3.612  0.00  0.00    -0.008 C 
ATOM     11  N   UNL     1      -2.882   4.223  -1.343  0.00  0.00    +0.382 N 
ATOM     12  H   UNL     1      -2.246   4.923  -1.742  0.00  0.00    -0.081 HD
BRANCH  11  13
ATOM     13  C   UNL     1      -2.471   3.938   0.047  0.00  0.00    -0.041 C 
BRANCH  13  14
ATOM     14  C   UNL     1      -1.188   3.148   0.031  0.00  0.00    -0.046 A 
ATOM     15  C   UNL     1      -1.217   1.761   0.017  0.00  0.00    +0.005 A 
ATOM     16  C   UNL     1      -0.013   1.076   0.008  0.00  0.00    +0.020 A 
ATOM     17  C   UNL     1       1.170   1.792   0.001  0.00  0.00    +0.111 A 
ATOM     18  N   UNL     1       1.160   3.110   0.008  0.00  0.00    -0.263 NA
ATOM     19  C   UNL     1       0.033   3.795   0.023  0.00  0.00    +0.112 A 
ENDBRANCH  13  14
ENDBRANCH  11  13
ENDBRANCH   2   6
BRANCH   1  20
ATOM     20  C   UNL     1      -6.845   2.839  -5.534  0.00  0.00    +0.152 C 
BRANCH  20  22
ATOM     21  C   UNL     1      -9.236   3.326  -5.446  0.00  0.00    +0.005 C 
ATOM     22  C   UNL     1      -8.045   3.533  -4.942  0.00  0.00    -0.013 C 
ENDBRANCH  20  22
ENDBRANCH   1  20
BRANCH   5  23
ATOM     23  S   UNL     1      -6.750   4.265  -8.516  0.00  0.00    -0.086 S 
BRANCH  23  24
ATOM     24  C   UNL     1      -5.959   5.421  -9.662  0.00  0.00    +0.081 C 
BRANCH  24  25
ATOM     25  C   UNL     1      -6.706   5.407 -10.997  0.00  0.00    -0.001 C 
ATOM     26  C   UNL     1      -6.562   4.030 -11.648  0.00  0.00    +0.004 C 
ATOM     27  C   UNL     1      -7.309   4.017 -12.983  0.00  0.00    +0.000 C 
ATOM     28  C   UNL     1      -6.719   5.083 -13.909  0.00  0.00    +0.000 C 
ATOM     29  C   UNL     1      -6.863   6.460 -13.258  0.00  0.00    +0.000 C 
ATOM     30  C   UNL     1      -6.116   6.473 -11.922  0.00  0.00    +0.004 C 
ENDBRANCH  24  25
ENDBRANCH  23  24
ENDBRANCH   5  23
TORSDOF 8
