REMARK  Name = ZINC39201221
REMARK  7 active torsions:
REMARK  status: ('A' for Active; 'I' for Inactive)
REMARK    1  A    between atoms: C_1  and  C_2
REMARK    2  A    between atoms: C_8  and  C_11
REMARK    3  A    between atoms: C_11  and  C_12
REMARK    4  A    between atoms: C_12  and  N_13
REMARK    5  A    between atoms: C_14  and  C_16
REMARK    6  A    between atoms: C_25  and  N_29
REMARK    7  A    between atoms: C_30  and  C_32
REMARK                            x       y       z     vdW  Elec       q    Type
REMARK                         _______ _______ _______ _____ _____    ______ ____
ROOT
ATOM      1  C   UNL     1       2.664  -2.026   7.778  0.00  0.00    +0.173 C 
ATOM      2  C   UNL     1       1.994  -0.652   8.003  0.00  0.00    +0.103 C 
ATOM      3  S   UNL     1       3.402   0.344   8.659  0.00  0.00    -0.136 S 
ATOM      4  C   UNL     1       4.750  -0.805   8.143  0.00  0.00    +0.135 C 
ATOM      5  N   UNL     1       4.044  -2.100   8.268  0.00  0.00    -0.276 N 
ATOM      6  C   UNL     1       4.606  -3.220   8.773  0.00  0.00    +0.237 C 
ATOM      7  O   UNL     1       4.058  -4.288   8.599  0.00  0.00    -0.274 OA
ATOM      8  C   UNL     1       5.894  -3.172   9.544  0.00  0.00    +0.160 C 
ATOM      9  C   UNL     1       6.735  -1.982   9.082  0.00  0.00    +0.034 C 
ATOM     10  C   UNL     1       5.900  -0.709   9.132  0.00  0.00    +0.036 C 
ENDROOT
BRANCH   1  12
ATOM     11  N   UNL     1       1.497  -2.376   5.626  0.00  0.00    -0.313 N 
ATOM     12  C   UNL     1       2.662  -2.325   6.301  0.00  0.00    +0.234 C 
ATOM     13  O   UNL     1       3.709  -2.521   5.721  0.00  0.00    -0.274 OA
ATOM     14  H   UNL     1       0.660  -2.219   6.090  0.00  0.00    +0.149 HD
BRANCH  11  15
ATOM     15  C   UNL     1       1.495  -2.667   4.190  0.00  0.00    +0.110 C 
BRANCH  15  16
ATOM     16  C   UNL     1       0.055  -2.665   3.671  0.00  0.00    +0.074 C 
BRANCH  16  24
ATOM     17  C   UNL     1      -0.018   1.503   0.010  0.00  0.00    +0.045 C 
ATOM     18  C   UNL     1       0.002  -0.004   0.002  0.00  0.00    -0.034 A 
ATOM     19  C   UNL     1       0.006  -0.697  -1.220  0.00  0.00    +0.008 A 
ATOM     20  C   UNL     1       0.025  -2.057  -1.224  0.00  0.00    +0.045 A 
ATOM     21  C   UNL     1       0.040  -2.750   0.003  0.00  0.00    +0.115 A 
ATOM     22  N   UNL     1       0.059  -4.043   0.297  0.00  0.00    -0.346 N 
ATOM     23  C   UNL     1       0.067  -4.189   1.625  0.00  0.00    +0.106 A 
ATOM     24  C   UNL     1       0.053  -2.964   2.194  0.00  0.00    +0.042 A 
ATOM     25  N   UNL     1       0.036  -2.047   1.179  0.00  0.00    -0.305 N 
ATOM     26  C   UNL     1       0.022  -0.682   1.169  0.00  0.00    +0.096 A 
ATOM     27  H   UNL     1       0.066  -4.766  -0.348  0.00  0.00    +0.167 HD
ENDBRANCH  16  24
ENDBRANCH  15  16
ENDBRANCH  11  15
ENDBRANCH   1  12
BRANCH   8  28
ATOM     28  N   UNL     1       6.643  -4.411   9.318  0.00  0.00    -0.298 N 
ATOM     29  C   UNL     1       6.384  -5.501  10.067  0.00  0.00    +0.280 C 
ATOM     30  O   UNL     1       5.528  -5.456  10.931  0.00  0.00    -0.267 OA
ATOM     31  H   UNL     1       7.324  -4.447   8.629  0.00  0.00    +0.150 HD
BRANCH  29  32
ATOM     32  C   UNL     1       7.133  -6.741   9.841  0.00  0.00    +0.189 A 
ATOM     33  C   UNL     1       6.968  -7.913  10.521  0.00  0.00    +0.054 A 
ATOM     34  C   UNL     1       7.886  -8.827   9.979  0.00  0.00    +0.042 A 
ATOM     35  C   UNL     1       8.562  -8.180   9.004  0.00  0.00    +0.196 A 
ATOM     36  O   UNL     1       8.102  -6.925   8.920  0.00  0.00    -0.458 OA
ENDBRANCH  29  32
ENDBRANCH   8  28
TORSDOF 6
