REMARK  Name = ZINC66539971
REMARK  13 active torsions:
REMARK  status: ('A' for Active; 'I' for Inactive)
REMARK    1  A    between atoms: C_1  and  C_2
REMARK    2  A    between atoms: C_2  and  C_3
REMARK    3  A    between atoms: C_2  and  C_4
REMARK    4  A    between atoms: C_4  and  O_5
REMARK    5  A    between atoms: O_5  and  C_6
REMARK    6  A    between atoms: C_6  and  C_7
REMARK    7  A    between atoms: C_7  and  C_8
REMARK    8  A    between atoms: C_8  and  O_10
REMARK    9  A    between atoms: O_10  and  C_11
REMARK   10  A    between atoms: C_17  and  N_19
REMARK   11  A    between atoms: C_21  and  C_24
REMARK   12  A    between atoms: C_24  and  O_26
REMARK   13  A    between atoms: O_26  and  C_27
REMARK                            x       y       z     vdW  Elec       q    Type
REMARK                         _______ _______ _______ _____ _____    ______ ____
ROOT
ATOM      1  C   UNL     1      -5.396  -6.566  -0.357  0.00  0.00    +0.201 C 
ATOM      2  C   UNL     1      -5.813  -6.881   1.081  0.00  0.00    +0.047 C 
ATOM      3  C   UNL     1      -7.234  -7.448   1.088  0.00  0.00    +0.004 C 
ATOM      4  C   UNL     1      -7.275  -8.730   0.253  0.00  0.00    +0.002 C 
ATOM      5  C   UNL     1      -6.859  -8.415  -1.185  0.00  0.00    +0.030 C 
ATOM      6  C   UNL     1      -5.438  -7.847  -1.192  0.00  0.00    +0.149 C 
ENDROOT
BRANCH   6   7
ATOM      7  N   UNL     1      -5.039  -7.546  -2.569  0.00  0.00    -0.244 N 
ATOM      8  C   UNL     1      -5.836  -7.086  -3.554  0.00  0.00    +0.145 A 
ATOM      9  C   UNL     1      -5.053  -6.947  -4.665  0.00  0.00    +0.189 A 
ATOM     10  N   UNL     1      -3.800  -7.319  -4.351  0.00  0.00    -0.123 NA
ATOM     11  N   UNL     1      -3.754  -7.675  -3.114  0.00  0.00    -0.065 NA
BRANCH   9  12
ATOM     12  C   UNL     1      -5.505  -6.470  -5.984  0.00  0.00    +0.361 C 
ATOM     13  O   UNL     1      -6.668  -6.159  -6.152  0.00  0.00    -0.243 OA
BRANCH  12  14
ATOM     14  O   UNL     1      -4.629  -6.378  -7.004  0.00  0.00    -0.463 OA
ATOM     15  C   UNL     1      -5.136  -5.908  -8.255  0.00  0.00    +0.280 C 
ENDBRANCH  12  14
ENDBRANCH   9  12
ENDBRANCH   6   7
BRANCH   1  16
ATOM     16  O   UNL     1      -4.069  -6.036  -0.364  0.00  0.00    -0.459 OA
BRANCH  16  17
ATOM     17  C   UNL     1      -3.945  -4.704  -0.252  0.00  0.00    +0.310 C 
ATOM     18  O   UNL     1      -4.929  -4.011  -0.152  0.00  0.00    -0.251 OA
BRANCH  17  19
ATOM     19  C   UNL     1      -2.576  -4.073  -0.251  0.00  0.00    +0.148 C 
BRANCH  19  20
ATOM     20  C   UNL     1      -2.715  -2.555  -0.113  0.00  0.00    +0.171 C 
BRANCH  20  21
ATOM     21  O   UNL     1      -1.417  -1.957  -0.112  0.00  0.00    -0.379 OA
BRANCH  21  22
ATOM     22  C   UNL     1      -1.433  -0.534   0.013  0.00  0.00    +0.162 C 
BRANCH  22  24
ATOM     23  C   UNL     1      -0.019   1.526   0.010  0.00  0.00    +0.009 C 
ATOM     24  C   UNL     1       0.002  -0.004   0.002  0.00  0.00    +0.009 C 
ATOM     25  C   UNL     1       0.742  -0.511   1.242  0.00  0.00    +0.009 C 
ENDBRANCH  22  24
ENDBRANCH  21  22
ENDBRANCH  20  21
ENDBRANCH  19  20
ENDBRANCH  17  19
ENDBRANCH  16  17
ENDBRANCH   1  16
TORSDOF 10
