REMARK  Name = ZINC44014767
REMARK  7 active torsions:
REMARK  status: ('A' for Active; 'I' for Inactive)
REMARK    1  A    between atoms: C_1  and  C_2
REMARK    2  A    between atoms: C_5  and  C_16
REMARK    3  A    between atoms: C_8  and  C_15
REMARK    4  A    between atoms: C_21  and  O_22
REMARK    5  A    between atoms: O_22  and  C_23
REMARK    6  A    between atoms: C_23  and  C_25
REMARK    7  A    between atoms: C_29  and  C_30
REMARK                            x       y       z     vdW  Elec       q    Type
REMARK                         _______ _______ _______ _____ _____    ______ ____
ROOT
ATOM      1  C   UNL     1       0.621   0.011  -2.459  0.00  0.00    +0.015 A 
ATOM      2  C   UNL     1       1.624  -0.506  -1.661  0.00  0.00    +0.009 A 
ATOM      3  C   UNL     1       2.910  -0.009  -1.757  0.00  0.00    +0.001 A 
ATOM      4  C   UNL     1       3.197   1.005  -2.652  0.00  0.00    +0.004 A 
ATOM      5  C   UNL     1       2.199   1.525  -3.452  0.00  0.00    +0.047 A 
ATOM      6  C   UNL     1       0.908   1.025  -3.362  0.00  0.00    +0.137 A 
ENDROOT
BRANCH   1  11
ATOM      7  C   UNL     1      -0.890   0.979   0.241  0.00  0.00    +0.109 C 
ATOM      8  C   UNL     1      -1.045  -0.519   0.176  0.00  0.00    +0.214 C 
ATOM      9  O   UNL     1      -1.217  -1.155   1.194  0.00  0.00    -0.276 OA
ATOM     10  N   UNL     1      -0.991  -1.151  -1.013  0.00  0.00    -0.275 N 
ATOM     11  C   UNL     1      -0.781  -0.531  -2.354  0.00  0.00    +0.112 C 
ATOM     12  C   UNL     1      -0.998  -1.665  -3.405  0.00  0.00    +0.038 C 
ATOM     13  C   UNL     1      -1.885  -2.629  -2.625  0.00  0.00    +0.013 C 
ATOM     14  C   UNL     1      -1.117  -2.546  -1.248  0.00  0.00    +0.170 C 
ATOM     15  N   UNL     1      -1.662  -3.617  -0.496  0.00  0.00    -0.296 N 
ATOM     16  C   UNL     1      -1.943  -4.639  -1.369  0.00  0.00    +0.215 C 
ATOM     17  O   UNL     1      -2.310  -5.753  -1.059  0.00  0.00    -0.276 OA
ATOM     18  C   UNL     1      -1.722  -4.136  -2.806  0.00  0.00    +0.106 C 
ATOM     19  C   UNL     1      -3.349  -2.189  -2.582  0.00  0.00    +0.015 C 
ATOM     20  H   UNL     1      -1.811  -3.626   0.463  0.00  0.00    +0.150 HD
ENDBRANCH   1  11
BRANCH   6  21
ATOM     21  O   UNL     1      -0.075   1.530  -4.152  0.00  0.00    -0.422 OA
BRANCH  21  22
ATOM     22  C   UNL     1      -0.883   2.475  -3.631  0.00  0.00    +0.350 C 
ATOM     23  O   UNL     1      -0.665   2.916  -2.519  0.00  0.00    -0.244 OA
BRANCH  22  24
ATOM     24  C   UNL     1      -2.029   2.974  -4.408  0.00  0.00    +0.126 A 
ATOM     25  C   UNL     1      -2.458   2.507  -5.617  0.00  0.00    +0.245 A 
ATOM     26  O   UNL     1      -3.524   3.221  -5.987  0.00  0.00    -0.362 OA
ATOM     27  N   UNL     1      -3.810   4.188  -4.996  0.00  0.00    -0.077 NA
ATOM     28  C   UNL     1      -2.937   4.067  -4.029  0.00  0.00    +0.129 A 
BRANCH  28  29
ATOM     29  C   UNL     1      -2.874   4.879  -2.789  0.00  0.00    +0.023 A 
ATOM     30  C   UNL     1      -1.673   5.471  -2.402  0.00  0.00    +0.011 A 
ATOM     31  C   UNL     1      -1.619   6.225  -1.248  0.00  0.00    +0.001 A 
ATOM     32  C   UNL     1      -2.754   6.395  -0.475  0.00  0.00    +0.001 A 
ATOM     33  C   UNL     1      -3.949   5.810  -0.853  0.00  0.00    +0.020 A 
ATOM     34  C   UNL     1      -4.016   5.058  -2.010  0.00  0.00    +0.050 A 
ATOM     35 CL   UNL     1      -5.518   4.330  -2.488  0.00  0.00    -0.083 Cl
ENDBRANCH  28  29
ENDBRANCH  22  24
ENDBRANCH  21  22
ENDBRANCH   6  21
TORSDOF 5
