REMARK  Name = ZINC31961971
REMARK  8 active torsions:
REMARK  status: ('A' for Active; 'I' for Inactive)
REMARK    1  A    between atoms: C_1  and  C_2
REMARK    2  A    between atoms: C_2  and  C_4
REMARK    3  A    between atoms: C_2  and  N_24
REMARK    4  A    between atoms: C_4  and  N_5
REMARK    5  A    between atoms: C_6  and  C_8
REMARK    6  A    between atoms: C_8  and  N_9
REMARK    7  A    between atoms: C_12  and  C_16
REMARK    8  A    between atoms: C_12  and  C_17
REMARK                            x       y       z     vdW  Elec       q    Type
REMARK                         _______ _______ _______ _____ _____    ______ ____
ROOT
ATOM      1  N   UNL     1       0.640  -1.766   1.550  0.00  0.00    -0.316 N 
ATOM      2  C   UNL     1       1.180  -2.281   2.672  0.00  0.00    +0.231 C 
ATOM      3  O   UNL     1       1.803  -1.567   3.428  0.00  0.00    -0.274 OA
ATOM      4  H   UNL     1       0.141  -2.337   0.945  0.00  0.00    +0.149 HD
ENDROOT
BRANCH   1   5
ATOM      5  C   UNL     1       0.805  -0.343   1.244  0.00  0.00    +0.089 C 
BRANCH   5   7
ATOM      6  C   UNL     1       0.086   1.513  -0.267  0.00  0.00    -0.012 C 
ATOM      7  C   UNL     1      -0.011   0.009  -0.002  0.00  0.00    -0.054 C 
BRANCH   7   8
ATOM      8  N   UNL     1      -1.416  -0.361   0.212  0.00  0.00    +0.385 N 
ATOM      9  C   UNL     1      -2.173  -0.120  -1.023  0.00  0.00    -0.073 C 
ATOM     10  C   UNL     1      -3.545  -0.807  -0.908  0.00  0.00    +0.024 C 
ATOM     11  C   UNL     1      -4.116  -0.451   0.425  0.00  0.00    -0.011 A 
ATOM     12  C   UNL     1      -3.446   0.116   1.468  0.00  0.00    -0.054 A 
ATOM     13  C   UNL     1      -4.186   0.367   2.620  0.00  0.00    +0.009 A 
ATOM     14  C   UNL     1      -5.500   0.046   2.663  0.00  0.00    +0.045 A 
ATOM     15  S   UNL     1      -5.766  -0.644   1.036  0.00  0.00    -0.101 S 
ATOM     16  C   UNL     1      -1.961   0.433   1.321  0.00  0.00    -0.042 C 
ATOM     17  H   UNL     1      -1.469  -1.340   0.448  0.00  0.00    -0.081 HD
ENDBRANCH   7   8
ENDBRANCH   5   7
ENDBRANCH   1   5
BRANCH   2  18
ATOM     18  C   UNL     1       1.010  -3.745   2.986  0.00  0.00    +0.213 C 
BRANCH  18  19
ATOM     19  N   UNL     1       1.684  -4.055   4.249  0.00  0.00    -0.215 N 
ATOM     20  C   UNL     1       2.973  -4.439   4.346  0.00  0.00    +0.251 C 
ATOM     21  O   UNL     1       3.763  -4.587   3.438  0.00  0.00    -0.272 OA
ATOM     22  C   UNL     1       3.229  -4.645   5.825  0.00  0.00    +0.135 C 
ATOM     23  N   UNL     1       1.934  -4.324   6.449  0.00  0.00    -0.281 N 
ATOM     24  C   UNL     1       1.099  -3.987   5.450  0.00  0.00    +0.310 C 
ATOM     25  O   UNL     1      -0.059  -3.659   5.620  0.00  0.00    -0.252 OA
ATOM     26  C   UNL     1       4.317  -3.691   6.321  0.00  0.00    +0.047 C 
ATOM     27  H   UNL     1       1.726  -4.348   7.396  0.00  0.00    +0.152 HD
BRANCH  22  28
ATOM     28  C   UNL     1       3.611  -6.076   6.102  0.00  0.00    -0.015 A 
ATOM     29  C   UNL     1       4.279  -6.812   5.141  0.00  0.00    +0.009 A 
ATOM     30  C   UNL     1       4.630  -8.124   5.394  0.00  0.00    +0.039 A 
ATOM     31  C   UNL     1       4.312  -8.703   6.611  0.00  0.00    +0.123 A 
ATOM     32  C   UNL     1       3.643  -7.965   7.573  0.00  0.00    +0.039 A 
ATOM     33  C   UNL     1       3.298  -6.651   7.320  0.00  0.00    +0.009 A 
ATOM     34  F   UNL     1       4.655  -9.986   6.860  0.00  0.00    -0.205 F 
ENDBRANCH  22  28
ENDBRANCH  18  19
ENDBRANCH   2  18
TORSDOF 6
