REMARK  Name = ZINC36812262
REMARK  12 active torsions:
REMARK  status: ('A' for Active; 'I' for Inactive)
REMARK    1  A    between atoms: C_1  and  C_2
REMARK    2  A    between atoms: C_11  and  N_34
REMARK    3  A    between atoms: C_13  and  S_15
REMARK    4  A    between atoms: S_15  and  C_16
REMARK    5  A    between atoms: C_16  and  C_17
REMARK    6  A    between atoms: C_20  and  C_22
REMARK    7  A    between atoms: C_24  and  O_32
REMARK    8  A    between atoms: C_25  and  O_30
REMARK    9  A    between atoms: C_26  and  O_28
REMARK   10  A    between atoms: O_28  and  C_29
REMARK   11  A    between atoms: O_30  and  C_31
REMARK   12  A    between atoms: O_32  and  C_33
REMARK                            x       y       z     vdW  Elec       q    Type
REMARK                         _______ _______ _______ _____ _____    ______ ____
ROOT
ATOM      1  S   UNL     1       3.146  -8.060   0.631  0.00  0.00    -0.076 S 
ENDROOT
BRANCH   1  13
ATOM      2  C   UNL     1      -1.968   0.756   0.315  0.00  0.00    +0.008 C 
ATOM      3  C   UNL     1      -1.497  -0.696   0.209  0.00  0.00    -0.009 C 
ATOM      4  C   UNL     1      -0.576  -0.850  -1.005  0.00  0.00    +0.008 C 
ATOM      5  C   UNL     1      -0.302  -2.332  -1.262  0.00  0.00    +0.037 C 
ATOM      6  C   UNL     1       0.203  -2.973   0.028  0.00  0.00    -0.025 A 
ATOM      7  C   UNL     1      -0.006  -2.373   1.221  0.00  0.00    -0.004 A 
ATOM      8  S   UNL     1       0.733  -3.450   2.423  0.00  0.00    -0.073 S 
ATOM      9  C   UNL     1       1.322  -4.702   1.329  0.00  0.00    +0.115 A 
ATOM     10  C   UNL     1       0.920  -4.238   0.051  0.00  0.00    +0.051 A 
ATOM     11  C   UNL     1       1.260  -5.053  -1.068  0.00  0.00    +0.129 A 
ATOM     12  N   UNL     1       1.924  -6.173  -0.793  0.00  0.00    -0.207 NA
ATOM     13  C   UNL     1       2.268  -6.546   0.430  0.00  0.00    +0.191 A 
ATOM     14  N   UNL     1       1.980  -5.828   1.519  0.00  0.00    -0.214 NA
ATOM     15  C   UNL     1      -0.716  -1.077   1.474  0.00  0.00    +0.046 C 
BRANCH  11  16
ATOM     16  N   UNL     1       0.919  -4.701  -2.361  0.00  0.00    -0.343 N 
ATOM     17  H   UNL     1       1.360  -5.128  -3.112  0.00  0.00    +0.144 HD
ATOM     18  H   UNL     1       0.239  -4.027  -2.518  0.00  0.00    +0.144 HD
ENDBRANCH  11  16
ENDBRANCH   1  13
BRANCH   1  19
ATOM     19  C   UNL     1       3.321  -8.694  -1.060  0.00  0.00    +0.175 C 
BRANCH  19  20
ATOM     20  C   UNL     1       4.065 -10.004  -1.031  0.00  0.00    +0.228 A 
ATOM     21  N   UNL     1       3.533 -11.189  -0.923  0.00  0.00    -0.111 NA
ATOM     22  N   UNL     1       4.461 -12.080  -0.932  0.00  0.00    -0.107 NA
ATOM     23  C   UNL     1       5.627 -11.489  -1.048  0.00  0.00    +0.249 A 
ATOM     24  O   UNL     1       5.397 -10.162  -1.118  0.00  0.00    -0.419 OA
BRANCH  23  25
ATOM     25  C   UNL     1       6.946 -12.154  -1.097  0.00  0.00    +0.046 A 
ATOM     26  C   UNL     1       8.109 -11.391  -1.217  0.00  0.00    +0.063 A 
ATOM     27  C   UNL     1       9.343 -12.016  -1.263  0.00  0.00    +0.166 A 
ATOM     28  C   UNL     1       9.424 -13.403  -1.190  0.00  0.00    +0.204 A 
ATOM     29  C   UNL     1       8.266 -14.165  -1.072  0.00  0.00    +0.166 A 
ATOM     30  C   UNL     1       7.031 -13.545  -1.019  0.00  0.00    +0.063 A 
BRANCH  29  31
ATOM     31  O   UNL     1       8.349 -15.521  -1.002  0.00  0.00    -0.491 OA
ATOM     32  C   UNL     1       7.121 -16.241  -0.881  0.00  0.00    +0.277 C 
ENDBRANCH  29  31
BRANCH  28  33
ATOM     33  O   UNL     1      10.638 -14.015  -1.236  0.00  0.00    -0.488 OA
ATOM     34  C   UNL     1      11.301 -14.236   0.011  0.00  0.00    +0.277 C 
ENDBRANCH  28  33
BRANCH  27  35
ATOM     35  O   UNL     1      10.476 -11.274  -1.379  0.00  0.00    -0.491 OA
ATOM     36  C   UNL     1      10.319  -9.855  -1.449  0.00  0.00    +0.277 C 
ENDBRANCH  27  35
ENDBRANCH  23  25
ENDBRANCH  19  20
ENDBRANCH   1  19
TORSDOF 8
