REMARK  Name = ZINC13064235
REMARK  17 active torsions:
REMARK  status: ('A' for Active; 'I' for Inactive)
REMARK    1  A    between atoms: C_1  and  C_2
REMARK    2  A    between atoms: C_2  and  C_3
REMARK    3  A    between atoms: C_3  and  C_5
REMARK    4  A    between atoms: C_3  and  N_73
REMARK    5  A    between atoms: N_9  and  C_10
REMARK    6  A    between atoms: C_10  and  C_11
REMARK    7  A    between atoms: C_10  and  C_12
REMARK    8  A    between atoms: C_10  and  C_13
REMARK    9  A    between atoms: C_13  and  C_14
REMARK   10  A    between atoms: C_15  and  C_16
REMARK   11  A    between atoms: C_15  and  N_73
REMARK   12  A    between atoms: C_19  and  O_22
REMARK   13  A    between atoms: O_22  and  C_23
REMARK   14  A    between atoms: C_24  and  C_25
REMARK   15  A    between atoms: C_24  and  N_73
REMARK   16  A    between atoms: C_30  and  O_37
REMARK   17  A    between atoms: O_37  and  C_38
REMARK                            x       y       z     vdW  Elec       q    Type
REMARK                         _______ _______ _______ _____ _____    ______ ____
ROOT
ATOM      1  N   UNL     1      -0.007   0.013   0.009  0.00  0.00    +0.392 N 
ATOM      2  H   UNL     1       0.652   0.477  -0.626  0.00  0.00    -0.080 HD
ENDROOT
BRANCH   1   3
ATOM      3  C   UNL     1       0.650  -1.171   0.602  0.00  0.00    +0.003 C 
BRANCH   3   4
ATOM      4  C   UNL     1       2.133  -0.911   0.673  0.00  0.00    +0.139 A 
ATOM      5  N   UNL     1       2.715   0.223   0.980  0.00  0.00    -0.115 NA
ATOM      6  N   UNL     1       3.989   0.042   0.932  0.00  0.00    -0.023 NA
ATOM      7  N   UNL     1       4.236  -1.178   0.602  0.00  0.00    -0.043 NA
ATOM      8  N   UNL     1       3.116  -1.799   0.439  0.00  0.00    -0.225 N 
BRANCH   8   9
ATOM      9  C   UNL     1       2.948  -3.206   0.067  0.00  0.00    +0.061 C 
ATOM     10  C   UNL     1       2.036  -3.897   1.083  0.00  0.00    +0.036 C 
ATOM     11  C   UNL     1       2.319  -3.293  -1.325  0.00  0.00    +0.036 C 
BRANCH   9  12
ATOM     12  C   UNL     1       4.313  -3.897   0.054  0.00  0.00    +0.026 C 
ATOM     13  C   UNL     1       4.137  -5.366  -0.336  0.00  0.00    +0.006 C 
ENDBRANCH   9  12
ENDBRANCH   8   9
ENDBRANCH   3   4
BRANCH   3  15
ATOM     14  C   UNL     1      -1.392  -1.715   1.935  0.00  0.00    +0.002 C 
ATOM     15  C   UNL     1       0.110  -1.431   2.010  0.00  0.00    -0.011 C 
ENDBRANCH   3  15
ENDBRANCH   1   3
BRANCH   1  16
ATOM     16  C   UNL     1      -0.396   0.961   1.074  0.00  0.00    -0.042 C 
BRANCH  16  17
ATOM     17  C   UNL     1       0.837   1.688   1.548  0.00  0.00    -0.064 A 
ATOM     18  C   UNL     1       1.350   1.428   2.805  0.00  0.00    +0.005 A 
ATOM     19  C   UNL     1       2.483   2.089   3.240  0.00  0.00    +0.046 A 
ATOM     20  C   UNL     1       3.100   3.021   2.417  0.00  0.00    +0.120 A 
ATOM     21  C   UNL     1       2.579   3.283   1.158  0.00  0.00    +0.046 A 
ATOM     22  C   UNL     1       1.449   2.616   0.727  0.00  0.00    +0.005 A 
BRANCH  20  23
ATOM     23  O   UNL     1       4.212   3.675   2.844  0.00  0.00    -0.495 OA
ATOM     24  C   UNL     1       4.691   3.355   4.152  0.00  0.00    +0.277 C 
ENDBRANCH  20  23
ENDBRANCH  16  17
ENDBRANCH   1  16
BRANCH   1  25
ATOM     25  C   UNL     1      -1.201  -0.403  -0.757  0.00  0.00    -0.036 C 
BRANCH  25  26
ATOM     26  C   UNL     1      -0.750  -1.045  -2.043  0.00  0.00    +0.001 A 
ATOM     27  C   UNL     1      -0.700  -2.398  -2.142  0.00  0.00    +0.017 A 
ATOM     28  C   UNL     1      -0.259  -2.991  -3.404  0.00  0.00    -0.001 A 
ATOM     29  C   UNL     1      -0.187  -4.380  -3.564  0.00  0.00    +0.013 A 
ATOM     30  C   UNL     1       0.228  -4.905  -4.753  0.00  0.00    +0.046 A 
ATOM     31  C   UNL     1       0.581  -4.069  -5.811  0.00  0.00    +0.122 A 
ATOM     32  C   UNL     1       0.517  -2.693  -5.673  0.00  0.00    +0.072 A 
ATOM     33  C   UNL     1       0.097  -2.141  -4.470  0.00  0.00    +0.053 A 
ATOM     34  N   UNL     1       0.024  -0.774  -4.305  0.00  0.00    -0.322 N 
ATOM     35  H   UNL     1       0.269  -0.190  -5.039  0.00  0.00    +0.169 HD
ATOM     36  C   UNL     1      -0.388  -0.239  -3.142  0.00  0.00    +0.251 A 
ATOM     37  O   UNL     1      -0.446   0.974  -3.033  0.00  0.00    -0.268 OA
BRANCH  31  38
ATOM     38  O   UNL     1       0.991  -4.609  -6.987  0.00  0.00    -0.495 OA
ATOM     39  C   UNL     1       1.035  -6.035  -7.066  0.00  0.00    +0.277 C 
ENDBRANCH  31  38
ENDBRANCH  25  26
ENDBRANCH   1  25
TORSDOF 11
