REMARK  Name = ZINC55504211
REMARK  11 active torsions:
REMARK  status: ('A' for Active; 'I' for Inactive)
REMARK    1  A    between atoms: C_1  and  C_2
REMARK    2  A    between atoms: C_8  and  C_17
REMARK    3  A    between atoms: C_12  and  C_13
REMARK    4  A    between atoms: C_13  and  O_15
REMARK    5  A    between atoms: O_15  and  C_16
REMARK    6  A    between atoms: C_17  and  C_18
REMARK    7  A    between atoms: C_18  and  C_20
REMARK    8  A    between atoms: C_23  and  C_26
REMARK    9  A    between atoms: C_26  and  C_27
REMARK   10  A    between atoms: C_26  and  C_28
REMARK   11  A    between atoms: C_26  and  C_29
REMARK                            x       y       z     vdW  Elec       q    Type
REMARK                         _______ _______ _______ _____ _____    ______ ____
ROOT
ATOM      1  C   UNL     1      -0.018   1.503   0.010  0.00  0.00    +0.046 C 
ATOM      2  C   UNL     1       0.002  -0.004   0.002  0.00  0.00    -0.015 A 
ATOM      3  C   UNL     1       0.005  -0.697  -1.210  0.00  0.00    +0.076 A 
ATOM      4  C   UNL     1      -0.009  -0.166  -2.592  0.00  0.00    +0.260 A 
ATOM      5  O   UNL     1      -0.025   1.034  -2.800  0.00  0.00    -0.267 OA
ATOM      6  N   UNL     1      -0.002  -1.044  -3.614  0.00  0.00    -0.310 N 
ATOM      7  H   UNL     1      -0.010  -0.712  -4.525  0.00  0.00    +0.170 HD
ATOM      8  C   UNL     1       0.018  -2.382  -3.394  0.00  0.00    +0.118 A 
ATOM      9  N   UNL     1       0.030  -2.883  -2.189  0.00  0.00    -0.226 NA
ATOM     10  C   UNL     1       0.025  -2.108  -1.113  0.00  0.00    +0.116 A 
ATOM     11  S   UNL     1       0.037  -2.396   0.639  0.00  0.00    -0.062 S 
ATOM     12  C   UNL     1       0.023  -0.695   1.179  0.00  0.00    +0.102 A 
ENDROOT
BRANCH  12  13
ATOM     13  C   UNL     1       0.030  -0.170   2.547  0.00  0.00    +0.346 C 
ATOM     14  O   UNL     1       0.015   1.031   2.737  0.00  0.00    -0.244 OA
BRANCH  13  15
ATOM     15  O   UNL     1       0.051  -1.019   3.595  0.00  0.00    -0.464 OA
ATOM     16  C   UNL     1       0.057  -0.438   4.900  0.00  0.00    +0.280 C 
ENDBRANCH  13  15
ENDBRANCH  12  13
BRANCH   8  17
ATOM     17  C   UNL     1       0.024  -3.317  -4.576  0.00  0.00    +0.153 C 
BRANCH  17  18
ATOM     18  C   UNL     1       0.046  -4.743  -4.088  0.00  0.00    +0.170 C 
ATOM     19  O   UNL     1       0.055  -4.976  -2.898  0.00  0.00    -0.292 OA
BRANCH  18  20
ATOM     20  C   UNL     1       0.056  -5.851  -5.056  0.00  0.00    +0.018 A 
ATOM     21  C   UNL     1       0.051  -5.586  -6.429  0.00  0.00    +0.011 A 
ATOM     22  C   UNL     1       0.061  -6.630  -7.329  0.00  0.00    +0.005 A 
ATOM     23  C   UNL     1       0.075  -7.938  -6.877  0.00  0.00    -0.042 A 
ATOM     24  C   UNL     1       0.080  -8.209  -5.520  0.00  0.00    +0.005 A 
ATOM     25  C   UNL     1       0.076  -7.176  -4.607  0.00  0.00    +0.011 A 
BRANCH  23  26
ATOM     26  C   UNL     1       0.086  -9.073  -7.868  0.00  0.00    -0.013 C 
ATOM     27  C   UNL     1       1.333  -8.970  -8.749  0.00  0.00    +0.015 C 
ATOM     28  C   UNL     1       0.102 -10.406  -7.117  0.00  0.00    +0.015 C 
ATOM     29  C   UNL     1      -1.165  -8.997  -8.745  0.00  0.00    +0.015 C 
ENDBRANCH  23  26
ENDBRANCH  18  20
ENDBRANCH  17  18
ENDBRANCH   8  17
TORSDOF 6
