REMARK  Name = ZINC08276696
REMARK  3 active torsions:
REMARK  status: ('A' for Active; 'I' for Inactive)
REMARK    1  A    between atoms: C_1  and  C_2
REMARK    2  A    between atoms: C_9  and  C_18
REMARK    3  A    between atoms: C_20  and  N_25
REMARK                            x       y       z     vdW  Elec       q    Type
REMARK                         _______ _______ _______ _____ _____    ______ ____
ROOT
ATOM      1  C   UNL     1       4.135   1.732   3.145  0.00  0.00    +0.047 C 
ATOM      2  C   UNL     1       2.661   1.941   3.379  0.00  0.00    -0.011 A 
ATOM      3  C   UNL     1       2.214   2.347   4.620  0.00  0.00    +0.046 A 
ATOM      4  C   UNL     1       0.860   2.537   4.833  0.00  0.00    +0.020 A 
ATOM      5  C   UNL     1      -0.037   2.322   3.807  0.00  0.00    +0.007 A 
ATOM      6  C   UNL     1       0.403   1.917   2.554  0.00  0.00    -0.019 A 
ATOM      7  C   UNL     1       1.757   1.723   2.341  0.00  0.00    +0.036 A 
ATOM      8  N   UNL     1       2.262   1.310   1.109  0.00  0.00    -0.336 N 
ATOM      9  C   UNL     1       1.391   1.695  -0.002  0.00  0.00    +0.106 C 
ATOM     10  C   UNL     1      -0.000   1.095   0.210  0.00  0.00    +0.029 C 
ATOM     11  C   UNL     1      -0.615   1.696   1.493  0.00  0.00    +0.049 C 
ATOM     12  C   UNL     1      -1.185   3.021   1.043  0.00  0.00    -0.023 C 
ATOM     13  C   UNL     1      -1.375   3.022  -0.253  0.00  0.00    -0.030 C 
ATOM     14  C   UNL     1      -0.947   1.692  -0.868  0.00  0.00    +0.033 C 
ATOM     15 CL   UNL     1       3.346   2.619   5.908  0.00  0.00    -0.083 Cl
ATOM     16  H   UNL     1       3.200   1.654   0.969  0.00  0.00    +0.147 HD
ENDROOT
BRANCH   9  17
ATOM     17  C   UNL     1       1.286   3.197  -0.061  0.00  0.00    -0.007 A 
ATOM     18  C   UNL     1       1.331   3.939   1.105  0.00  0.00    +0.039 A 
ATOM     19  C   UNL     1       1.241   5.318   1.050  0.00  0.00    +0.127 A 
ATOM     20  C   UNL     1       1.095   5.954  -0.168  0.00  0.00    +0.034 A 
ATOM     21  C   UNL     1       1.044   5.213  -1.334  0.00  0.00    +0.022 A 
ATOM     22  C   UNL     1       1.140   3.833  -1.280  0.00  0.00    +0.046 A 
ATOM     23 CL   UNL     1       1.077   2.902  -2.744  0.00  0.00    -0.083 Cl
BRANCH  19  24
ATOM     24  N   UNL     1       1.294   6.112   2.298  0.00  0.00    +0.056 N 
ATOM     25  O   UNL     1       1.209   7.326   2.251  0.00  0.00    -0.126 OA
ATOM     26  O   UNL     1       1.423   5.552   3.372  0.00  0.00    -0.126 OA
ENDBRANCH  19  24
ENDBRANCH   9  17
TORSDOF 2
