REMARK  Name = ZINC46584657
REMARK  9 active torsions:
REMARK  status: ('A' for Active; 'I' for Inactive)
REMARK    1  A    between atoms: C_1  and  C_2
REMARK    2  A    between atoms: C_2  and  C_3
REMARK    3  A    between atoms: C_3  and  N_4
REMARK    4  A    between atoms: C_14  and  S_17
REMARK    5  A    between atoms: S_17  and  C_18
REMARK    6  A    between atoms: C_18  and  C_20
REMARK    7  A    between atoms: C_18  and  C_21
REMARK    8  A    between atoms: N_23  and  C_24
REMARK    9  A    between atoms: C_30  and  C_32
REMARK                            x       y       z     vdW  Elec       q    Type
REMARK                         _______ _______ _______ _____ _____    ______ ____
ROOT
ATOM      1  N   UNL     1       0.738  -1.962  -1.265  0.00  0.00    -0.323 N 
ATOM      2  C   UNL     1       1.737  -2.743  -0.705  0.00  0.00    +0.053 A 
ATOM      3  C   UNL     1       2.910  -2.420  -0.030  0.00  0.00    +0.026 A 
ATOM      4  C   UNL     1       3.739  -3.420   0.430  0.00  0.00    +0.002 A 
ATOM      5  C   UNL     1       3.416  -4.753   0.228  0.00  0.00    +0.001 A 
ATOM      6  C   UNL     1       2.259  -5.093  -0.438  0.00  0.00    +0.012 A 
ATOM      7  C   UNL     1       1.411  -4.092  -0.909  0.00  0.00    +0.029 A 
ATOM      8  C   UNL     1       0.132  -4.106  -1.639  0.00  0.00    +0.138 A 
ATOM      9  C   UNL     1      -0.233  -2.756  -1.823  0.00  0.00    +0.165 A 
ATOM     10  N   UNL     1      -1.370  -2.491  -2.460  0.00  0.00    -0.201 NA
ATOM     11  C   UNL     1      -2.119  -3.496  -2.896  0.00  0.00    +0.212 A 
ATOM     12  N   UNL     1      -1.755  -4.760  -2.706  0.00  0.00    -0.122 NA
ATOM     13  N   UNL     1      -0.657  -5.064  -2.103  0.00  0.00    -0.143 NA
ENDROOT
BRANCH   1  14
ATOM     14  C   UNL     1       0.718  -0.497  -1.257  0.00  0.00    +0.123 C 
BRANCH  14  16
ATOM     15  C   UNL     1      -0.019   1.526   0.010  0.00  0.00    +0.005 C 
ATOM     16  C   UNL     1       0.002  -0.004   0.002  0.00  0.00    +0.018 C 
ENDBRANCH  14  16
ENDBRANCH   1  14
BRANCH  11  17
ATOM     17  S   UNL     1      -3.625  -3.148  -3.740  0.00  0.00    -0.072 S 
BRANCH  17  18
ATOM     18  C   UNL     1      -4.294  -4.786  -4.138  0.00  0.00    +0.137 C 
ATOM     19  C   UNL     1      -3.359  -5.494  -5.122  0.00  0.00    +0.029 C 
BRANCH  18  20
ATOM     20  C   UNL     1      -5.657  -4.634  -4.763  0.00  0.00    +0.226 C 
ATOM     21  O   UNL     1      -5.951  -3.606  -5.334  0.00  0.00    -0.275 OA
ATOM     22  N   UNL     1      -6.550  -5.641  -4.686  0.00  0.00    -0.311 N 
ATOM     23  H   UNL     1      -6.314  -6.464  -4.229  0.00  0.00    +0.149 HD
BRANCH  22  24
ATOM     24  C   UNL     1      -7.875  -5.494  -5.293  0.00  0.00    +0.076 C 
ATOM     25  C   UNL     1      -7.801  -5.866  -6.775  0.00  0.00    +0.022 C 
ATOM     26  C   UNL     1      -9.185  -5.712  -7.409  0.00  0.00    +0.002 C 
ATOM     27  C   UNL     1     -10.177  -6.636  -6.699  0.00  0.00    +0.000 C 
ATOM     28  C   UNL     1     -10.251  -6.263  -5.217  0.00  0.00    +0.005 C 
ATOM     29  C   UNL     1      -8.867  -6.417  -4.583  0.00  0.00    +0.006 C 
ATOM     30  C   UNL     1      -8.940  -6.045  -3.101  0.00  0.00    +0.009 C 
ENDBRANCH  22  24
ENDBRANCH  18  20
ENDBRANCH  17  18
ENDBRANCH  11  17
TORSDOF 6
