REMARK  Name = ZINC06133704
REMARK  7 active torsions:
REMARK  status: ('A' for Active; 'I' for Inactive)
REMARK    1  A    between atoms: C_1  and  C_2
REMARK    2  A    between atoms: C_7  and  C_8
REMARK    3  A    between atoms: N_9  and  N_10
REMARK    4  A    between atoms: C_11  and  C_13
REMARK    5  A    between atoms: C_13  and  N_52
REMARK    6  A    between atoms: N_16  and  S_19
REMARK    7  A    between atoms: S_19  and  C_22
REMARK                            x       y       z     vdW  Elec       q    Type
REMARK                         _______ _______ _______ _____ _____    ______ ____
ROOT
ATOM      1  C   UNL     1      -8.541   1.815   0.158  0.00  0.00    -0.061 C 
ATOM      2  C   UNL     1      -9.677   2.838   0.037  0.00  0.00    +0.091 C 
ATOM      3  N   UNL     1     -10.836   2.177  -0.581  0.00  0.00    -0.180 NA
ATOM      4  C   UNL     1     -10.629   1.436  -1.834  0.00  0.00    +0.091 C 
ATOM      5  C   UNL     1      -9.457   0.469  -1.640  0.00  0.00    -0.061 C 
ATOM      6  N   UNL     1      -8.280   1.236  -1.178  0.00  0.00    +0.387 N 
ATOM      7  H   UNL     1      -8.098   1.999  -1.841  0.00  0.00    -0.081 HD
ENDROOT
BRANCH   3   8
ATOM      8  S   UNL     1     -12.336   2.265   0.117  0.00  0.00    +0.061 S 
ATOM      9  O   UNL     1     -12.341   3.436   0.923  0.00  0.00    -0.153 OA
ATOM     10  O   UNL     1     -13.281   2.053  -0.923  0.00  0.00    -0.153 OA
BRANCH   8  11
ATOM     11  C   UNL     1     -12.480   0.896   1.216  0.00  0.00    +0.106 A 
ATOM     12  C   UNL     1     -12.994  -0.304   0.762  0.00  0.00    +0.029 A 
ATOM     13  C   UNL     1     -13.103  -1.380   1.622  0.00  0.00    +0.017 A 
ATOM     14  C   UNL     1     -12.707  -1.253   2.942  0.00  0.00    +0.018 A 
ATOM     15  C   UNL     1     -12.198  -0.050   3.398  0.00  0.00    +0.017 A 
ATOM     16  C   UNL     1     -12.085   1.024   2.535  0.00  0.00    +0.029 A 
ATOM     17 BR   UNL     1     -12.862  -2.722   4.122  0.00  0.00    -0.050 Br
ENDBRANCH   8  11
ENDBRANCH   3   8
BRANCH   6  18
ATOM     18  C   UNL     1      -7.094   0.357  -1.123  0.00  0.00    +0.020 C 
BRANCH  18  20
ATOM     19  N   UNL     1      -4.658   0.626  -0.789  0.00  0.00    -0.209 N 
ATOM     20  C   UNL     1      -5.874   1.202  -0.864  0.00  0.00    +0.216 C 
ATOM     21  O   UNL     1      -5.987   2.402  -0.723  0.00  0.00    -0.276 OA
ATOM     22  H   UNL     1      -4.568  -0.333  -0.902  0.00  0.00    +0.177 HD
BRANCH  19  24
ATOM     23  C   UNL     1      -2.353   0.858  -0.477  0.00  0.00    +0.138 C 
ATOM     24  N   UNL     1      -3.524   1.413  -0.549  0.00  0.00    -0.188 NA
BRANCH  23  31
ATOM     25  C   UNL     1      -2.665   3.674   0.107  0.00  0.00    +0.044 C 
ATOM     26  C   UNL     1      -1.296   3.046   0.060  0.00  0.00    -0.042 A 
ATOM     27  C   UNL     1      -0.174   3.816   0.290  0.00  0.00    +0.004 A 
ATOM     28  C   UNL     1       1.084   3.241   0.247  0.00  0.00    +0.000 A 
ATOM     29  C   UNL     1       1.226   1.892  -0.027  0.00  0.00    +0.001 A 
ATOM     30  C   UNL     1       0.114   1.111  -0.260  0.00  0.00    +0.010 A 
ATOM     31  C   UNL     1      -1.159   1.686  -0.224  0.00  0.00    -0.003 A 
ENDBRANCH  23  31
ENDBRANCH  19  24
ENDBRANCH  18  20
ENDBRANCH   6  18
TORSDOF 6
