REMARK  Name = ZINC10067112
REMARK  14 active torsions:
REMARK  status: ('A' for Active; 'I' for Inactive)
REMARK    1  A    between atoms: C_1  and  C_2
REMARK    2  A    between atoms: C_2  and  N_62
REMARK    3  A    between atoms: C_3  and  C_4
REMARK    4  A    between atoms: C_3  and  N_62
REMARK    5  A    between atoms: C_5  and  C_6
REMARK    6  A    between atoms: C_5  and  N_62
REMARK    7  A    between atoms: C_6  and  N_7
REMARK    8  A    between atoms: C_11  and  C_18
REMARK    9  A    between atoms: C_13  and  C_17
REMARK   10  A    between atoms: C_19  and  C_21
REMARK   11  A    between atoms: C_23  and  O_29
REMARK   12  A    between atoms: C_25  and  O_27
REMARK   13  A    between atoms: O_27  and  C_28
REMARK   14  A    between atoms: O_29  and  C_30
REMARK                            x       y       z     vdW  Elec       q    Type
REMARK                         _______ _______ _______ _____ _____    ______ ____
ROOT
ATOM      1  N   UNL     1      -1.771   4.588  -0.459  0.00  0.00    -0.248 N 
ATOM      2  C   UNL     1      -2.535   4.931  -1.561  0.00  0.00    +0.168 A 
ATOM      3  N   UNL     1      -3.733   4.511  -1.895  0.00  0.00    -0.224 NA
ATOM      4  C   UNL     1      -4.366   4.935  -3.010  0.00  0.00    +0.083 A 
ATOM      5  C   UNL     1      -5.647   4.565  -3.481  0.00  0.00    -0.024 A 
ATOM      6  C   UNL     1      -6.146   5.094  -4.642  0.00  0.00    +0.009 A 
ATOM      7  C   UNL     1      -5.419   6.005  -5.395  0.00  0.00    -0.049 A 
ATOM      8  C   UNL     1      -4.162   6.389  -4.964  0.00  0.00    +0.020 A 
ATOM      9  C   UNL     1      -3.655   5.865  -3.802  0.00  0.00    +0.041 A 
ATOM     10  S   UNL     1      -2.144   6.063  -2.887  0.00  0.00    -0.052 S 
ATOM     11  C   UNL     1      -5.993   6.571  -6.668  0.00  0.00    +0.044 C 
ATOM     12  C   UNL     1      -6.473   3.578  -2.697  0.00  0.00    +0.046 C 
ATOM     13  C   UNL     1      -2.248   3.709   0.445  0.00  0.00    +0.252 C 
ATOM     14  O   UNL     1      -3.275   3.101   0.218  0.00  0.00    -0.270 OA
ENDROOT
BRANCH  13  15
ATOM     15  C   UNL     1      -1.521   3.485   1.713  0.00  0.00    +0.044 A 
ATOM     16  C   UNL     1      -0.152   3.215   1.697  0.00  0.00    +0.059 A 
ATOM     17  C   UNL     1       0.523   3.001   2.887  0.00  0.00    +0.124 A 
ATOM     18  C   UNL     1      -0.159   3.053   4.093  0.00  0.00    +0.091 A 
ATOM     19  C   UNL     1      -1.520   3.321   4.114  0.00  0.00    +0.124 A 
ATOM     20  C   UNL     1      -2.204   3.537   2.929  0.00  0.00    +0.059 A 
BRANCH  19  21
ATOM     21  O   UNL     1      -2.184   3.371   5.299  0.00  0.00    -0.495 OA
ATOM     22  C   UNL     1      -1.417   3.139   6.482  0.00  0.00    +0.277 C 
ENDBRANCH  19  21
BRANCH  17  23
ATOM     23  O   UNL     1       1.857   2.739   2.872  0.00  0.00    -0.495 OA
ATOM     24  C   UNL     1       2.490   2.528   4.136  0.00  0.00    +0.277 C 
ENDBRANCH  17  23
ENDBRANCH  13  15
BRANCH   1  25
ATOM     25  C   UNL     1      -0.443   5.180  -0.275  0.00  0.00    +0.097 C 
BRANCH  25  26
ATOM     26  C   UNL     1       0.297   5.199  -1.614  0.00  0.00    -0.059 C 
BRANCH  26  27
ATOM     27  N   UNL     1       1.637   5.786  -1.403  0.00  0.00    +0.380 N 
ATOM     28  H   UNL     1       1.576   6.501  -0.669  0.00  0.00    -0.082 HD
BRANCH  27  30
ATOM     29  C   UNL     1       2.752   3.682  -2.069  0.00  0.00    -0.017 C 
ATOM     30  C   UNL     1       2.586   4.737  -0.974  0.00  0.00    -0.082 C 
ENDBRANCH  27  30
BRANCH  27  31
ATOM     31  C   UNL     1       2.113   6.418  -2.651  0.00  0.00    -0.082 C 
ATOM     32  C   UNL     1       3.430   7.143  -2.368  0.00  0.00    -0.017 C 
ENDBRANCH  27  31
ENDBRANCH  26  27
ENDBRANCH  25  26
ENDBRANCH   1  25
TORSDOF 8
