REMARK  Name = ZINC63529124
REMARK  7 active torsions:
REMARK  status: ('A' for Active; 'I' for Inactive)
REMARK    1  A    between atoms: C_1  and  C_2
REMARK    2  A    between atoms: C_6  and  C_7
REMARK    3  A    between atoms: N_9  and  C_10
REMARK    4  A    between atoms: C_10  and  C_11
REMARK    5  A    between atoms: C_11  and  C_12
REMARK    6  A    between atoms: C_12  and  C_13
REMARK    7  A    between atoms: C_12  and  C_14
REMARK                            x       y       z     vdW  Elec       q    Type
REMARK                         _______ _______ _______ _____ _____    ______ ____
ROOT
ATOM      1  C   UNL     1      -0.018   1.503   0.010  0.00  0.00    +0.048 C 
ATOM      2  C   UNL     1       0.002  -0.004   0.002  0.00  0.00    +0.006 A 
ATOM      3  C   UNL     1       0.008  -0.833  -1.120  0.00  0.00    +0.027 A 
ATOM      4  C   UNL     1       0.017  -2.122  -0.690  0.00  0.00    +0.112 A 
ATOM      5  O   UNL     1       0.048  -2.103   0.653  0.00  0.00    -0.454 OA
ATOM      6  C   UNL     1       0.024  -0.828   1.092  0.00  0.00    +0.193 A 
ATOM      7  C   UNL     1      -0.030  -3.368  -1.539  0.00  0.00    +0.079 C 
ATOM      8  C   UNL     1       0.237  -3.042  -3.018  0.00  0.00    +0.042 C 
ATOM      9  C   UNL     1      -0.415  -1.719  -3.301  0.00  0.00    -0.019 C 
ATOM     10  C   UNL     1      -1.387  -1.327  -4.090  0.00  0.00    +0.136 C 
ATOM     11  N   UNL     1      -1.722  -0.039  -3.822  0.00  0.00    -0.162 NA
ATOM     12  N   UNL     1      -1.016   0.506  -2.960  0.00  0.00    -0.175 NA
ATOM     13  C   UNL     1       0.019  -0.445  -2.571  0.00  0.00    +0.189 C 
ENDROOT
BRANCH   6  14
ATOM     14  C   UNL     1       0.019  -0.401   2.495  0.00  0.00    +0.280 C 
ATOM     15  O   UNL     1      -0.007   0.785   2.770  0.00  0.00    -0.267 OA
ATOM     16  N   UNL     1       0.043  -1.320   3.480  0.00  0.00    -0.309 N 
ATOM     17  H   UNL     1       0.063  -2.265   3.261  0.00  0.00    +0.149 HD
BRANCH  16  18
ATOM     18  C   UNL     1       0.038  -0.893   4.881  0.00  0.00    +0.105 C 
BRANCH  18  19
ATOM     19  C   UNL     1       0.068  -2.124   5.790  0.00  0.00    +0.022 C 
BRANCH  19  20
ATOM     20  C   UNL     1       0.063  -1.678   7.253  0.00  0.00    -0.016 C 
ATOM     21  C   UNL     1      -1.260  -0.976   7.568  0.00  0.00    +0.007 C 
ATOM     22  C   UNL     1       0.219  -2.901   8.160  0.00  0.00    +0.007 C 
ENDBRANCH  19  20
ENDBRANCH  18  19
ENDBRANCH  16  18
ENDBRANCH   6  14
TORSDOF 4
