REMARK  Name = ZINC17535238
REMARK  10 active torsions:
REMARK  status: ('A' for Active; 'I' for Inactive)
REMARK    1  A    between atoms: C_1  and  C_2
REMARK    2  A    between atoms: C_2  and  C_3
REMARK    3  A    between atoms: C_3  and  C_4
REMARK    4  A    between atoms: C_4  and  C_5
REMARK    5  A    between atoms: C_5  and  C_6
REMARK    6  A    between atoms: C_6  and  N_7
REMARK    7  A    between atoms: C_8  and  C_22
REMARK    8  A    between atoms: C_11  and  S_12
REMARK    9  A    between atoms: S_12  and  C_13
REMARK   10  A    between atoms: C_13  and  C_14
REMARK                            x       y       z     vdW  Elec       q    Type
REMARK                         _______ _______ _______ _____ _____    ______ ____
ROOT
ATOM      1  N   UNL     1      -0.013   1.087   2.447  0.00  0.00    -0.302 N 
ATOM      2  C   UNL     1      -0.304  -0.035   3.188  0.00  0.00    +0.165 A 
ATOM      3  N   UNL     1       0.569  -0.087   4.166  0.00  0.00    -0.128 NA
ATOM      4  N   UNL     1       1.370   0.916   4.095  0.00  0.00    -0.122 NA
ATOM      5  C   UNL     1       1.060   1.667   3.062  0.00  0.00    +0.192 A 
ENDROOT
BRANCH   2   6
ATOM      6  C   UNL     1      -1.393  -1.001   2.929  0.00  0.00    +0.019 A 
ATOM      7  C   UNL     1      -1.831  -1.852   3.944  0.00  0.00    +0.013 A 
ATOM      8  C   UNL     1      -2.850  -2.748   3.698  0.00  0.00    +0.021 A 
ATOM      9  C   UNL     1      -3.432  -2.811   2.443  0.00  0.00    +0.041 A 
ATOM     10  C   UNL     1      -2.998  -1.973   1.430  0.00  0.00    +0.021 A 
ATOM     11  C   UNL     1      -1.982  -1.069   1.665  0.00  0.00    +0.013 A 
ATOM     12 CL   UNL     1      -4.710  -3.946   2.139  0.00  0.00    -0.084 Cl
ENDBRANCH   2   6
BRANCH   1  13
ATOM     13  C   UNL     1      -0.712   1.565   1.251  0.00  0.00    +0.126 C 
BRANCH  13  14
ATOM     14  C   UNL     1      -0.015   1.021   0.002  0.00  0.00    +0.022 C 
BRANCH  14  15
ATOM     15  C   UNL     1      -0.746   1.520  -1.247  0.00  0.00    +0.002 C 
BRANCH  15  16
ATOM     16  C   UNL     1      -0.049   0.976  -2.496  0.00  0.00    -0.000 C 
BRANCH  16  18
ATOM     17  C   UNL     1      -0.083   0.931  -4.994  0.00  0.00    +0.004 C 
ATOM     18  C   UNL     1      -0.779   1.475  -3.745  0.00  0.00    -0.003 C 
ENDBRANCH  16  18
ENDBRANCH  15  16
ENDBRANCH  14  15
ENDBRANCH  13  14
ENDBRANCH   1  13
BRANCH   5  19
ATOM     19  S   UNL     1       1.876   3.147   2.564  0.00  0.00    -0.078 S 
BRANCH  19  20
ATOM     20  C   UNL     1       3.152   3.248   3.844  0.00  0.00    +0.153 C 
BRANCH  20  21
ATOM     21  C   UNL     1       3.998   4.474   3.614  0.00  0.00    +0.146 A 
ATOM     22  N   UNL     1       5.080   4.396   2.859  0.00  0.00    -0.199 NA
ATOM     23  C   UNL     1       5.827   5.478   2.650  0.00  0.00    +0.217 A 
ATOM     24  N   UNL     1       5.489   6.635   3.210  0.00  0.00    -0.181 NA
ATOM     25  C   UNL     1       4.404   6.708   3.973  0.00  0.00    +0.217 A 
ATOM     26  N   UNL     1       3.659   5.623   4.173  0.00  0.00    -0.199 NA
ATOM     27  N   UNL     1       4.049   7.906   4.557  0.00  0.00    -0.327 N 
ATOM     28  N   UNL     1       6.954   5.397   1.858  0.00  0.00    -0.327 N 
ATOM     29  H   UNL     1       3.257   7.959   5.114  0.00  0.00    +0.145 HD
ATOM     30  H   UNL     1       4.592   8.697   4.411  0.00  0.00    +0.145 HD
ATOM     31  H   UNL     1       7.500   6.185   1.709  0.00  0.00    +0.145 HD
ATOM     32  H   UNL     1       7.199   4.553   1.449  0.00  0.00    +0.145 HD
ENDBRANCH  20  21
ENDBRANCH  19  20
ENDBRANCH   5  19
TORSDOF 9
