REMARK  Name = ZINC04848048
REMARK  6 active torsions:
REMARK  status: ('A' for Active; 'I' for Inactive)
REMARK    1  A    between atoms: C_1  and  C_2
REMARK    2  A    between atoms: C_10  and  C_14
REMARK    3  A    between atoms: C_17  and  S_20
REMARK    4  A    between atoms: S_20  and  C_21
REMARK    5  A    between atoms: C_21  and  C_22
REMARK    6  A    between atoms: N_24  and  C_25
REMARK                            x       y       z     vdW  Elec       q    Type
REMARK                         _______ _______ _______ _____ _____    ______ ____
ROOT
ATOM      1  C   UNL     1      -3.512  -1.084   0.027  0.00  0.00    +0.086 C 
ATOM      2  C   UNL     1      -2.296  -0.193   0.021  0.00  0.00    +0.115 A 
ATOM      3  N   UNL     1      -1.111  -0.732   0.008  0.00  0.00    -0.226 NA
ATOM      4  C   UNL     1       0.002  -0.004   0.002  0.00  0.00    +0.114 A 
ATOM      5  C   UNL     1      -0.017   1.399   0.010  0.00  0.00    +0.056 A 
ATOM      6  C   UNL     1       1.240   2.054   0.001  0.00  0.00    -0.024 A 
ATOM      7  C   UNL     1       2.351   1.282  -0.014  0.00  0.00    -0.004 A 
ATOM      8  S   UNL     1       1.738  -0.382  -0.016  0.00  0.00    -0.073 S 
ATOM      9  C   UNL     1       3.777   1.736  -0.026  0.00  0.00    +0.046 C 
ATOM     10  C   UNL     1       3.806   3.228  -0.392  0.00  0.00    -0.009 C 
ATOM     11  C   UNL     1       2.766   3.961   0.460  0.00  0.00    +0.008 C 
ATOM     12  C   UNL     1       1.357   3.577   0.009  0.00  0.00    +0.037 C 
ATOM     13  C   UNL     1       5.198   3.798  -0.113  0.00  0.00    +0.008 C 
ATOM     14  C   UNL     1      -1.369   2.000   0.020  0.00  0.00    +0.173 A 
ATOM     15  N   UNL     1      -2.462   1.161   0.031  0.00  0.00    -0.258 N 
ATOM     16  C   UNL     1      -3.552   1.986   0.046  0.00  0.00    +0.198 A 
ATOM     17  N   UNL     1      -3.106   3.221   0.050  0.00  0.00    -0.122 NA
ATOM     18  N   UNL     1      -1.818   3.231   0.038  0.00  0.00    -0.128 NA
ENDROOT
BRANCH  16  19
ATOM     19  S   UNL     1      -5.242   1.485   0.058  0.00  0.00    -0.076 S 
BRANCH  19  20
ATOM     20  C   UNL     1      -6.163   3.047   0.077  0.00  0.00    +0.173 C 
BRANCH  20  21
ATOM     21  C   UNL     1      -7.642   2.758   0.088  0.00  0.00    +0.224 C 
ATOM     22  O   UNL     1      -8.036   1.611   0.083  0.00  0.00    -0.275 OA
ATOM     23  N   UNL     1      -8.527   3.775   0.103  0.00  0.00    -0.312 N 
ATOM     24  H   UNL     1      -8.212   4.692   0.106  0.00  0.00    +0.149 HD
BRANCH  23  25
ATOM     25  C   UNL     1      -9.964   3.494   0.113  0.00  0.00    +0.073 C 
ATOM     26  C   UNL     1     -10.485   3.349  -1.331  0.00  0.00    +0.022 C 
ATOM     27  C   UNL     1     -11.891   3.998  -1.295  0.00  0.00    +0.002 C 
ATOM     28  C   UNL     1     -11.685   5.206  -0.347  0.00  0.00    +0.002 C 
ATOM     29  C   UNL     1     -10.728   4.674   0.739  0.00  0.00    +0.022 C 
ENDBRANCH  23  25
ENDBRANCH  20  21
ENDBRANCH  19  20
ENDBRANCH  16  19
TORSDOF 4
