REMARK  Name = ZINC17670479
REMARK  11 active torsions:
REMARK  status: ('A' for Active; 'I' for Inactive)
REMARK    1  A    between atoms: C_1  and  C_2
REMARK    2  A    between atoms: C_2  and  C_4
REMARK    3  A    between atoms: C_2  and  S_18
REMARK    4  A    between atoms: C_7  and  C_9
REMARK    5  A    between atoms: C_12  and  N_15
REMARK    6  A    between atoms: S_18  and  C_19
REMARK    7  A    between atoms: N_29  and  C_30
REMARK    8  A    between atoms: C_30  and  C_31
REMARK    9  A    between atoms: C_31  and  C_32
REMARK   10  A    between atoms: C_32  and  C_33
REMARK   11  A    between atoms: C_32  and  C_34
REMARK                            x       y       z     vdW  Elec       q    Type
REMARK                         _______ _______ _______ _____ _____    ______ ____
ROOT
ATOM      1  S   UNL     1      -1.700  -0.632   0.015  0.00  0.00    -0.075 S 
ENDROOT
BRANCH   1   2
ATOM      2  C   UNL     1      -2.365  -0.093  -1.525  0.00  0.00    +0.173 A 
ATOM      3  N   UNL     1      -1.593   0.592  -2.333  0.00  0.00    -0.223 NA
ATOM      4  C   UNL     1      -2.040   1.035  -3.531  0.00  0.00    +0.080 A 
ATOM      5  C   UNL     1      -1.219   1.766  -4.395  0.00  0.00    +0.048 A 
ATOM      6  C   UNL     1      -1.718   2.196  -5.605  0.00  0.00    +0.043 A 
ATOM      7  C   UNL     1      -3.027   1.913  -5.976  0.00  0.00    +0.021 A 
ATOM      8  C   UNL     1      -3.849   1.200  -5.149  0.00  0.00    +0.017 A 
ATOM      9  C   UNL     1      -3.370   0.752  -3.918  0.00  0.00    +0.065 A 
ATOM     10  C   UNL     1      -4.212  -0.018  -2.993  0.00  0.00    +0.262 A 
ATOM     11  O   UNL     1      -5.365  -0.293  -3.270  0.00  0.00    -0.267 OA
ATOM     12  N   UNL     1      -3.658  -0.414  -1.824  0.00  0.00    -0.287 N 
ATOM     13 CL   UNL     1      -0.699   3.104  -6.678  0.00  0.00    -0.083 Cl
BRANCH  12  14
ATOM     14  C   UNL     1      -4.453  -1.189  -0.869  0.00  0.00    +0.127 C 
BRANCH  14  15
ATOM     15  C   UNL     1      -5.177  -0.236   0.084  0.00  0.00    +0.025 C 
BRANCH  15  16
ATOM     16  C   UNL     1      -6.008  -1.045   1.082  0.00  0.00    -0.016 C 
ATOM     17  C   UNL     1      -5.076  -1.873   1.968  0.00  0.00    +0.007 C 
ATOM     18  C   UNL     1      -6.828  -0.092   1.954  0.00  0.00    +0.007 C 
ENDBRANCH  15  16
ENDBRANCH  14  15
ENDBRANCH  12  14
ENDBRANCH   1   2
BRANCH   1  20
ATOM     19  C   UNL     1      -0.019   1.526   0.010  0.00  0.00    +0.029 C 
ATOM     20  C   UNL     1       0.002  -0.004   0.002  0.00  0.00    +0.139 C 
BRANCH  20  21
ATOM     21  C   UNL     1       0.731  -0.503   1.223  0.00  0.00    +0.231 A 
ATOM     22  N   UNL     1       0.269  -0.521   2.442  0.00  0.00    -0.111 NA
ATOM     23  N   UNL     1       1.157  -1.013   3.232  0.00  0.00    -0.107 NA
ATOM     24  C   UNL     1       2.225  -1.329   2.538  0.00  0.00    +0.248 A 
ATOM     25  O   UNL     1       1.973  -1.016   1.251  0.00  0.00    -0.419 OA
BRANCH  24  26
ATOM     26  C   UNL     1       3.472  -1.921   3.068  0.00  0.00    +0.039 A 
ATOM     27  C   UNL     1       4.536  -2.200   2.209  0.00  0.00    +0.015 A 
ATOM     28  C   UNL     1       5.696  -2.754   2.710  0.00  0.00    +0.033 A 
ATOM     29  C   UNL     1       5.806  -3.032   4.061  0.00  0.00    +0.126 A 
ATOM     30  C   UNL     1       4.755  -2.758   4.918  0.00  0.00    +0.033 A 
ATOM     31  C   UNL     1       3.591  -2.199   4.431  0.00  0.00    +0.015 A 
BRANCH  29  32
ATOM     32  N   UNL     1       7.053  -3.627   4.592  0.00  0.00    +0.056 N 
ATOM     33  O   UNL     1       7.973  -3.868   3.845  0.00  0.00    -0.126 OA
ATOM     34  O   UNL     1       7.152  -3.871   5.772  0.00  0.00    -0.126 OA
ENDBRANCH  29  32
ENDBRANCH  24  26
ENDBRANCH  20  21
ENDBRANCH   1  20
TORSDOF 8
