REMARK  Name = ZINC63360945
REMARK  8 active torsions:
REMARK  status: ('A' for Active; 'I' for Inactive)
REMARK    1  A    between atoms: C_4  and  C_7
REMARK    2  A    between atoms: C_7  and  C_8
REMARK    3  A    between atoms: C_7  and  C_14
REMARK    4  A    between atoms: C_7  and  N_20
REMARK    5  A    between atoms: N_20  and  C_21
REMARK    6  A    between atoms: C_21  and  C_23
REMARK    7  A    between atoms: C_21  and  C_25
REMARK    8  A    between atoms: C_23  and  S_24
REMARK                            x       y       z     vdW  Elec       q    Type
REMARK                         _______ _______ _______ _____ _____    ______ ____
ROOT
ATOM      1  C   UNL     1       3.524  -0.647   0.510  0.00  0.00    +0.096 C 
ENDROOT
BRANCH   1   5
ATOM      2  C   UNL     1       0.485   1.110   2.944  0.00  0.00    +0.000 A 
ATOM      3  C   UNL     1       1.627   1.827   2.639  0.00  0.00    +0.000 A 
ATOM      4  C   UNL     1       2.610   1.258   1.851  0.00  0.00    +0.006 A 
ATOM      5  C   UNL     1       2.452  -0.028   1.369  0.00  0.00    -0.019 A 
ATOM      6  C   UNL     1       1.311  -0.745   1.676  0.00  0.00    +0.006 A 
ATOM      7  C   UNL     1       0.327  -0.176   2.462  0.00  0.00    +0.000 A 
ENDBRANCH   1   5
BRANCH   1   8
ATOM      8  C   UNL     1       4.023   0.371  -0.483  0.00  0.00    -0.019 A 
ATOM      9  C   UNL     1       3.195   1.398  -0.894  0.00  0.00    +0.006 A 
ATOM     10  C   UNL     1       3.652   2.332  -1.805  0.00  0.00    +0.000 A 
ATOM     11  C   UNL     1       4.938   2.239  -2.304  0.00  0.00    +0.000 A 
ATOM     12  C   UNL     1       5.767   1.212  -1.891  0.00  0.00    +0.000 A 
ATOM     13  C   UNL     1       5.310   0.280  -0.977  0.00  0.00    +0.006 A 
ENDBRANCH   1   8
BRANCH   1  14
ATOM     14  C   UNL     1       4.667  -1.101   1.382  0.00  0.00    -0.019 A 
ATOM     15  C   UNL     1       5.066  -2.424   1.365  0.00  0.00    +0.006 A 
ATOM     16  C   UNL     1       6.114  -2.841   2.164  0.00  0.00    +0.000 A 
ATOM     17  C   UNL     1       6.763  -1.933   2.980  0.00  0.00    +0.000 A 
ATOM     18  C   UNL     1       6.365  -0.610   2.996  0.00  0.00    +0.000 A 
ATOM     19  C   UNL     1       5.320  -0.193   2.194  0.00  0.00    +0.006 A 
ENDBRANCH   1  14
BRANCH   1  20
ATOM     20  N   UNL     1       2.969  -1.802  -0.209  0.00  0.00    -0.288 NA
ATOM     21  H   UNL     1       3.674  -2.248  -0.776  0.00  0.00    +0.124 HD
BRANCH  20  22
ATOM     22  C   UNL     1       1.810  -1.407  -1.022  0.00  0.00    +0.151 C 
BRANCH  22  23
ATOM     23  C   UNL     1       0.627  -2.268  -0.662  0.00  0.00    +0.228 C 
ATOM     24  O   UNL     1       0.738  -3.125   0.189  0.00  0.00    -0.274 OA
ATOM     25  N   UNL     1      -0.554  -2.085  -1.285  0.00  0.00    -0.328 N 
ATOM     26  H   UNL     1      -0.642  -1.399  -1.965  0.00  0.00    +0.145 HD
ATOM     27  H   UNL     1      -1.316  -2.639  -1.053  0.00  0.00    +0.145 HD
ENDBRANCH  22  23
BRANCH  22  28
ATOM     28  C   UNL     1       2.142  -1.591  -2.505  0.00  0.00    +0.093 C 
BRANCH  28  29
ATOM     29  S   UNL     1       3.639  -0.651  -2.910  0.00  0.00    -0.176 S 
ATOM     30  H   UNL     1       3.764  -0.796  -4.242  0.00  0.00    +0.102 HD
ENDBRANCH  28  29
ENDBRANCH  22  28
ENDBRANCH  20  22
ENDBRANCH   1  20
TORSDOF 8
