REMARK  Name = ZINC16695909
REMARK  10 active torsions:
REMARK  status: ('A' for Active; 'I' for Inactive)
REMARK    1  A    between atoms: C_1  and  O_2
REMARK    2  A    between atoms: O_2  and  C_3
REMARK    3  A    between atoms: C_7  and  C_9
REMARK    4  A    between atoms: N_13  and  C_17
REMARK    5  A    between atoms: C_17  and  C_18
REMARK    6  A    between atoms: C_18  and  C_19
REMARK    7  A    between atoms: C_19  and  C_20
REMARK    8  A    between atoms: N_22  and  N_23
REMARK    9  A    between atoms: C_24  and  C_26
REMARK   10  A    between atoms: C_30  and  N_32
REMARK                            x       y       z     vdW  Elec       q    Type
REMARK                         _______ _______ _______ _____ _____    ______ ____
ROOT
ATOM      1  C   UNL     1      -0.035   2.212   0.114  0.00  0.00    +0.029 C 
ENDROOT
BRANCH   1   2
ATOM      2  C   UNL     1      -1.278   1.321   0.148  0.00  0.00    +0.115 C 
BRANCH   2   7
ATOM      3  C   UNL     1       0.063  -3.050   2.073  0.00  0.00    +0.028 C 
ATOM      4  C   UNL     1      -0.235  -2.150   1.104  0.00  0.00    +0.077 C 
ATOM      5  C   UNL     1      -0.641  -0.734   1.225  0.00  0.00    +0.258 C 
ATOM      6  O   UNL     1      -0.758  -0.192   2.309  0.00  0.00    -0.269 OA
ATOM      7  N   UNL     1      -0.872  -0.086   0.096  0.00  0.00    -0.255 N 
ATOM      8  C   UNL     1      -0.747  -0.691  -1.102  0.00  0.00    +0.121 C 
ATOM      9  S   UNL     1      -1.006  -0.029  -2.660  0.00  0.00    -0.027 S 
ATOM     10  S   UNL     1      -0.244  -2.350  -0.673  0.00  0.00    -0.061 S 
BRANCH   3  15
ATOM     11  C   UNL     1      -0.188  -3.003   5.818  0.00  0.00    +0.121 A 
ATOM     12  C   UNL     1       0.406  -1.781   6.109  0.00  0.00    +0.045 A 
ATOM     13  C   UNL     1       0.885  -0.978   5.089  0.00  0.00    +0.004 A 
ATOM     14  C   UNL     1       0.782  -1.386   3.776  0.00  0.00    +0.008 A 
ATOM     15  C   UNL     1       0.181  -2.612   3.472  0.00  0.00    -0.020 A 
ATOM     16  C   UNL     1      -0.303  -3.422   4.505  0.00  0.00    +0.053 A 
BRANCH  11  18
ATOM     17  C   UNL     1      -0.504  -3.291   8.157  0.00  0.00    +0.277 C 
ATOM     18  O   UNL     1      -0.656  -3.786   6.825  0.00  0.00    -0.495 OA
ENDBRANCH  11  18
ENDBRANCH   3  15
ENDBRANCH   2   7
ENDBRANCH   1   2
BRANCH   1  19
ATOM     19  C   UNL     1      -0.459   3.681   0.168  0.00  0.00    +0.099 C 
BRANCH  19  20
ATOM     20  C   UNL     1       0.765   4.559   0.134  0.00  0.00    +0.229 C 
ATOM     21  O   UNL     1       1.868   4.059   0.073  0.00  0.00    -0.274 OA
ATOM     22  N   UNL     1       0.634   5.900   0.173  0.00  0.00    -0.234 N 
ATOM     23  H   UNL     1      -0.248   6.300   0.222  0.00  0.00    +0.173 HD
BRANCH  22  24
ATOM     24  N   UNL     1       1.772   6.716   0.141  0.00  0.00    -0.230 N 
ATOM     25  C   UNL     1       1.641   8.057   0.179  0.00  0.00    +0.260 C 
ATOM     26  O   UNL     1       0.536   8.558   0.241  0.00  0.00    -0.269 OA
ATOM     27  H   UNL     1       2.655   6.316   0.092  0.00  0.00    +0.173 HD
BRANCH  25  28
ATOM     28  C   UNL     1       2.843   8.919   0.146  0.00  0.00    +0.040 A 
ATOM     29  C   UNL     1       4.114   8.346   0.081  0.00  0.00    +0.013 A 
ATOM     30  C   UNL     1       5.231   9.155   0.046  0.00  0.00    +0.003 A 
ATOM     31  C   UNL     1       5.093  10.532   0.085  0.00  0.00    +0.033 A 
ATOM     32  C   UNL     1       3.836  11.105   0.155  0.00  0.00    +0.127 A 
ATOM     33  C   UNL     1       2.711  10.307   0.186  0.00  0.00    +0.045 A 
BRANCH  32  34
ATOM     34  N   UNL     1       3.697  12.579   0.197  0.00  0.00    +0.056 N 
ATOM     35  O   UNL     1       2.591  13.085   0.259  0.00  0.00    -0.126 OA
ATOM     36  O   UNL     1       4.690  13.284   0.170  0.00  0.00    -0.126 OA
ENDBRANCH  32  34
ENDBRANCH  25  28
ENDBRANCH  22  24
ENDBRANCH  19  20
ENDBRANCH   1  19
TORSDOF 9
