REMARK  Name = ZINC28728376
REMARK  9 active torsions:
REMARK  status: ('A' for Active; 'I' for Inactive)
REMARK    1  A    between atoms: C_1  and  C_2
REMARK    2  A    between atoms: C_2  and  N_9
REMARK    3  A    between atoms: C_10  and  C_12
REMARK    4  A    between atoms: C_12  and  N_13
REMARK    5  A    between atoms: N_13  and  C_14
REMARK    6  A    between atoms: N_13  and  C_15
REMARK    7  A    between atoms: C_15  and  C_16
REMARK    8  A    between atoms: N_18  and  C_27
REMARK    9  A    between atoms: C_20  and  C_21
REMARK                            x       y       z     vdW  Elec       q    Type
REMARK                         _______ _______ _______ _____ _____    ______ ____
ROOT
ATOM      1  C   UNL     1      -7.624   0.514   1.276  0.00  0.00    -0.039 C 
ENDROOT
BRANCH   1   2
ATOM      2  C   UNL     1      -8.739   1.042   2.140  0.00  0.00    -0.018 A 
ATOM      3  C   UNL     1     -10.034   1.172   1.776  0.00  0.00    +0.116 A 
ATOM      4  N   UNL     1     -10.716   1.679   2.836  0.00  0.00    -0.239 N 
ATOM      5  N   UNL     1      -9.806   1.877   3.883  0.00  0.00    -0.166 NA
ATOM      6  C   UNL     1      -8.616   1.495   3.469  0.00  0.00    +0.094 A 
BRANCH   6   7
ATOM      7  C   UNL     1      -7.363   1.535   4.263  0.00  0.00    +0.002 A 
ATOM      8  C   UNL     1      -6.488   0.451   4.243  0.00  0.00    +0.010 A 
ATOM      9  C   UNL     1      -5.321   0.497   4.979  0.00  0.00    +0.001 A 
ATOM     10  C   UNL     1      -5.025   1.611   5.744  0.00  0.00    +0.000 A 
ATOM     11  C   UNL     1      -5.893   2.687   5.771  0.00  0.00    +0.001 A 
ATOM     12  C   UNL     1      -7.060   2.655   5.035  0.00  0.00    +0.010 A 
ENDBRANCH   6   7
BRANCH   4  13
ATOM     13  C   UNL     1     -12.088   1.962   2.874  0.00  0.00    +0.065 A 
ATOM     14  C   UNL     1     -12.878   1.721   1.758  0.00  0.00    +0.028 A 
ATOM     15  C   UNL     1     -14.231   1.995   1.800  0.00  0.00    +0.002 A 
ATOM     16  C   UNL     1     -14.797   2.519   2.948  0.00  0.00    +0.000 A 
ATOM     17  C   UNL     1     -14.011   2.764   4.059  0.00  0.00    +0.002 A 
ATOM     18  C   UNL     1     -12.659   2.487   4.025  0.00  0.00    +0.028 A 
ENDBRANCH   4  13
ENDBRANCH   1   2
BRANCH   1  19
ATOM     19  N   UNL     1      -6.772   1.628   0.841  0.00  0.00    +0.386 N 
ATOM     20  C   UNL     1      -7.459   2.458  -0.158  0.00  0.00    -0.095 C 
ATOM     21  H   UNL     1      -6.564   2.258   1.718  0.00  0.00    -0.081 HD
BRANCH  19  22
ATOM     22  C   UNL     1      -5.487   1.137   0.323  0.00  0.00    +0.019 C 
BRANCH  22  24
ATOM     23  N   UNL     1      -3.307   2.089  -0.354  0.00  0.00    -0.310 N 
ATOM     24  C   UNL     1      -4.551   2.301   0.117  0.00  0.00    +0.197 C 
ATOM     25  O   UNL     1      -4.918   3.427   0.376  0.00  0.00    -0.278 OA
ATOM     26  H   UNL     1      -2.974   1.067  -0.589  0.00  0.00    +0.149 HD
BRANCH  23  28
ATOM     27  C   UNL     1      -3.011   4.193  -1.562  0.00  0.00    +0.033 C 
ATOM     28  C   UNL     1      -2.397   3.220  -0.554  0.00  0.00    +0.052 C 
ATOM     29  C   UNL     1      -2.180   3.942   0.786  0.00  0.00    +0.049 C 
ATOM     30  C   UNL     1      -1.279   3.042   1.681  0.00  0.00    +0.168 C 
ATOM     31  S   UNL     1      -0.066   2.434   0.435  0.00  0.00    -0.029 S 
ATOM     32  O   UNL     1       0.129   1.039   0.622  0.00  0.00    -0.174 OA
ATOM     33  O   UNL     1       1.059   3.303   0.422  0.00  0.00    -0.174 OA
ATOM     34  C   UNL     1      -1.045   2.701  -1.100  0.00  0.00    +0.191 C 
ENDBRANCH  23  28
ENDBRANCH  22  24
ENDBRANCH  19  22
ENDBRANCH   1  19
TORSDOF 7
