REMARK  Name = ZINC63557964
REMARK  7 active torsions:
REMARK  status: ('A' for Active; 'I' for Inactive)
REMARK    1  A    between atoms: C_3  and  S_29
REMARK    2  A    between atoms: C_6  and  N_7
REMARK    3  A    between atoms: C_8  and  C_10
REMARK    4  A    between atoms: N_15  and  C_17
REMARK    5  A    between atoms: C_17  and  C_18
REMARK    6  A    between atoms: C_18  and  C_19
REMARK    7  A    between atoms: S_29  and  N_32
REMARK                            x       y       z     vdW  Elec       q    Type
REMARK                         _______ _______ _______ _____ _____    ______ ____
ROOT
ATOM      1  C   UNL     1      -2.478  -2.828  -0.204  0.00  0.00    +0.101 C 
ATOM      2  C   UNL     1      -3.228  -2.469  -1.507  0.00  0.00    +0.110 C 
ATOM      3  C   UNL     1      -3.847  -3.776  -1.951  0.00  0.00    +0.216 C 
ATOM      4  O   UNL     1      -4.739  -3.881  -2.767  0.00  0.00    -0.276 OA
ATOM      5  N   UNL     1      -3.265  -4.804  -1.310  0.00  0.00    -0.300 N 
ATOM      6  C   UNL     1      -2.215  -4.338  -0.397  0.00  0.00    +0.121 C 
ENDROOT
BRANCH   1   8
ATOM      7  N   UNL     1      -1.199  -0.722   0.010  0.00  0.00    -0.285 N 
ATOM      8  C   UNL     1      -1.183  -2.065  -0.099  0.00  0.00    +0.222 C 
ATOM      9  O   UNL     1      -0.125  -2.659  -0.113  0.00  0.00    -0.275 OA
ATOM     10  H   UNL     1      -2.044  -0.252   0.089  0.00  0.00    +0.155 HD
BRANCH   7  16
ATOM     11  C   UNL     1       0.065   1.248  -0.586  0.00  0.00    +0.025 A 
ATOM     12  C   UNL     1       1.253   1.953  -0.584  0.00  0.00    +0.030 A 
ATOM     13  C   UNL     1       2.378   1.413   0.010  0.00  0.00    +0.105 A 
ATOM     14  C   UNL     1       2.319   0.166   0.604  0.00  0.00    +0.030 A 
ATOM     15  C   UNL     1       1.135  -0.544   0.606  0.00  0.00    +0.025 A 
ATOM     16  C   UNL     1       0.003  -0.005   0.010  0.00  0.00    +0.034 A 
BRANCH  13  17
ATOM     17  S   UNL     1       3.892   2.316   0.009  0.00  0.00    +0.056 S 
ATOM     18  O   UNL     1       4.934   1.360   0.148  0.00  0.00    -0.153 OA
ATOM     19  O   UNL     1       3.826   3.218  -1.087  0.00  0.00    -0.153 OA
BRANCH  17  20
ATOM     20  N   UNL     1       3.911   3.240   1.383  0.00  0.00    -0.204 NA
ATOM     21  H   UNL     1       4.755   3.462   1.806  0.00  0.00    +0.144 HD
ATOM     22  H   UNL     1       3.078   3.560   1.764  0.00  0.00    +0.144 HD
ENDBRANCH  17  20
ENDBRANCH  13  17
ENDBRANCH   7  16
ENDBRANCH   1   8
BRANCH   5  23
ATOM     23  C   UNL     1      -3.632  -6.210  -1.499  0.00  0.00    +0.112 C 
BRANCH  23  24
ATOM     24  C   UNL     1      -2.789  -6.811  -2.625  0.00  0.00    +0.052 C 
BRANCH  24  25
ATOM     25  C   UNL     1      -3.166  -8.257  -2.819  0.00  0.00    -0.040 C 
ATOM     26  C   UNL     1      -4.051  -8.753  -3.713  0.00  0.00    +0.000 A 
ATOM     27  C   UNL     1      -4.895  -8.119  -4.733  0.00  0.00    +0.030 A 
ATOM     28  C   UNL     1      -5.700  -8.897  -5.495  0.00  0.00    +0.042 A 
ATOM     29  C   UNL     1      -5.747 -10.289  -5.334  0.00  0.00    +0.022 A 
ATOM     30  C   UNL     1      -5.001 -10.943  -4.419  0.00  0.00    +0.027 A 
ATOM     31  C   UNL     1      -4.119 -10.225  -3.564  0.00  0.00    +0.043 A 
ATOM     32  N   UNL     1      -3.308 -10.622  -2.615  0.00  0.00    -0.380 N 
ATOM     33  C   UNL     1      -2.628  -9.447  -2.058  0.00  0.00    +0.144 C 
ATOM     34 CL   UNL     1      -6.699  -8.151  -6.703  0.00  0.00    -0.084 Cl
ATOM     35  H   UNL     1      -3.176 -11.540  -2.330  0.00  0.00    +0.160 HD
ENDBRANCH  24  25
ENDBRANCH  23  24
ENDBRANCH   5  23
TORSDOF 7
