REMARK  Name = ZINC06922028
REMARK  4 active torsions:
REMARK  status: ('A' for Active; 'I' for Inactive)
REMARK    1  A    between atoms: C_1  and  C_2
REMARK    2  A    between atoms: C_4  and  N_18
REMARK    3  A    between atoms: C_7  and  N_8
REMARK    4  A    between atoms: C_9  and  C_11
REMARK                            x       y       z     vdW  Elec       q    Type
REMARK                         _______ _______ _______ _____ _____    ______ ____
ROOT
ATOM      1  C   UNL     1      -1.265   1.183   0.181  0.00  0.00    +0.046 C 
ATOM      2  C   UNL     1      -0.584  -0.158   0.084  0.00  0.00    -0.027 A 
ATOM      3  C   UNL     1      -0.569  -0.840  -1.117  0.00  0.00    +0.039 A 
ATOM      4  C   UNL     1       0.055  -2.070  -1.207  0.00  0.00    +0.145 A 
ATOM      5  C   UNL     1       0.668  -2.622  -0.095  0.00  0.00    +0.073 A 
ATOM      6  C   UNL     1       0.656  -1.944   1.109  0.00  0.00    +0.045 A 
ATOM      7  C   UNL     1       0.034  -0.706   1.201  0.00  0.00    +0.038 A 
ATOM      8 CL   UNL     1       1.451  -4.167  -0.213  0.00  0.00    -0.081 Cl
ENDROOT
BRANCH   7   9
ATOM      9  N   UNL     1       0.025  -0.014   2.417  0.00  0.00    -0.285 N 
ATOM     10  C   UNL     1      -0.056  -0.693   3.578  0.00  0.00    +0.220 C 
ATOM     11  O   UNL     1      -0.040  -1.906   3.574  0.00  0.00    -0.275 OA
ATOM     12  H   UNL     1       0.078   0.955   2.424  0.00  0.00    +0.155 HD
BRANCH  10  13
ATOM     13  C   UNL     1      -0.168   0.054   4.882  0.00  0.00    +0.075 C 
ATOM     14  C   UNL     1       1.060   0.949   5.063  0.00  0.00    +0.013 C 
ATOM     15  C   UNL     1       0.946   1.708   6.387  0.00  0.00    +0.001 C 
ATOM     16  C   UNL     1       0.870   0.708   7.543  0.00  0.00    +0.000 C 
ATOM     17  C   UNL     1      -0.358  -0.187   7.362  0.00  0.00    +0.001 C 
ATOM     18  C   UNL     1      -0.245  -0.946   6.038  0.00  0.00    +0.013 C 
ENDBRANCH  10  13
ENDBRANCH   7   9
BRANCH   4  19
ATOM     19  N   UNL     1       0.069  -2.799  -2.496  0.00  0.00    +0.058 N 
ATOM     20  O   UNL     1      -0.466  -2.318  -3.467  0.00  0.00    -0.126 OA
ATOM     21  O   UNL     1       0.615  -3.875  -2.576  0.00  0.00    -0.126 OA
ENDBRANCH   4  19
TORSDOF 3
