REMARK  Name = ZINC14544625
REMARK  3 active torsions:
REMARK  status: ('A' for Active; 'I' for Inactive)
REMARK    1  A    between atoms: C_1  and  C_2
REMARK    2  A    between atoms: C_2  and  C_4
REMARK    3  A    between atoms: C_17  and  C_20
REMARK                            x       y       z     vdW  Elec       q    Type
REMARK                         _______ _______ _______ _____ _____    ______ ____
ROOT
ATOM      1  C   UNL     1       0.002  -0.004   0.002  0.00  0.00    +0.017 A 
ATOM      2  C   UNL     1      -1.199  -0.725   0.010  0.00  0.00    +0.013 A 
ATOM      3  C   UNL     1      -1.175  -2.089   0.009  0.00  0.00    +0.024 A 
ATOM      4  C   UNL     1       0.037  -2.777  -0.006  0.00  0.00    +0.031 A 
ATOM      5  C   UNL     1       1.240  -2.054  -0.023  0.00  0.00    -0.019 A 
ATOM      6  C   UNL     1       1.222  -0.692  -0.019  0.00  0.00    +0.017 A 
ATOM      7  C   UNL     1       2.500  -2.829  -0.063  0.00  0.00    +0.049 C 
ATOM      8  C   UNL     1       3.775  -2.285   0.470  0.00  0.00    -0.023 C 
ATOM      9  C   UNL     1       4.507  -3.293   0.928  0.00  0.00    -0.030 C 
ATOM     10  C   UNL     1       3.740  -4.625   0.786  0.00  0.00    +0.033 C 
ATOM     11  C   UNL     1       2.289  -4.127   0.772  0.00  0.00    +0.029 C 
ATOM     12  C   UNL     1       1.281  -4.950  -0.009  0.00  0.00    +0.107 C 
ATOM     13  N   UNL     1       0.025  -4.170   0.013  0.00  0.00    -0.336 N 
ATOM     14  H   UNL     1      -0.824  -4.637   0.041  0.00  0.00    +0.147 HD
ENDROOT
BRANCH  12  15
ATOM     15  C   UNL     1       1.751  -5.139  -1.428  0.00  0.00    -0.002 A 
ATOM     16  C   UNL     1       1.469  -4.348  -2.475  0.00  0.00    +0.089 A 
ATOM     17  N   UNL     1       2.071  -4.834  -3.604  0.00  0.00    -0.360 N 
ATOM     18  H   UNL     1       2.012  -4.432  -4.484  0.00  0.00    +0.165 HD
ATOM     19  C   UNL     1       2.773  -5.979  -3.303  0.00  0.00    +0.047 A 
ATOM     20  C   UNL     1       2.609  -6.218  -1.926  0.00  0.00    +0.005 A 
ATOM     21  C   UNL     1       3.211  -7.329  -1.335  0.00  0.00    +0.010 A 
ATOM     22  C   UNL     1       3.969  -8.175  -2.095  0.00  0.00    +0.001 A 
ATOM     23  C   UNL     1       4.139  -7.941  -3.452  0.00  0.00    +0.002 A 
ATOM     24  C   UNL     1       3.548  -6.854  -4.058  0.00  0.00    +0.026 A 
ENDBRANCH  12  15
BRANCH   1  26
ATOM     25  C   UNL     1      -1.333   2.199   0.020  0.00  0.00    +0.091 C 
ATOM     26  C   UNL     1      -0.018   1.463   0.010  0.00  0.00    +0.160 C 
ATOM     27  O   UNL     1       1.024   2.084   0.004  0.00  0.00    -0.292 OA
ENDBRANCH   1  26
TORSDOF 2
