REMARK  Name = ZINC35664813
REMARK  13 active torsions:
REMARK  status: ('A' for Active; 'I' for Inactive)
REMARK    1  A    between atoms: C_1  and  C_2
REMARK    2  A    between atoms: C_2  and  O_3
REMARK    3  A    between atoms: O_3  and  C_4
REMARK    4  A    between atoms: C_4  and  C_6
REMARK    5  A    between atoms: C_7  and  C_24
REMARK    6  A    between atoms: N_8  and  C_21
REMARK    7  A    between atoms: C_12  and  C_14
REMARK    8  A    between atoms: C_17  and  C_20
REMARK    9  A    between atoms: C_21  and  C_22
REMARK   10  A    between atoms: C_24  and  N_25
REMARK   11  A    between atoms: N_34  and  C_35
REMARK   12  A    between atoms: C_35  and  C_36
REMARK   13  A    between atoms: C_35  and  C_37
REMARK                            x       y       z     vdW  Elec       q    Type
REMARK                         _______ _______ _______ _____ _____    ______ ____
ROOT
ATOM      1  C   UNL     1       0.962  -2.508  -2.158  0.00  0.00    +0.076 C 
ATOM      2  C   UNL     1       1.442  -3.755  -2.359  0.00  0.00    +0.011 C 
ATOM      3  N   UNL     1       2.261  -4.033  -3.415  0.00  0.00    -0.257 N 
ATOM      4  C   UNL     1       2.647  -3.120  -4.316  0.00  0.00    +0.307 C 
ATOM      5  O   UNL     1       3.380  -3.463  -5.223  0.00  0.00    -0.252 OA
ATOM      6  N   UNL     1       2.251  -1.834  -4.248  0.00  0.00    -0.288 N 
ATOM      7  C   UNL     1       1.359  -1.432  -3.148  0.00  0.00    +0.143 C 
ATOM      8  H   UNL     1       2.543  -1.189  -4.911  0.00  0.00    +0.151 HD
ENDROOT
BRANCH   7   9
ATOM      9  C   UNL     1       0.098  -0.865  -3.749  0.00  0.00    -0.022 A 
ATOM     10  C   UNL     1      -0.550  -1.545  -4.763  0.00  0.00    +0.006 A 
ATOM     11  C   UNL     1      -1.707  -1.025  -5.314  0.00  0.00    +0.004 A 
ATOM     12  C   UNL     1      -2.215   0.174  -4.850  0.00  0.00    -0.050 A 
ATOM     13  C   UNL     1      -1.567   0.853  -3.835  0.00  0.00    +0.004 A 
ATOM     14  C   UNL     1      -0.413   0.331  -3.281  0.00  0.00    +0.006 A 
ATOM     15  C   UNL     1      -3.475   0.741  -5.452  0.00  0.00    +0.044 C 
ENDBRANCH   7   9
BRANCH   1  16
ATOM     16  C   UNL     1       0.112  -2.219  -1.065  0.00  0.00    +0.339 C 
ATOM     17  O   UNL     1      -0.287  -3.119  -0.349  0.00  0.00    -0.245 OA
BRANCH  16  18
ATOM     18  O   UNL     1      -0.255  -0.945  -0.814  0.00  0.00    -0.462 OA
BRANCH  18  20
ATOM     19  C   UNL     1      -1.420   0.768   0.430  0.00  0.00    +0.048 C 
ATOM     20  C   UNL     1      -1.115  -0.726   0.306  0.00  0.00    +0.229 C 
ENDBRANCH  18  20
ENDBRANCH  16  18
ENDBRANCH   1  16
BRANCH   3  21
ATOM     21  C   UNL     1       2.745  -5.407  -3.572  0.00  0.00    +0.141 C 
BRANCH  21  22
ATOM     22  C   UNL     1       1.833  -6.156  -4.509  0.00  0.00    -0.015 C 
ATOM     23  C   UNL     1       2.325  -6.738  -5.575  0.00  0.00    +0.005 C 
ENDBRANCH  21  22
ENDBRANCH   3  21
BRANCH   2  24
ATOM     24  C   UNL     1       1.067  -4.856  -1.401  0.00  0.00    -0.026 C 
BRANCH  24  25
ATOM     25  N   UNL     1       2.102  -4.978  -0.366  0.00  0.00    +0.384 N 
ATOM     26  C   UNL     1       1.857  -6.205   0.389  0.00  0.00    -0.077 C 
ATOM     27  C   UNL     1       3.172  -6.740   0.912  0.00  0.00    +0.000 C 
ATOM     28  C   UNL     1       3.410  -6.210   2.338  0.00  0.00    +0.107 C 
ATOM     29  N   UNL     1       2.993  -4.799   2.457  0.00  0.00    -0.287 N 
ATOM     30  C   UNL     1       3.266  -3.820   1.424  0.00  0.00    +0.091 C 
ATOM     31  C   UNL     1       2.103  -3.794   0.405  0.00  0.00    -0.059 C 
ATOM     32  C   UNL     1       2.334  -4.407   3.565  0.00  0.00    +0.302 C 
ATOM     33  O   UNL     1       2.173  -5.187   4.484  0.00  0.00    -0.253 OA
ATOM     34  N   UNL     1       1.855  -3.151   3.656  0.00  0.00    -0.297 N 
ATOM     35  H   UNL     1       1.919  -2.551   2.896  0.00  0.00    +0.150 HD
ATOM     36  H   UNL     1       2.999  -5.061  -0.822  0.00  0.00    -0.081 HD
BRANCH  34  37
ATOM     37  C   UNL     1       1.236  -2.691   4.901  0.00  0.00    +0.068 C 
ATOM     38  C   UNL     1       2.322  -2.188   5.855  0.00  0.00    +0.027 C 
ATOM     39  C   UNL     1       0.259  -1.554   4.596  0.00  0.00    +0.027 C 
ENDBRANCH  34  37
ENDBRANCH  24  25
ENDBRANCH   2  24
TORSDOF 9
