REMARK  Name = ZINC63280012
REMARK  4 active torsions:
REMARK  status: ('A' for Active; 'I' for Inactive)
REMARK    1  A    between atoms: C_7  and  C_10
REMARK    2  A    between atoms: C_10  and  C_11
REMARK    3  A    between atoms: C_11  and  N_12
REMARK    4  A    between atoms: C_13  and  C_15
REMARK                            x       y       z     vdW  Elec       q    Type
REMARK                         _______ _______ _______ _____ _____    ______ ____
ROOT
ATOM      1  N   UNL     1      -0.458  -4.798  -1.460  0.00  0.00    -0.310 N 
ATOM      2  C   UNL     1      -0.811  -5.380  -2.623  0.00  0.00    +0.264 C 
ATOM      3  O   UNL     1      -0.369  -4.956  -3.674  0.00  0.00    -0.268 OA
ATOM      4  H   UNL     1      -0.810  -5.136  -0.622  0.00  0.00    +0.149 HD
ENDROOT
BRANCH   2   5
ATOM      5  C   UNL     1      -1.732  -6.533  -2.622  0.00  0.00    +0.144 A 
ATOM      6  C   UNL     1      -2.164  -7.216  -3.723  0.00  0.00    +0.125 A 
ATOM      7  N   UNL     1      -2.996  -8.200  -3.284  0.00  0.00    -0.304 N 
ATOM      8  C   UNL     1      -3.702  -9.169  -3.941  0.00  0.00    +0.112 A 
ATOM      9  C   UNL     1      -4.470 -10.043  -3.258  0.00  0.00    +0.058 A 
ATOM     10  C   UNL     1      -4.556  -9.967  -1.856  0.00  0.00    +0.025 A 
ATOM     11  C   UNL     1      -3.860  -9.009  -1.189  0.00  0.00    +0.048 A 
ATOM     12  C   UNL     1      -3.059  -8.102  -1.917  0.00  0.00    +0.138 A 
ATOM     13  N   UNL     1      -2.289  -7.098  -1.534  0.00  0.00    -0.223 NA
ATOM     14 CL   UNL     1      -5.358 -11.265  -4.113  0.00  0.00    -0.082 Cl
ENDBRANCH   2   5
BRANCH   1  15
ATOM     15  C   UNL     1       0.457  -3.653  -1.462  0.00  0.00    +0.109 C 
BRANCH  15  16
ATOM     16  C   UNL     1       0.691  -3.186  -0.024  0.00  0.00    +0.052 C 
BRANCH  16  23
ATOM     17  C   UNL     1      -0.016   1.348   0.009  0.00  0.00    +0.001 A 
ATOM     18  C   UNL     1       1.166   2.101   0.002  0.00  0.00    +0.002 A 
ATOM     19  C   UNL     1       2.391   1.535  -0.013  0.00  0.00    +0.026 A 
ATOM     20  C   UNL     1       2.529   0.120  -0.022  0.00  0.00    +0.043 A 
ATOM     21  N   UNL     1       3.587  -0.654  -0.037  0.00  0.00    -0.380 N 
ATOM     22  C   UNL     1       3.143  -2.053  -0.041  0.00  0.00    +0.144 C 
ATOM     23  C   UNL     1       1.631  -2.008  -0.025  0.00  0.00    -0.040 C 
ATOM     24  C   UNL     1       1.295  -0.698  -0.014  0.00  0.00    -0.001 A 
ATOM     25  C   UNL     1       0.002  -0.004   0.002  0.00  0.00    +0.010 A 
ATOM     26  H   UNL     1       4.509  -0.353  -0.045  0.00  0.00    +0.160 HD
ENDBRANCH  16  23
ENDBRANCH  15  16
ENDBRANCH   1  15
TORSDOF 4
