REMARK  Name = ZINC39489699
REMARK  14 active torsions:
REMARK  status: ('A' for Active; 'I' for Inactive)
REMARK    1  A    between atoms: C_1  and  C_2
REMARK    2  A    between atoms: C_3  and  C_33
REMARK    3  A    between atoms: C_4  and  O_31
REMARK    4  A    between atoms: C_7  and  C_8
REMARK    5  A    between atoms: C_8  and  N_9
REMARK    6  A    between atoms: C_15  and  C_17
REMARK    7  A    between atoms: C_17  and  C_18
REMARK    8  A    between atoms: N_20  and  C_21
REMARK    9  A    between atoms: C_21  and  C_22
REMARK   10  A    between atoms: C_25  and  C_27
REMARK   11  A    between atoms: C_27  and  C_28
REMARK   12  A    between atoms: C_27  and  C_29
REMARK   13  A    between atoms: C_27  and  C_30
REMARK   14  A    between atoms: O_31  and  C_32
REMARK                            x       y       z     vdW  Elec       q    Type
REMARK                         _______ _______ _______ _____ _____    ______ ____
ROOT
ATOM      1  N   UNL     1      -1.474   0.566   2.765  0.00  0.00    +0.391 N 
ATOM      2  C   UNL     1      -2.342  -0.615   2.898  0.00  0.00    -0.058 C 
ATOM      3  C   UNL     1      -3.774  -0.148   3.164  0.00  0.00    +0.085 C 
ATOM      4  N   UNL     1      -3.788   0.810   4.267  0.00  0.00    -0.318 N 
ATOM      5  C   UNL     1      -2.686   1.442   4.687  0.00  0.00    +0.200 C 
ATOM      6  O   UNL     1      -2.784   2.240   5.595  0.00  0.00    -0.278 OA
ATOM      7  C   UNL     1      -1.333   1.203   4.080  0.00  0.00    +0.028 C 
ATOM      8  H   UNL     1      -4.629   0.994   4.713  0.00  0.00    +0.149 HD
ATOM      9  H   UNL     1      -1.887   1.218   2.115  0.00  0.00    -0.080 HD
ENDROOT
BRANCH   1  10
ATOM     10  C   UNL     1      -0.153   0.152   2.273  0.00  0.00    -0.042 C 
BRANCH  10  17
ATOM     11  C   UNL     1      -0.333   1.976   0.042  0.00  0.00    +0.044 C 
ATOM     12  C   UNL     1      -0.370   0.489  -0.197  0.00  0.00    -0.043 A 
ATOM     13  C   UNL     1      -0.484  -0.001  -1.484  0.00  0.00    -0.006 A 
ATOM     14  C   UNL     1      -0.517  -1.371  -1.703  0.00  0.00    +0.123 A 
ATOM     15  C   UNL     1      -0.435  -2.245  -0.628  0.00  0.00    +0.046 A 
ATOM     16  C   UNL     1      -0.322  -1.750   0.656  0.00  0.00    +0.005 A 
ATOM     17  C   UNL     1      -0.283  -0.385   0.872  0.00  0.00    -0.061 A 
ATOM     18  C   UNL     1      -0.573   0.951  -2.648  0.00  0.00    +0.048 C 
BRANCH  14  19
ATOM     19  O   UNL     1      -0.630  -1.855  -2.967  0.00  0.00    -0.495 OA
ATOM     20  C   UNL     1      -0.657  -3.276  -3.118  0.00  0.00    +0.277 C 
ENDBRANCH  14  19
ENDBRANCH  10  17
ENDBRANCH   1  10
BRANCH   7  21
ATOM     21  C   UNL     1      -0.605   2.539   3.920  0.00  0.00    +0.089 C 
BRANCH  21  22
ATOM     22  C   UNL     1      -1.429   3.459   3.057  0.00  0.00    +0.212 C 
ATOM     23  O   UNL     1      -2.538   3.125   2.700  0.00  0.00    -0.276 OA
ATOM     24  N   UNL     1      -0.932   4.655   2.681  0.00  0.00    -0.310 N 
ATOM     25  H   UNL     1      -0.045   4.923   2.967  0.00  0.00    +0.149 HD
BRANCH  24  26
ATOM     26  C   UNL     1      -1.733   5.550   1.842  0.00  0.00    +0.157 C 
BRANCH  26  27
ATOM     27  C   UNL     1      -0.955   6.811   1.567  0.00  0.00    +0.064 C 
ATOM     28  N   UNL     1       0.236   7.096   1.980  0.00  0.00    -0.157 NA
ATOM     29  N   UNL     1       0.663   8.347   1.545  0.00  0.00    -0.158 NA
ATOM     30  C   UNL     1      -0.224   8.948   0.823  0.00  0.00    +0.052 C 
ATOM     31  C   UNL     1      -1.405   8.001   0.743  0.00  0.00    +0.107 C 
BRANCH  30  32
ATOM     32  C   UNL     1      -0.107  10.309   0.187  0.00  0.00    +0.003 C 
ATOM     33  C   UNL     1       1.259  10.912   0.521  0.00  0.00    +0.017 C 
ATOM     34  C   UNL     1      -0.248  10.176  -1.331  0.00  0.00    +0.017 C 
ATOM     35  C   UNL     1      -1.212  11.220   0.724  0.00  0.00    +0.017 C 
ENDBRANCH  30  32
ENDBRANCH  26  27
ENDBRANCH  24  26
ENDBRANCH  21  22
ENDBRANCH   7  21
TORSDOF 8
