REMARK  Name = ZINC05274715
REMARK  6 active torsions:
REMARK  status: ('A' for Active; 'I' for Inactive)
REMARK    1  A    between atoms: C_1  and  C_2
REMARK    2  A    between atoms: C_2  and  C_3
REMARK    3  A    between atoms: C_2  and  C_4
REMARK    4  A    between atoms: C_2  and  C_5
REMARK    5  A    between atoms: C_14  and  O_26
REMARK    6  A    between atoms: C_16  and  C_19
REMARK                            x       y       z     vdW  Elec       q    Type
REMARK                         _______ _______ _______ _____ _____    ______ ____
ROOT
ATOM      1  C   UNL     1       0.718  -0.497  -1.257  0.00  0.00    -0.000 C 
ATOM      2  C   UNL     1      -0.017   0.014  -2.499  0.00  0.00    +0.009 C 
ATOM      3  C   UNL     1       0.538  -0.670  -3.750  0.00  0.00    +0.037 C 
ATOM      4  C   UNL     1       2.052  -0.512  -3.763  0.00  0.00    -0.023 A 
ATOM      5  C   UNL     1       2.731  -0.195  -2.637  0.00  0.00    -0.004 A 
ATOM      6  S   UNL     1       4.429  -0.124  -3.138  0.00  0.00    -0.078 S 
ATOM      7  C   UNL     1       4.256  -0.488  -4.746  0.00  0.00    +0.080 A 
ATOM      8  C   UNL     1       2.883  -0.682  -4.940  0.00  0.00    +0.068 A 
ATOM      9  C   UNL     1       2.429  -1.041  -6.308  0.00  0.00    +0.220 C 
ATOM     10  N   UNL     1       3.286  -0.911  -7.285  0.00  0.00    -0.223 NA
ATOM     11  C   UNL     1       4.634  -0.378  -7.136  0.00  0.00    +0.227 C 
ATOM     12  N   UNL     1       5.160  -0.604  -5.777  0.00  0.00    -0.313 N 
ATOM     13  C   UNL     1       2.158   0.038  -1.273  0.00  0.00    +0.046 C 
ATOM     14  H   UNL     1       6.092  -0.822  -5.619  0.00  0.00    +0.149 HD
ENDROOT
BRANCH  11  15
ATOM     15  C   UNL     1       4.610   1.104  -7.412  0.00  0.00    +0.030 A 
ATOM     16  C   UNL     1       5.447   1.951  -6.710  0.00  0.00    +0.010 A 
ATOM     17  C   UNL     1       5.425   3.310  -6.963  0.00  0.00    +0.001 A 
ATOM     18  C   UNL     1       4.568   3.823  -7.919  0.00  0.00    +0.003 A 
ATOM     19  C   UNL     1       3.731   2.977  -8.622  0.00  0.00    +0.039 A 
ATOM     20  C   UNL     1       3.756   1.615  -8.373  0.00  0.00    +0.130 A 
ATOM     21  F   UNL     1       2.941   0.787  -9.064  0.00  0.00    -0.205 F 
ENDBRANCH  11  15
BRANCH   1  23
ATOM     22  C   UNL     1      -0.019   1.526   0.010  0.00  0.00    +0.011 C 
ATOM     23  C   UNL     1       0.002  -0.004   0.002  0.00  0.00    -0.035 C 
ATOM     24  C   UNL     1       0.742  -0.511   1.242  0.00  0.00    +0.011 C 
ATOM     25  C   UNL     1      -1.433  -0.534   0.013  0.00  0.00    +0.011 C 
ENDBRANCH   1  23
BRANCH   9  26
ATOM     26  O   UNL     1       1.172  -1.488  -6.534  0.00  0.00    -0.492 OA
ATOM     27  H   UNL     1       0.987  -1.691  -7.462  0.00  0.00    +0.294 HD
ENDBRANCH   9  26
TORSDOF 3
