REMARK  Name = ZINC20636773
REMARK  9 active torsions:
REMARK  status: ('A' for Active; 'I' for Inactive)
REMARK    1  A    between atoms: C_1  and  C_2
REMARK    2  A    between atoms: C_2  and  C_3
REMARK    3  A    between atoms: C_2  and  O_4
REMARK    4  A    between atoms: O_4  and  C_5
REMARK    5  A    between atoms: C_5  and  C_6
REMARK    6  A    between atoms: C_6  and  C_7
REMARK    7  A    between atoms: C_7  and  N_8
REMARK    8  A    between atoms: C_19  and  N_23
REMARK    9  A    between atoms: N_23  and  C_24
REMARK                            x       y       z     vdW  Elec       q    Type
REMARK                         _______ _______ _______ _____ _____    ______ ____
ROOT
ATOM      1  N   UNL     1       2.373   1.271  -0.014  0.00  0.00    -0.299 N 
ATOM      2  C   UNL     1       2.294  -0.085  -0.019  0.00  0.00    +0.203 A 
ATOM      3  N   UNL     1       1.139  -0.694  -0.012  0.00  0.00    -0.230 NA
ATOM      4  C   UNL     1       0.002  -0.004   0.002  0.00  0.00    +0.116 A 
ATOM      5  C   UNL     1      -0.017   1.400   0.010  0.00  0.00    +0.076 A 
ATOM      6  C   UNL     1       1.267   2.037   0.001  0.00  0.00    +0.262 A 
ATOM      7  O   UNL     1       1.355   3.253   0.007  0.00  0.00    -0.267 OA
ATOM      8  C   UNL     1      -1.340   2.022   0.032  0.00  0.00    -0.023 A 
ATOM      9  C   UNL     1      -2.406   1.194   0.031  0.00  0.00    -0.006 A 
ATOM     10  S   UNL     1      -1.718  -0.440   0.015  0.00  0.00    -0.073 S 
ATOM     11  C   UNL     1      -3.854   1.578   0.048  0.00  0.00    +0.027 C 
ATOM     12  C   UNL     1      -3.955   3.060   0.452  0.00  0.00    -0.066 C 
ATOM     13  C   UNL     1      -2.959   3.858  -0.394  0.00  0.00    -0.011 C 
ATOM     14  C   UNL     1      -1.530   3.536   0.043  0.00  0.00    +0.035 C 
ENDROOT
BRANCH  12  15
ATOM     15  N   UNL     1      -5.319   3.544   0.196  0.00  0.00    +0.383 N 
ATOM     16  H   UNL     1      -5.295   4.630   0.022  0.00  0.00    -0.085 HD
ATOM     17  H   UNL     1      -5.726   3.038  -0.692  0.00  0.00    -0.085 HD
BRANCH  15  18
ATOM     18  C   UNL     1      -6.198   3.269   1.340  0.00  0.00    -0.063 C 
ATOM     19  C   UNL     1      -6.856   1.879   1.206  0.00  0.00    +0.020 C 
ATOM     20  C   UNL     1      -8.248   2.046   1.785  0.00  0.00    -0.046 A 
ATOM     21  C   UNL     1      -9.159   1.095   2.213  0.00  0.00    +0.004 A 
ATOM     22  C   UNL     1     -10.385   1.484   2.716  0.00  0.00    +0.000 A 
ATOM     23  C   UNL     1     -10.704   2.827   2.793  0.00  0.00    +0.000 A 
ATOM     24  C   UNL     1      -9.797   3.777   2.366  0.00  0.00    +0.004 A 
ATOM     25  C   UNL     1      -8.567   3.388   1.861  0.00  0.00    -0.046 A 
ATOM     26  C   UNL     1      -7.415   4.219   1.337  0.00  0.00    +0.020 C 
ENDBRANCH  15  18
ENDBRANCH  12  15
BRANCH   1  27
ATOM     27  C   UNL     1       3.691   1.912  -0.024  0.00  0.00    +0.128 C 
BRANCH  27  28
ATOM     28  C   UNL     1       4.135   2.143  -1.469  0.00  0.00    +0.050 C 
BRANCH  28  29
ATOM     29  C   UNL     1       5.510   2.813  -1.480  0.00  0.00    +0.162 C 
BRANCH  29  30
ATOM     30  O   UNL     1       5.925   3.028  -2.830  0.00  0.00    -0.377 OA
BRANCH  30  32
ATOM     31  C   UNL     1       8.293   2.578  -3.008  0.00  0.00    +0.037 C 
ATOM     32  C   UNL     1       7.205   3.652  -2.952  0.00  0.00    +0.112 C 
ATOM     33  C   UNL     1       7.245   4.486  -4.234  0.00  0.00    +0.037 C 
ENDBRANCH  30  32
ENDBRANCH  29  30
ENDBRANCH  28  29
ENDBRANCH  27  28
ENDBRANCH   1  27
TORSDOF 7
