REMARK  Name = ZINC14475684
REMARK  8 active torsions:
REMARK  status: ('A' for Active; 'I' for Inactive)
REMARK    1  A    between atoms: C_1  and  C_2
REMARK    2  A    between atoms: C_2  and  N_3
REMARK    3  A    between atoms: N_3  and  C_4
REMARK    4  A    between atoms: N_3  and  C_6
REMARK    5  A    between atoms: C_4  and  C_5
REMARK    6  A    between atoms: C_19  and  C_22
REMARK    7  A    between atoms: C_24  and  N_29
REMARK    8  A    between atoms: C_27  and  O_28
REMARK                            x       y       z     vdW  Elec       q    Type
REMARK                         _______ _______ _______ _____ _____    ______ ____
ROOT
ATOM      1  C   UNL     1      -1.323  -1.965   0.226  0.00  0.00    +0.014 A 
ATOM      2  C   UNL     1      -0.653  -2.815  -0.634  0.00  0.00    +0.023 A 
ATOM      3  C   UNL     1      -0.641  -4.174  -0.396  0.00  0.00    +0.025 A 
ATOM      4  C   UNL     1      -1.298  -4.698   0.711  0.00  0.00    +0.031 A 
ATOM      5  C   UNL     1      -1.963  -3.830   1.584  0.00  0.00    -0.018 A 
ATOM      6  C   UNL     1      -1.972  -2.475   1.335  0.00  0.00    +0.027 A 
ATOM      7  C   UNL     1      -2.616  -4.425   2.771  0.00  0.00    +0.049 C 
ATOM      8  C   UNL     1      -3.789  -3.787   3.423  0.00  0.00    -0.023 C 
ATOM      9  C   UNL     1      -4.554  -4.739   3.944  0.00  0.00    -0.030 C 
ATOM     10  C   UNL     1      -3.955  -6.114   3.643  0.00  0.00    +0.033 C 
ATOM     11  C   UNL     1      -3.178  -5.819   2.358  0.00  0.00    +0.029 C 
ATOM     12  C   UNL     1      -1.958  -6.684   2.095  0.00  0.00    +0.108 C 
ATOM     13  N   UNL     1      -1.289  -6.082   0.920  0.00  0.00    -0.336 N 
ATOM     14  H   UNL     1      -0.837  -6.658   0.284  0.00  0.00    +0.147 HD
ENDROOT
BRANCH  12  15
ATOM     15  C   UNL     1      -1.038  -6.665   3.288  0.00  0.00    +0.017 A 
ATOM     16  C   UNL     1       0.017  -5.774   3.334  0.00  0.00    +0.041 A 
ATOM     17  C   UNL     1       0.861  -5.756   4.428  0.00  0.00    +0.127 A 
ATOM     18  C   UNL     1       0.652  -6.630   5.480  0.00  0.00    +0.036 A 
ATOM     19  C   UNL     1      -0.401  -7.523   5.439  0.00  0.00    +0.048 A 
ATOM     20  C   UNL     1      -1.253  -7.538   4.344  0.00  0.00    +0.122 A 
BRANCH  17  21
ATOM     21  N   UNL     1       1.990  -4.801   4.474  0.00  0.00    +0.056 N 
ATOM     22  O   UNL     1       2.174  -4.037   3.555  0.00  0.00    -0.126 OA
ATOM     23  O   UNL     1       2.729  -4.785   5.431  0.00  0.00    -0.126 OA
ENDBRANCH  17  21
BRANCH  20  24
ATOM     24  O   UNL     1      -2.293  -8.412   4.304  0.00  0.00    -0.506 OA
ATOM     25  H   UNL     1      -2.076  -9.265   3.902  0.00  0.00    +0.292 HD
ENDBRANCH  20  24
ENDBRANCH  12  15
BRANCH   1  26
ATOM     26  N   UNL     1      -1.340  -0.589  -0.022  0.00  0.00    -0.394 NA
ATOM     27  H   UNL     1      -1.866  -0.123   0.702  0.00  0.00    +0.126 HD
BRANCH  26  29
ATOM     28  C   UNL     1       0.642  -0.208   1.365  0.00  0.00    +0.022 C 
ATOM     29  C   UNL     1       0.037  -0.077  -0.034  0.00  0.00    +0.081 C 
ENDBRANCH  26  29
BRANCH  26  30
ATOM     30  C   UNL     1      -1.968  -0.335  -1.325  0.00  0.00    +0.081 C 
ATOM     31  C   UNL     1      -3.440  -0.751  -1.272  0.00  0.00    +0.022 C 
ENDBRANCH  26  30
ENDBRANCH   1  26
TORSDOF 6
