REMARK  Name = ZINC35834738
REMARK  10 active torsions:
REMARK  status: ('A' for Active; 'I' for Inactive)
REMARK    1  A    between atoms: C_1  and  C_2
REMARK    2  A    between atoms: N_8  and  C_9
REMARK    3  A    between atoms: C_9  and  C_10
REMARK    4  A    between atoms: C_10  and  C_11
REMARK    5  A    between atoms: C_11  and  N_12
REMARK    6  A    between atoms: C_18  and  C_27
REMARK    7  A    between atoms: N_23  and  C_24
REMARK    8  A    between atoms: C_24  and  C_25
REMARK    9  A    between atoms: C_31  and  O_33
REMARK   10  A    between atoms: O_33  and  C_34
REMARK                            x       y       z     vdW  Elec       q    Type
REMARK                         _______ _______ _______ _____ _____    ______ ____
ROOT
ATOM      1  N   UNL     1       0.998  -0.163   5.834  0.00  0.00    -0.292 N 
ATOM      2  C   UNL     1       0.775  -1.367   6.647  0.00  0.00    +0.159 C 
ATOM      3  C   UNL     1       1.764  -1.257   7.785  0.00  0.00    +0.043 C 
ATOM      4  C   UNL     1       2.441  -0.107   7.590  0.00  0.00    +0.058 C 
ATOM      5  C   UNL     1       1.983   0.539   6.423  0.00  0.00    +0.247 C 
ATOM      6  O   UNL     1       2.421   1.595   6.004  0.00  0.00    -0.270 OA
ATOM      7  C   UNL     1       3.511   0.261   8.597  0.00  0.00    +0.142 C 
ATOM      8  N   UNL     1       3.726  -0.674   9.714  0.00  0.00    -0.288 N 
ATOM      9  C   UNL     1       2.968  -1.787   9.774  0.00  0.00    +0.307 C 
ATOM     10  O   UNL     1       3.137  -2.565  10.692  0.00  0.00    -0.252 OA
ATOM     11  N   UNL     1       2.034  -2.063   8.854  0.00  0.00    -0.253 N 
ATOM     12  H   UNL     1       4.397  -0.494  10.390  0.00  0.00    +0.151 HD
ENDROOT
BRANCH   7  13
ATOM     13  C   UNL     1       4.816   0.407   7.856  0.00  0.00    -0.019 A 
ATOM     14  C   UNL     1       5.542  -0.718   7.510  0.00  0.00    +0.006 A 
ATOM     15  C   UNL     1       6.739  -0.588   6.830  0.00  0.00    +0.004 A 
ATOM     16  C   UNL     1       7.213   0.666   6.496  0.00  0.00    +0.046 A 
ATOM     17  C   UNL     1       6.486   1.796   6.843  0.00  0.00    +0.129 A 
ATOM     18  C   UNL     1       5.282   1.663   7.520  0.00  0.00    +0.052 A 
BRANCH  17  19
ATOM     19  O   UNL     1       6.949   3.031   6.515  0.00  0.00    -0.456 OA
BRANCH  19  20
ATOM     20  C   UNL     1       7.338   3.854   7.524  0.00  0.00    +0.128 A 
ATOM     21  C   UNL     1       7.382   3.383   8.828  0.00  0.00    +0.046 A 
ATOM     22  C   UNL     1       7.778   4.222   9.851  0.00  0.00    +0.004 A 
ATOM     23  C   UNL     1       8.130   5.531   9.577  0.00  0.00    +0.000 A 
ATOM     24  C   UNL     1       8.087   6.003   8.278  0.00  0.00    +0.004 A 
ATOM     25  C   UNL     1       7.698   5.166   7.250  0.00  0.00    +0.046 A 
ENDBRANCH  19  20
ENDBRANCH  17  19
ENDBRANCH   7  13
BRANCH   1  26
ATOM     26  C   UNL     1       0.283   0.203   4.608  0.00  0.00    +0.106 C 
BRANCH  26  27
ATOM     27  C   UNL     1       1.012  -0.386   3.399  0.00  0.00    +0.000 C 
BRANCH  27  28
ATOM     28  C   UNL     1       0.267  -0.005   2.118  0.00  0.00    -0.077 C 
BRANCH  28  35
ATOM     29  C   UNL     1       0.306   1.425  -0.298  0.00  0.00    -0.013 C 
ATOM     30  C   UNL     1       0.320  -0.105  -0.276  0.00  0.00    -0.072 C 
ATOM     31  C   UNL     1       1.095  -0.625  -1.489  0.00  0.00    -0.016 C 
ATOM     32  C   UNL     1       1.106  -2.156  -1.463  0.00  0.00    -0.003 C 
ATOM     33  C   UNL     1       1.714  -2.630  -0.139  0.00  0.00    -0.019 C 
ATOM     34  C   UNL     1       0.916  -2.035   1.024  0.00  0.00    -0.078 C 
ATOM     35  N   UNL     1       0.967  -0.570   0.957  0.00  0.00    +0.381 N 
ATOM     36  H   UNL     1       1.929  -0.266   0.966  0.00  0.00    -0.081 HD
ENDBRANCH  28  35
ENDBRANCH  27  28
ENDBRANCH  26  27
ENDBRANCH   1  26
BRANCH  11  37
ATOM     37  C   UNL     1       1.259  -3.297   9.003  0.00  0.00    +0.141 C 
BRANCH  37  38
ATOM     38  C   UNL     1       1.959  -4.420   8.282  0.00  0.00    -0.015 C 
ATOM     39  C   UNL     1       2.263  -5.521   8.924  0.00  0.00    +0.005 C 
ENDBRANCH  37  38
ENDBRANCH  11  37
TORSDOF 9
