REMARK  Name = ZINC36316168
REMARK  17 active torsions:
REMARK  status: ('A' for Active; 'I' for Inactive)
REMARK    1  A    between atoms: C_1  and  C_2
REMARK    2  A    between atoms: C_2  and  C_3
REMARK    3  A    between atoms: C_2  and  C_4
REMARK    4  A    between atoms: C_2  and  O_5
REMARK    5  A    between atoms: O_5  and  C_6
REMARK    6  A    between atoms: C_6  and  C_7
REMARK    7  A    between atoms: C_7  and  C_9
REMARK    8  A    between atoms: C_7  and  O_37
REMARK    9  A    between atoms: C_9  and  N_10
REMARK   10  A    between atoms: N_10  and  C_11
REMARK   11  A    between atoms: N_10  and  C_33
REMARK   12  A    between atoms: C_11  and  C_12
REMARK   13  A    between atoms: C_13  and  C_27
REMARK   14  A    between atoms: N_15  and  C_26
REMARK   15  A    between atoms: C_16  and  O_17
REMARK   16  A    between atoms: O_17  and  C_18
REMARK   17  A    between atoms: C_33  and  C_34
REMARK                            x       y       z     vdW  Elec       q    Type
REMARK                         _______ _______ _______ _____ _____    ______ ____
ROOT
ATOM      1  C   UNL     1       6.630  -0.610  -2.424  0.00  0.00    +0.025 A 
ATOM      2  C   UNL     1       7.209  -1.888  -2.533  0.00  0.00    +0.098 A 
ATOM      3  N   UNL     1       7.775  -2.181  -1.381  0.00  0.00    -0.168 NA
ATOM      4  N   UNL     1       7.575  -1.105  -0.507  0.00  0.00    -0.235 N 
ATOM      5  C   UNL     1       6.874  -0.149  -1.170  0.00  0.00    +0.221 A 
ATOM      6  C   UNL     1       8.045  -1.022   0.878  0.00  0.00    +0.176 C 
ENDROOT
BRANCH   2   7
ATOM      7  C   UNL     1       7.186  -2.755  -3.737  0.00  0.00    +0.002 A 
ATOM      8  C   UNL     1       6.014  -2.889  -4.479  0.00  0.00    +0.010 A 
ATOM      9  C   UNL     1       5.998  -3.697  -5.598  0.00  0.00    +0.001 A 
ATOM     10  C   UNL     1       7.142  -4.372  -5.983  0.00  0.00    +0.000 A 
ATOM     11  C   UNL     1       8.307  -4.243  -5.250  0.00  0.00    +0.001 A 
ATOM     12  C   UNL     1       8.336  -3.433  -4.133  0.00  0.00    +0.010 A 
ENDBRANCH   2   7
BRANCH   1  13
ATOM     13  C   UNL     1       5.878   0.120  -3.507  0.00  0.00    -0.035 C 
BRANCH  13  14
ATOM     14  N   UNL     1       4.438  -0.126  -3.354  0.00  0.00    +0.384 N 
ATOM     15  H   UNL     1       4.266  -1.120  -3.339  0.00  0.00    -0.081 HD
BRANCH  14  16
ATOM     16  C   UNL     1       3.969   0.471  -2.097  0.00  0.00    -0.044 C 
BRANCH  16  17
ATOM     17  C   UNL     1       2.499   0.108  -1.877  0.00  0.00    +0.124 C 
BRANCH  17  18
ATOM     18  O   UNL     1       2.379  -1.304  -1.693  0.00  0.00    -0.391 OA
ATOM     19  H   UNL     1       2.873  -1.645  -0.935  0.00  0.00    +0.210 HD
ENDBRANCH  17  18
BRANCH  17  20
ATOM     20  C   UNL     1       1.976   0.831  -0.633  0.00  0.00    +0.189 C 
BRANCH  20  21
ATOM     21  O   UNL     1       0.576   0.586  -0.494  0.00  0.00    -0.372 OA
BRANCH  21  23
ATOM     22  C   UNL     1       0.170   2.734   0.536  0.00  0.00    +0.041 C 
ATOM     23  C   UNL     1      -0.015   1.219   0.643  0.00  0.00    +0.061 C 
ATOM     24  C   UNL     1       0.661   0.711   1.918  0.00  0.00    +0.041 C 
ATOM     25  C   UNL     1      -1.508   0.889   0.692  0.00  0.00    +0.041 C 
ENDBRANCH  21  23
ENDBRANCH  20  21
ENDBRANCH  17  20
ENDBRANCH  16  17
ENDBRANCH  14  16
BRANCH  14  26
ATOM     26  C   UNL     1       3.716   0.478  -4.482  0.00  0.00    -0.075 C 
BRANCH  26  27
ATOM     27  C   UNL     1       4.121  -0.221  -5.781  0.00  0.00    -0.028 C 
ATOM     28  C   UNL     1       4.863   0.611  -6.829  0.00  0.00    +0.002 C 
ATOM     29  C   UNL     1       3.407   0.204  -7.065  0.00  0.00    +0.002 C 
ENDBRANCH  26  27
ENDBRANCH  14  26
ENDBRANCH  13  14
ENDBRANCH   1  13
BRANCH   5  30
ATOM     30  O   UNL     1       6.486   1.051  -0.669  0.00  0.00    -0.435 OA
BRANCH  30  31
ATOM     31  C   UNL     1       7.329   2.108  -0.816  0.00  0.00    +0.166 A 
ATOM     32  C   UNL     1       8.497   1.967  -1.550  0.00  0.00    +0.052 A 
ATOM     33  C   UNL     1       9.353   3.041  -1.699  0.00  0.00    +0.042 A 
ATOM     34  C   UNL     1       9.047   4.259  -1.115  0.00  0.00    +0.126 A 
ATOM     35  C   UNL     1       7.882   4.402  -0.381  0.00  0.00    +0.080 A 
ATOM     36  C   UNL     1       7.019   3.331  -0.234  0.00  0.00    +0.168 A 
ATOM     37  F   UNL     1       5.879   3.472   0.477  0.00  0.00    -0.202 F 
ATOM     38  F   UNL     1       9.886   5.307  -1.261  0.00  0.00    -0.205 F 
ENDBRANCH  30  31
ENDBRANCH   5  30
TORSDOF 13
