REMARK  Name = ZINC20905746
REMARK  10 active torsions:
REMARK  status: ('A' for Active; 'I' for Inactive)
REMARK    1  A    between atoms: C_1  and  C_2
REMARK    2  A    between atoms: C_5  and  N_9
REMARK    3  A    between atoms: C_10  and  C_12
REMARK    4  A    between atoms: C_12  and  S_13
REMARK    5  A    between atoms: S_13  and  C_14
REMARK    6  A    between atoms: N_19  and  N_20
REMARK    7  A    between atoms: C_21  and  C_22
REMARK    8  A    between atoms: C_25  and  C_28
REMARK    9  A    between atoms: C_28  and  O_30
REMARK   10  A    between atoms: O_30  and  C_31
REMARK                            x       y       z     vdW  Elec       q    Type
REMARK                         _______ _______ _______ _____ _____    ______ ____
ROOT
ATOM      1  C   UNL     1      -6.904   9.456   0.126  0.00  0.00    +0.211 A 
ATOM      2  N   UNL     1      -7.374   8.169   0.128  0.00  0.00    -0.186 NA
ATOM      3  C   UNL     1      -6.260   7.370   0.127  0.00  0.00    +0.232 A 
ATOM      4  N   UNL     1      -5.216   8.161   0.129  0.00  0.00    -0.245 N 
ATOM      5  N   UNL     1      -5.595   9.389   0.124  0.00  0.00    -0.144 NA
ATOM      6  N   UNL     1      -6.241   5.982   0.129  0.00  0.00    -0.205 N 
ATOM      7  H   UNL     1      -7.186   5.420   0.132  0.00  0.00    +0.177 HD
ATOM      8  H   UNL     1      -4.202   7.735   0.135  0.00  0.00    +0.192 HD
ENDROOT
BRANCH   6   9
ATOM      9  N   UNL     1      -5.019   5.298   0.128  0.00  0.00    -0.188 NA
ATOM     10  C   UNL     1      -5.002   3.998   0.130  0.00  0.00    +0.138 C 
BRANCH  10  11
ATOM     11  C   UNL     1      -3.718   3.279   0.128  0.00  0.00    -0.005 A 
ATOM     12  C   UNL     1      -3.699   1.879   0.130  0.00  0.00    +0.010 A 
ATOM     13  C   UNL     1      -2.508   1.213   0.128  0.00  0.00    +0.015 A 
ATOM     14  C   UNL     1      -1.305   1.929   0.124  0.00  0.00    +0.059 A 
ATOM     15  C   UNL     1      -1.324   3.327   0.127  0.00  0.00    +0.015 A 
ATOM     16  C   UNL     1      -2.515   3.995   0.124  0.00  0.00    +0.010 A 
BRANCH  14  17
ATOM     17  C   UNL     1      -0.019   1.208   0.122  0.00  0.00    +0.339 C 
ATOM     18  O   UNL     1      -0.003  -0.007   0.125  0.00  0.00    -0.245 OA
BRANCH  17  19
ATOM     19  O   UNL     1       1.139   1.897   0.113  0.00  0.00    -0.464 OA
ATOM     20  C   UNL     1       2.367   1.123   0.106  0.00  0.00    +0.280 C 
ENDBRANCH  17  19
ENDBRANCH  14  17
ENDBRANCH  10  11
ENDBRANCH   6   9
BRANCH   1  21
ATOM     21  S   UNL     1      -7.877  10.925   0.126  0.00  0.00    -0.075 S 
BRANCH  21  22
ATOM     22  C   UNL     1      -6.564  12.171   0.123  0.00  0.00    +0.173 C 
BRANCH  22  24
ATOM     23  N   UNL     1      -6.387  14.639   0.120  0.00  0.00    -0.284 N 
ATOM     24  C   UNL     1      -7.178  13.548   0.122  0.00  0.00    +0.228 C 
ATOM     25  O   UNL     1      -8.384  13.673   0.124  0.00  0.00    -0.275 OA
ATOM     26  H   UNL     1      -5.295  14.526   0.193  0.00  0.00    +0.155 HD
BRANCH  23  31
ATOM     27  C   UNL     1      -8.687  19.811  -0.265  0.00  0.00    +0.044 C 
ATOM     28  C   UNL     1      -8.076  18.437  -0.163  0.00  0.00    -0.049 A 
ATOM     29  C   UNL     1      -8.737  17.438   0.527  0.00  0.00    +0.005 A 
ATOM     30  C   UNL     1      -8.180  16.177   0.623  0.00  0.00    +0.024 A 
ATOM     31  C   UNL     1      -6.954  15.914   0.025  0.00  0.00    +0.047 A 
ATOM     32  C   UNL     1      -6.290  16.922  -0.664  0.00  0.00    +0.039 A 
ATOM     33  C   UNL     1      -6.856  18.180  -0.760  0.00  0.00    +0.020 A 
ATOM     34 BR   UNL     1      -4.617  16.572  -1.473  0.00  0.00    -0.048 Br
ENDBRANCH  23  31
ENDBRANCH  22  24
ENDBRANCH  21  22
ENDBRANCH   1  21
TORSDOF 8
