REMARK  Name = ZINC45511414
REMARK  11 active torsions:
REMARK  status: ('A' for Active; 'I' for Inactive)
REMARK    1  A    between atoms: C_1  and  C_2
REMARK    2  A    between atoms: C_2  and  N_3
REMARK    3  A    between atoms: C_5  and  C_14
REMARK    4  A    between atoms: C_14  and  N_15
REMARK    5  A    between atoms: N_15  and  C_16
REMARK    6  A    between atoms: N_15  and  C_17
REMARK    7  A    between atoms: C_17  and  C_18
REMARK    8  A    between atoms: N_20  and  C_21
REMARK    9  A    between atoms: C_22  and  C_33
REMARK   10  A    between atoms: N_24  and  C_27
REMARK   11  A    between atoms: C_25  and  C_26
REMARK                            x       y       z     vdW  Elec       q    Type
REMARK                         _______ _______ _______ _____ _____    ______ ____
ROOT
ATOM      1  C   UNL     1      -0.709  -3.985  -6.131  0.00  0.00    +0.019 C 
ENDROOT
BRANCH   1   2
ATOM      2  C   UNL     1      -0.413  -5.434  -6.425  0.00  0.00    +0.201 C 
ATOM      3  O   UNL     1      -0.097  -6.183  -5.525  0.00  0.00    -0.278 OA
ATOM      4  N   UNL     1      -0.499  -5.896  -7.688  0.00  0.00    -0.284 N 
ATOM      5  H   UNL     1      -0.821  -5.317  -8.396  0.00  0.00    +0.155 HD
BRANCH   4   6
ATOM      6  C   UNL     1      -0.121  -7.221  -7.979  0.00  0.00    +0.078 A 
ATOM      7  C   UNL     1       0.870  -7.962  -7.318  0.00  0.00    +0.082 A 
ATOM      8  N   UNL     1       0.934  -9.147  -7.868  0.00  0.00    -0.170 NA
ATOM      9  N   UNL     1      -0.013  -9.208  -8.899  0.00  0.00    -0.235 N 
ATOM     10  C   UNL     1      -0.656  -8.010  -8.945  0.00  0.00    +0.063 A 
ATOM     11  C   UNL     1      -1.759  -7.628  -9.899  0.00  0.00    +0.068 C 
ATOM     12  C   UNL     1       1.718  -7.474  -6.171  0.00  0.00    +0.069 C 
BRANCH   9  13
ATOM     13  C   UNL     1      -0.258 -10.309  -9.730  0.00  0.00    +0.066 A 
ATOM     14  C   UNL     1      -0.297 -11.590  -9.195  0.00  0.00    +0.028 A 
ATOM     15  C   UNL     1      -0.539 -12.673 -10.017  0.00  0.00    +0.002 A 
ATOM     16  C   UNL     1      -0.741 -12.483 -11.372  0.00  0.00    +0.000 A 
ATOM     17  C   UNL     1      -0.702 -11.209 -11.908  0.00  0.00    +0.002 A 
ATOM     18  C   UNL     1      -0.466 -10.121 -11.090  0.00  0.00    +0.028 A 
ENDBRANCH   9  13
ENDBRANCH   4   6
ENDBRANCH   1   2
BRANCH   1  19
ATOM     19  N   UNL     1      -0.546  -3.734  -4.693  0.00  0.00    +0.386 N 
ATOM     20  C   UNL     1       0.862  -3.926  -4.319  0.00  0.00    -0.095 C 
ATOM     21  H   UNL     1      -1.123  -4.376  -4.172  0.00  0.00    -0.081 HD
BRANCH  19  22
ATOM     22  C   UNL     1      -0.950  -2.355  -4.388  0.00  0.00    -0.032 C 
BRANCH  22  25
ATOM     23  N   UNL     1      -4.314  -0.640  -4.614  0.00  0.00    -0.324 N 
ATOM     24  C   UNL     1      -2.866  -0.743  -4.364  0.00  0.00    +0.147 C 
ATOM     25  C   UNL     1      -2.442  -2.185  -4.678  0.00  0.00    +0.174 C 
ATOM     26  O   UNL     1      -3.197  -3.076  -3.854  0.00  0.00    -0.487 OA
ATOM     27  C   UNL     1      -4.546  -2.910  -3.812  0.00  0.00    +0.142 A 
ATOM     28  C   UNL     1      -5.128  -1.698  -4.179  0.00  0.00    +0.072 A 
ATOM     29  C   UNL     1      -6.503  -1.538  -4.120  0.00  0.00    +0.027 A 
ATOM     30  C   UNL     1      -7.301  -2.584  -3.693  0.00  0.00    +0.002 A 
ATOM     31  C   UNL     1      -6.728  -3.786  -3.325  0.00  0.00    +0.004 A 
ATOM     32  C   UNL     1      -5.353  -3.956  -3.391  0.00  0.00    +0.047 A 
BRANCH  23  34
ATOM     33  C   UNL     1      -5.253   1.588  -4.249  0.00  0.00    +0.024 C 
ATOM     34  C   UNL     1      -4.886   0.528  -5.289  0.00  0.00    +0.102 C 
ENDBRANCH  23  34
ENDBRANCH  22  25
ENDBRANCH  19  22
ENDBRANCH   1  19
TORSDOF 7
