REMARK  Name = ZINC39439794
REMARK  10 active torsions:
REMARK  status: ('A' for Active; 'I' for Inactive)
REMARK    1  A    between atoms: C_1  and  C_2
REMARK    2  A    between atoms: C_2  and  O_3
REMARK    3  A    between atoms: O_3  and  C_4
REMARK    4  A    between atoms: C_4  and  C_6
REMARK    5  A    between atoms: C_8  and  N_17
REMARK    6  A    between atoms: C_18  and  C_20
REMARK    7  A    between atoms: C_20  and  S_21
REMARK    8  A    between atoms: S_21  and  C_22
REMARK    9  A    between atoms: N_28  and  N_29
REMARK   10  A    between atoms: C_30  and  C_31
REMARK                            x       y       z     vdW  Elec       q    Type
REMARK                         _______ _______ _______ _____ _____    ______ ____
ROOT
ATOM      1  C   UNL     1       2.294  -1.920  -7.314  0.00  0.00    +0.168 C 
ENDROOT
BRANCH   1   3
ATOM      2  N   UNL     1       1.657  -1.668  -4.937  0.00  0.00    -0.301 N 
ATOM      3  C   UNL     1       1.341  -2.125  -6.165  0.00  0.00    +0.224 C 
ATOM      4  O   UNL     1       0.289  -2.702  -6.345  0.00  0.00    -0.275 OA
ATOM      5  H   UNL     1       2.498  -1.207  -4.793  0.00  0.00    +0.150 HD
BRANCH   2   7
ATOM      6  C   UNL     1       1.468  -2.353  -2.550  0.00  0.00    +0.155 C 
ATOM      7  C   UNL     1       0.730  -1.867  -3.820  0.00  0.00    +0.153 C 
ATOM      8  S   UNL     1      -0.353  -3.332  -4.092  0.00  0.00    -0.106 S 
ATOM      9  C   UNL     1       0.597  -4.529  -3.184  0.00  0.00    -0.013 C 
ATOM     10  C   UNL     1       1.481  -3.859  -2.459  0.00  0.00    -0.044 C 
ATOM     11  C   UNL     1       2.478  -4.593  -1.565  0.00  0.00    +0.032 C 
ATOM     12  C   UNL     1       1.970  -6.010  -1.305  0.00  0.00    +0.005 C 
ATOM     13  C   UNL     1       1.649  -6.691  -2.639  0.00  0.00    +0.005 C 
ATOM     14  C   UNL     1       0.417  -6.020  -3.240  0.00  0.00    +0.042 C 
BRANCH   6  15
ATOM     15  C   UNL     1       0.775  -1.794  -1.334  0.00  0.00    +0.317 C 
ATOM     16  O   UNL     1       0.314  -2.540  -0.504  0.00  0.00    -0.250 OA
BRANCH  15  17
ATOM     17  O   UNL     1       0.671  -0.465  -1.174  0.00  0.00    -0.464 OA
BRANCH  17  19
ATOM     18  C   UNL     1      -0.019   1.526   0.010  0.00  0.00    +0.048 C 
ATOM     19  C   UNL     1       0.002  -0.004   0.002  0.00  0.00    +0.229 C 
ENDBRANCH  17  19
ENDBRANCH  15  17
ENDBRANCH   6  15
ENDBRANCH   2   7
ENDBRANCH   1   3
BRANCH   1  20
ATOM     20  S   UNL     1       1.589  -2.642  -8.821  0.00  0.00    -0.104 S 
BRANCH  20  21
ATOM     21  C   UNL     1       2.841  -2.315 -10.092  0.00  0.00    +0.274 C 
ATOM     22  N   UNL     1       4.135  -2.911  -9.709  0.00  0.00    -0.281 N 
ATOM     23  C   UNL     1       4.991  -1.825  -9.615  0.00  0.00    +0.231 C 
ATOM     24  N   UNL     1       4.313  -0.688  -9.905  0.00  0.00    -0.116 NA
ATOM     25  N   UNL     1       3.123  -0.875 -10.180  0.00  0.00    -0.150 NA
ATOM     26  N   UNL     1       6.266  -1.887  -9.294  0.00  0.00    -0.247 N 
ATOM     27  H   UNL     1       4.340  -3.847  -9.557  0.00  0.00    +0.152 HD
ATOM     28  H   UNL     1       6.795  -1.076  -9.251  0.00  0.00    +0.192 HD
BRANCH  26  29
ATOM     29  N   UNL     1       6.811  -3.027  -9.036  0.00  0.00    -0.179 NA
ATOM     30  C   UNL     1       8.078  -3.090  -8.716  0.00  0.00    +0.142 C 
BRANCH  30  31
ATOM     31  C   UNL     1       8.699  -4.389  -8.422  0.00  0.00    +0.013 A 
ATOM     32  C   UNL     1      10.053  -4.459  -8.074  0.00  0.00    +0.011 A 
ATOM     33  C   UNL     1      10.627  -5.682  -7.799  0.00  0.00    +0.001 A 
ATOM     34  C   UNL     1       9.869  -6.839  -7.866  0.00  0.00    +0.001 A 
ATOM     35  C   UNL     1       8.530  -6.779  -8.210  0.00  0.00    +0.020 A 
ATOM     36  C   UNL     1       7.938  -5.563  -8.483  0.00  0.00    +0.050 A 
ATOM     37 CL   UNL     1       6.256  -5.489  -8.907  0.00  0.00    -0.083 Cl
ENDBRANCH  30  31
ENDBRANCH  26  29
ENDBRANCH  20  21
ENDBRANCH   1  20
TORSDOF 9
