REMARK  Name = ZINC09963139
REMARK  12 active torsions:
REMARK  status: ('A' for Active; 'I' for Inactive)
REMARK    1  A    between atoms: C_1  and  C_2
REMARK    2  A    between atoms: C_2  and  C_3
REMARK    3  A    between atoms: C_3  and  C_5
REMARK    4  A    between atoms: C_3  and  N_77
REMARK    5  A    between atoms: C_6  and  C_7
REMARK    6  A    between atoms: C_6  and  N_77
REMARK    7  A    between atoms: C_7  and  N_8
REMARK    8  A    between atoms: C_9  and  C_11
REMARK    9  A    between atoms: C_11  and  N_12
REMARK   10  A    between atoms: C_15  and  S_23
REMARK   11  A    between atoms: S_23  and  N_26
REMARK   12  A    between atoms: C_32  and  N_77
REMARK                            x       y       z     vdW  Elec       q    Type
REMARK                         _______ _______ _______ _____ _____    ______ ____
ROOT
ATOM      1  N   UNL     1      -2.784  -4.963   3.552  0.00  0.00    -0.256 N 
ATOM      2  C   UNL     1      -2.631  -5.973   2.591  0.00  0.00    +0.081 A 
ATOM      3  C   UNL     1      -2.640  -5.668   1.239  0.00  0.00    +0.055 A 
ATOM      4  C   UNL     1      -2.482  -6.677   0.306  0.00  0.00    +0.107 A 
ATOM      5  C   UNL     1      -2.311  -7.986   0.720  0.00  0.00    +0.032 A 
ATOM      6  C   UNL     1      -2.295  -8.294   2.068  0.00  0.00    +0.049 A 
ATOM      7  C   UNL     1      -2.453  -7.290   3.007  0.00  0.00    +0.143 A 
ATOM      8  O   UNL     1      -2.439  -7.575   4.336  0.00  0.00    -0.481 OA
ATOM      9  C   UNL     1      -1.895  -6.576   5.203  0.00  0.00    +0.325 C 
ATOM     10  C   UNL     1      -2.457  -5.226   4.836  0.00  0.00    +0.258 C 
ATOM     11  O   UNL     1      -2.614  -4.380   5.690  0.00  0.00    -0.271 OA
ENDROOT
BRANCH   4  12
ATOM     12  S   UNL     1      -2.500  -6.294  -1.413  0.00  0.00    +0.061 S 
ATOM     13  O   UNL     1      -2.129  -4.928  -1.529  0.00  0.00    -0.153 OA
ATOM     14  O   UNL     1      -1.787  -7.335  -2.068  0.00  0.00    -0.153 OA
BRANCH  12  15
ATOM     15  N   UNL     1      -4.071  -6.404  -1.924  0.00  0.00    -0.172 NA
ATOM     16  C   UNL     1      -4.615  -7.671  -2.436  0.00  0.00    +0.137 C 
ATOM     17  C   UNL     1      -5.933  -7.960  -1.698  0.00  0.00    +0.177 C 
ATOM     18  O   UNL     1      -6.786  -6.818  -1.798  0.00  0.00    -0.377 OA
ATOM     19  C   UNL     1      -6.262  -5.641  -1.178  0.00  0.00    +0.177 C 
ATOM     20  C   UNL     1      -4.964  -5.234  -1.884  0.00  0.00    +0.137 C 
ENDBRANCH  12  15
ENDBRANCH   4  12
BRANCH   1  21
ATOM     21  C   UNL     1      -3.297  -3.645   3.171  0.00  0.00    +0.209 C 
BRANCH  21  23
ATOM     22  N   UNL     1      -2.379  -1.479   2.405  0.00  0.00    -0.316 N 
ATOM     23  C   UNL     1      -2.146  -2.748   2.792  0.00  0.00    +0.231 C 
ATOM     24  O   UNL     1      -1.009  -3.169   2.837  0.00  0.00    -0.274 OA
ATOM     25  H   UNL     1      -3.288  -1.142   2.369  0.00  0.00    +0.149 HD
BRANCH  22  26
ATOM     26  C   UNL     1      -1.260  -0.608   2.037  0.00  0.00    +0.086 C 
BRANCH  26  27
ATOM     27  C   UNL     1      -1.796   0.769   1.639  0.00  0.00    -0.059 C 
BRANCH  27  28
ATOM     28  N   UNL     1      -0.654   1.642   1.292  0.00  0.00    +0.384 N 
ATOM     29  H   UNL     1       0.030   1.616   2.056  0.00  0.00    -0.081 HD
BRANCH  28  30
ATOM     30  C   UNL     1      -1.119   3.034   1.111  0.00  0.00    -0.068 C 
ATOM     31  C   UNL     1       0.097   3.939   0.910  0.00  0.00    -0.015 C 
ATOM     32  C   UNL     1      -0.367   5.388   0.744  0.00  0.00    -0.002 C 
ATOM     33  C   UNL     1      -1.128   5.826   1.997  0.00  0.00    -0.000 C 
ATOM     34  C   UNL     1      -2.344   4.920   2.198  0.00  0.00    -0.002 C 
ATOM     35  C   UNL     1      -1.880   3.472   2.364  0.00  0.00    -0.015 C 
ENDBRANCH  28  30
BRANCH  28  36
ATOM     36  C   UNL     1      -0.009   1.161   0.052  0.00  0.00    -0.072 C 
ATOM     37  C   UNL     1      -0.621   1.848  -1.170  0.00  0.00    -0.013 C 
BRANCH  36  39
ATOM     38  C   UNL     1       2.129   0.673   1.251  0.00  0.00    +0.002 C 
ATOM     39  C   UNL     1       1.485   1.484   0.124  0.00  0.00    -0.019 C 
ENDBRANCH  36  39
ENDBRANCH  28  36
ENDBRANCH  27  28
ENDBRANCH  26  27
ENDBRANCH  22  26
ENDBRANCH  21  23
ENDBRANCH   1  21
TORSDOF 10
