REMARK  Name = ZINC36025665
REMARK  15 active torsions:
REMARK  status: ('A' for Active; 'I' for Inactive)
REMARK    1  A    between atoms: C_1  and  C_2
REMARK    2  A    between atoms: C_2  and  C_3
REMARK    3  A    between atoms: N_5  and  C_6
REMARK    4  A    between atoms: N_5  and  C_13
REMARK    5  A    between atoms: C_6  and  C_7
REMARK    6  A    between atoms: C_13  and  C_15
REMARK    7  A    between atoms: C_13  and  C_16
REMARK    8  A    between atoms: C_16  and  C_18
REMARK    9  A    between atoms: C_19  and  C_30
REMARK   10  A    between atoms: C_20  and  C_26
REMARK   11  A    between atoms: N_21  and  C_24
REMARK   12  A    between atoms: C_22  and  C_23
REMARK   13  A    between atoms: C_24  and  C_25
REMARK   14  A    between atoms: C_26  and  O_28
REMARK   15  A    between atoms: O_28  and  C_29
REMARK                            x       y       z     vdW  Elec       q    Type
REMARK                         _______ _______ _______ _____ _____    ______ ____
ROOT
ATOM      1  C   UNL     1       0.041  -2.532  -1.436  0.00  0.00    +0.185 C 
ATOM      2  O   UNL     1      -0.037  -1.458  -1.996  0.00  0.00    -0.290 OA
ENDROOT
BRANCH   1   3
ATOM      3  C   UNL     1       1.034  -3.517  -1.874  0.00  0.00    +0.043 A 
ATOM      4  C   UNL     1       1.167  -4.845  -1.404  0.00  0.00    -0.008 A 
ATOM      5  C   UNL     1       2.212  -5.404  -2.078  0.00  0.00    +0.131 A 
ATOM      6  N   UNL     1       2.724  -4.461  -2.944  0.00  0.00    -0.338 N 
ATOM      7  C   UNL     1       2.018  -3.327  -2.832  0.00  0.00    +0.027 A 
ATOM      8  C   UNL     1       2.256  -2.059  -3.611  0.00  0.00    +0.064 C 
ATOM      9  C   UNL     1       0.314  -5.515  -0.357  0.00  0.00    +0.047 C 
BRANCH   6  10
ATOM     10  C   UNL     1       3.857  -4.669  -3.849  0.00  0.00    +0.119 C 
ATOM     11  C   UNL     1       3.347  -5.195  -5.193  0.00  0.00    +0.027 C 
ENDBRANCH   6  10
BRANCH   5  12
ATOM     12  C   UNL     1       2.709  -6.773  -1.908  0.00  0.00    +0.356 C 
ATOM     13  O   UNL     1       2.176  -7.519  -1.109  0.00  0.00    -0.243 OA
BRANCH  12  14
ATOM     14  O   UNL     1       3.756  -7.206  -2.639  0.00  0.00    -0.463 OA
ATOM     15  C   UNL     1       4.187  -8.551  -2.423  0.00  0.00    +0.280 C 
ENDBRANCH  12  14
ENDBRANCH   5  12
ENDBRANCH   1   3
BRANCH   1  16
ATOM     16  C   UNL     1      -0.884  -2.852  -0.290  0.00  0.00    +0.144 C 
ATOM     17  C   UNL     1      -0.175  -2.561   1.034  0.00  0.00    +0.036 C 
BRANCH  16  20
ATOM     18  C   UNL     1      -3.285  -2.605  -0.620  0.00  0.00    +0.216 C 
ATOM     19  O   UNL     1      -4.268  -1.917  -0.795  0.00  0.00    -0.276 OA
ATOM     20  N   UNL     1      -2.090  -2.027  -0.390  0.00  0.00    -0.289 N 
BRANCH  18  22
ATOM     21  C   UNL     1      -4.871  -4.502  -0.808  0.00  0.00    +0.013 C 
ATOM     22  C   UNL     1      -3.400  -4.107  -0.659  0.00  0.00    +0.092 C 
ENDBRANCH  18  22
BRANCH  20  23
ATOM     23  C   UNL     1      -1.997  -0.572  -0.240  0.00  0.00    +0.140 C 
BRANCH  23  24
ATOM     24  C   UNL     1      -2.173  -0.199   1.233  0.00  0.00    +0.136 C 
ATOM     25  C   UNL     1      -2.112   1.340   1.409  0.00  0.00    +0.035 C 
ATOM     26  C   UNL     1      -2.920   1.518   2.723  0.00  0.00    +0.031 C 
ATOM     27  C   UNL     1      -3.979   0.400   2.611  0.00  0.00    +0.160 C 
ATOM     28  O   UNL     1      -3.480  -0.579   1.691  0.00  0.00    -0.375 OA
ENDBRANCH  23  24
ENDBRANCH  20  23
ENDBRANCH  16  20
ENDBRANCH   1  16
TORSDOF 9
