REMARK  Name = ZINC64219002
REMARK  9 active torsions:
REMARK  status: ('A' for Active; 'I' for Inactive)
REMARK    1  A    between atoms: C_1  and  C_2
REMARK    2  A    between atoms: C_6  and  C_28
REMARK    3  A    between atoms: C_7  and  O_8
REMARK    4  A    between atoms: O_8  and  C_9
REMARK    5  A    between atoms: C_9  and  C_11
REMARK    6  A    between atoms: C_9  and  C_12
REMARK    7  A    between atoms: N_14  and  N_15
REMARK    8  A    between atoms: C_16  and  C_18
REMARK    9  A    between atoms: C_18  and  C_19
REMARK                            x       y       z     vdW  Elec       q    Type
REMARK                         _______ _______ _______ _____ _____    ______ ____
ROOT
ATOM      1  C   UNL     1      -1.049  -0.086   4.005  0.00  0.00    +0.270 C 
ATOM      2  O   UNL     1       0.035  -0.221   4.532  0.00  0.00    -0.270 OA
ATOM      3  N   UNL     1      -2.166  -0.066   4.759  0.00  0.00    -0.231 N 
ATOM      4  H   UNL     1      -3.033   0.042   4.338  0.00  0.00    +0.173 HD
ENDROOT
BRANCH   3   5
ATOM      5  N   UNL     1      -2.075  -0.200   6.151  0.00  0.00    -0.234 N 
ATOM      6  C   UNL     1      -3.192  -0.180   6.904  0.00  0.00    +0.233 C 
ATOM      7  O   UNL     1      -4.277  -0.045   6.378  0.00  0.00    -0.274 OA
ATOM      8  H   UNL     1      -1.208  -0.308   6.572  0.00  0.00    +0.173 HD
BRANCH   6   9
ATOM      9  C   UNL     1      -3.094  -0.325   8.401  0.00  0.00    +0.130 C 
BRANCH   9  10
ATOM     10  C   UNL     1      -4.475  -0.269   9.003  0.00  0.00    -0.033 C 
ATOM     11  C   UNL     1      -5.266  -1.319   9.320  0.00  0.00    -0.001 A 
ATOM     12  C   UNL     1      -5.086  -2.771   9.204  0.00  0.00    +0.010 A 
ATOM     13  C   UNL     1      -6.080  -3.591   9.615  0.00  0.00    +0.001 A 
ATOM     14  C   UNL     1      -7.276  -3.089  10.148  0.00  0.00    +0.002 A 
ATOM     15  C   UNL     1      -7.515  -1.768  10.286  0.00  0.00    +0.026 A 
ATOM     16  C   UNL     1      -6.538  -0.815   9.886  0.00  0.00    +0.043 A 
ATOM     17  N   UNL     1      -6.533   0.495   9.917  0.00  0.00    -0.380 N 
ATOM     18  C   UNL     1      -5.254   0.971   9.379  0.00  0.00    +0.145 C 
ATOM     19  H   UNL     1      -7.253   1.057  10.245  0.00  0.00    +0.160 HD
ENDBRANCH   9  10
ENDBRANCH   6   9
ENDBRANCH   3   5
BRANCH   1  20
ATOM     20  C   UNL     1      -1.147   0.059   2.509  0.00  0.00    +0.257 C 
ATOM     21  C   UNL     1      -1.683   1.450   2.165  0.00  0.00    +0.062 C 
BRANCH  20  22
ATOM     22  O   UNL     1       0.148  -0.110   1.928  0.00  0.00    -0.479 OA
BRANCH  22  29
ATOM     23  C   UNL     1       0.141  -2.934   1.892  0.00  0.00    +0.047 C 
ATOM     24  C   UNL     1       0.205  -2.106   0.635  0.00  0.00    -0.007 A 
ATOM     25  C   UNL     1       0.257  -2.725  -0.599  0.00  0.00    +0.027 A 
ATOM     26  C   UNL     1       0.316  -1.965  -1.754  0.00  0.00    +0.042 A 
ATOM     27  C   UNL     1       0.323  -0.584  -1.675  0.00  0.00    +0.027 A 
ATOM     28  C   UNL     1       0.270   0.039  -0.443  0.00  0.00    -0.007 A 
ATOM     29  C   UNL     1       0.205  -0.721   0.715  0.00  0.00    +0.127 A 
ATOM     30  C   UNL     1       0.278   1.544  -0.358  0.00  0.00    +0.047 C 
ATOM     31 CL   UNL     1       0.383  -2.746  -3.303  0.00  0.00    -0.084 Cl
ENDBRANCH  22  29
ENDBRANCH  20  22
ENDBRANCH   1  20
TORSDOF 6
