REMARK  Name = ZINC15245394
REMARK  5 active torsions:
REMARK  status: ('A' for Active; 'I' for Inactive)
REMARK    1  A    between atoms: C_1  and  C_2
REMARK    2  A    between atoms: C_11  and  S_13
REMARK    3  A    between atoms: S_13  and  N_16
REMARK    4  A    between atoms: N_16  and  N_17
REMARK    5  A    between atoms: C_18  and  C_20
REMARK                            x       y       z     vdW  Elec       q    Type
REMARK                         _______ _______ _______ _____ _____    ______ ____
ROOT
ATOM      1  N   UNL     1      -3.148   0.588   1.601  0.00  0.00    -0.108 NA
ATOM      2  H   UNL     1      -3.242  -0.317   1.936  0.00  0.00    +0.172 HD
ENDROOT
BRANCH   1   3
ATOM      3  N   UNL     1      -3.361   1.677   2.457  0.00  0.00    -0.227 N 
ATOM      4  C   UNL     1      -4.524   1.786   3.131  0.00  0.00    +0.265 C 
ATOM      5  O   UNL     1      -5.387   0.940   2.996  0.00  0.00    -0.268 OA
ATOM      6  H   UNL     1      -2.673   2.351   2.565  0.00  0.00    +0.171 HD
BRANCH   4   7
ATOM      7  C   UNL     1      -4.747   2.925   4.026  0.00  0.00    +0.076 A 
ATOM      8  C   UNL     1      -5.851   3.226   4.794  0.00  0.00    +0.024 A 
ATOM      9  C   UNL     1      -5.813   4.376   5.586  0.00  0.00    -0.036 A 
ATOM     10  C   UNL     1      -4.714   5.151   5.490  0.00  0.00    -0.006 A 
ATOM     11  S   UNL     1      -3.666   4.290   4.404  0.00  0.00    -0.088 S 
ATOM     12  C   UNL     1      -4.361   6.501   6.057  0.00  0.00    +0.043 C 
ATOM     13  C   UNL     1      -5.497   7.096   6.891  0.00  0.00    +0.005 C 
ATOM     14  C   UNL     1      -5.522   6.484   8.282  0.00  0.00    +0.000 C 
ATOM     15  C   UNL     1      -5.187   5.005   8.279  0.00  0.00    +0.000 C 
ATOM     16  C   UNL     1      -6.485   4.253   7.970  0.00  0.00    +0.005 C 
ATOM     17  C   UNL     1      -6.952   4.629   6.564  0.00  0.00    +0.036 C 
ENDBRANCH   4   7
ENDBRANCH   1   3
BRANCH   1  18
ATOM     18  S   UNL     1      -2.734   0.848   0.019  0.00  0.00    +0.074 S 
ATOM     19  O   UNL     1      -3.723   1.713  -0.522  0.00  0.00    -0.152 OA
ATOM     20  O   UNL     1      -2.449  -0.427  -0.540  0.00  0.00    -0.152 OA
BRANCH  18  31
ATOM     21  C   UNL     1       4.216   5.437  -0.008  0.00  0.00    +0.109 C 
ATOM     22  C   UNL     1       2.773   5.000   0.003  0.00  0.00    +0.217 C 
ATOM     23  O   UNL     1       1.888   5.829   0.016  0.00  0.00    -0.276 OA
ATOM     24  N   UNL     1       2.467   3.688  -0.001  0.00  0.00    -0.271 N 
ATOM     25  C   UNL     1       3.446   2.597  -0.016  0.00  0.00    +0.118 C 
ATOM     26  C   UNL     1       2.611   1.306  -0.015  0.00  0.00    +0.056 C 
ATOM     27  C   UNL     1       1.175   1.781   0.000  0.00  0.00    -0.023 A 
ATOM     28  C   UNL     1       1.169   3.167   0.008  0.00  0.00    +0.040 A 
ATOM     29  C   UNL     1      -0.053   3.840   0.023  0.00  0.00    +0.026 A 
ATOM     30  C   UNL     1      -1.236   3.132   0.031  0.00  0.00    +0.030 A 
ATOM     31  C   UNL     1      -1.220   1.749   0.017  0.00  0.00    +0.107 A 
ATOM     32  C   UNL     1      -0.013   1.076   0.008  0.00  0.00    +0.034 A 
ENDBRANCH  18  31
ENDBRANCH   1  18
TORSDOF 4
