REMARK  Name = ZINC06305218
REMARK  9 active torsions:
REMARK  status: ('A' for Active; 'I' for Inactive)
REMARK    1  A    between atoms: C_1  and  C_2
REMARK    2  A    between atoms: C_2  and  C_3
REMARK    3  A    between atoms: C_2  and  C_4
REMARK    4  A    between atoms: C_2  and  C_5
REMARK    5  A    between atoms: C_8  and  C_11
REMARK    6  A    between atoms: N_13  and  C_14
REMARK    7  A    between atoms: C_14  and  C_23
REMARK    8  A    between atoms: C_15  and  C_16
REMARK    9  A    between atoms: N_25  and  N_26
REMARK                            x       y       z     vdW  Elec       q    Type
REMARK                         _______ _______ _______ _____ _____    ______ ____
ROOT
ATOM      1  C   UNL     1       4.615  -1.970  -6.043  0.00  0.00    +0.098 C 
ATOM      2  C   UNL     1       5.871  -1.529  -6.287  0.00  0.00    +0.036 C 
ENDROOT
BRANCH   2   3
ATOM      3  C   UNL     1       6.471  -1.717  -7.616  0.00  0.00    -0.023 A 
ATOM      4  C   UNL     1       5.664  -1.719  -8.758  0.00  0.00    +0.009 A 
ATOM      5  C   UNL     1       6.234  -1.896 -10.001  0.00  0.00    +0.020 A 
ATOM      6  C   UNL     1       7.603  -2.071 -10.120  0.00  0.00    +0.041 A 
ATOM      7  C   UNL     1       8.409  -2.071  -8.993  0.00  0.00    +0.020 A 
ATOM      8  C   UNL     1       7.854  -1.889  -7.745  0.00  0.00    +0.009 A 
ATOM      9 CL   UNL     1       8.312  -2.293 -11.689  0.00  0.00    -0.084 Cl
ENDBRANCH   2   3
BRANCH   1  12
ATOM     10  C   UNL     1       2.782  -2.191  -4.544  0.00  0.00    +0.248 C 
ATOM     11  O   UNL     1       2.193  -2.851  -5.378  0.00  0.00    -0.270 OA
ATOM     12  N   UNL     1       3.992  -1.669  -4.828  0.00  0.00    -0.277 N 
ATOM     13  H   UNL     1       4.430  -1.085  -4.189  0.00  0.00    +0.155 HD
BRANCH  10  17
ATOM     14  C   UNL     1       1.026  -1.531  -0.733  0.00  0.00    -0.042 A 
ATOM     15  C   UNL     1       0.353  -2.282  -1.681  0.00  0.00    +0.005 A 
ATOM     16  C   UNL     1       0.918  -2.500  -2.920  0.00  0.00    +0.013 A 
ATOM     17  C   UNL     1       2.171  -1.961  -3.218  0.00  0.00    +0.037 A 
ATOM     18  C   UNL     1       2.844  -1.204  -2.257  0.00  0.00    +0.013 A 
ATOM     19  C   UNL     1       2.266  -0.990  -1.023  0.00  0.00    +0.005 A 
BRANCH  14  21
ATOM     20  C   UNL     1       0.214   0.204   0.841  0.00  0.00    +0.015 C 
ATOM     21  C   UNL     1       0.404  -1.298   0.619  0.00  0.00    -0.013 C 
ATOM     22  C   UNL     1       1.320  -1.862   1.707  0.00  0.00    +0.015 C 
ATOM     23  C   UNL     1      -0.955  -1.998   0.683  0.00  0.00    +0.015 C 
ENDBRANCH  14  21
ENDBRANCH  10  17
ENDBRANCH   1  12
BRANCH   1  24
ATOM     24  C   UNL     1       3.906  -2.765  -7.056  0.00  0.00    +0.272 C 
ATOM     25  O   UNL     1       2.946  -2.294  -7.637  0.00  0.00    -0.268 OA
ATOM     26  N   UNL     1       4.319  -4.016  -7.341  0.00  0.00    -0.249 N 
ATOM     27  H   UNL     1       5.037  -4.419  -6.828  0.00  0.00    +0.169 HD
BRANCH  26  28
ATOM     28  N   UNL     1       3.725  -4.717  -8.352  0.00  0.00    -0.254 NA
ATOM     29  H   UNL     1       3.772  -4.208  -9.221  0.00  0.00    +0.140 HD
ATOM     30  H   UNL     1       4.138  -5.633  -8.447  0.00  0.00    +0.140 HD
ENDBRANCH  26  28
ENDBRANCH   1  24
TORSDOF 6
