REMARK  Name = ZINC42099902
REMARK  5 active torsions:
REMARK  status: ('A' for Active; 'I' for Inactive)
REMARK    1  A    between atoms: C_1  and  C_2
REMARK    2  A    between atoms: C_4  and  N_15
REMARK    3  A    between atoms: C_9  and  C_11
REMARK    4  A    between atoms: N_15  and  C_16
REMARK    5  A    between atoms: C_16  and  C_17
REMARK                            x       y       z     vdW  Elec       q    Type
REMARK                         _______ _______ _______ _____ _____    ______ ____
ROOT
ATOM      1  C   UNL     1      -0.018   1.503   0.010  0.00  0.00    +0.066 C 
ATOM      2  C   UNL     1       0.002  -0.004   0.002  0.00  0.00    +0.045 A 
ATOM      3  C   UNL     1      -1.197  -0.712   0.004  0.00  0.00    +0.066 A 
ATOM      4  C   UNL     1      -1.160  -2.093  -0.004  0.00  0.00    +0.126 A 
ATOM      5  N   UNL     1       0.055  -2.716  -0.013  0.00  0.00    -0.182 N 
ATOM      6  C   UNL     1       1.205  -1.979  -0.015  0.00  0.00    +0.255 A 
ATOM      7  N   UNL     1       1.153  -0.642  -0.012  0.00  0.00    -0.216 NA
ATOM      8  N   UNL     1       2.220  -2.837  -0.024  0.00  0.00    -0.186 NA
ATOM      9  C   UNL     1       1.756  -4.080  -0.028  0.00  0.00    +0.257 A 
ATOM     10  N   UNL     1       0.446  -4.061  -0.022  0.00  0.00    -0.138 NA
ENDROOT
BRANCH   9  11
ATOM     11  C   UNL     1       2.607  -5.324  -0.038  0.00  0.00    +0.454 C 
ATOM     12  F   UNL     1       3.923  -4.992   0.299  0.00  0.00    -0.163 F 
ATOM     13  F   UNL     1       2.104  -6.241   0.892  0.00  0.00    -0.163 F 
ATOM     14  F   UNL     1       2.583  -5.895  -1.315  0.00  0.00    -0.163 F 
ENDBRANCH   9  11
BRANCH   4  15
ATOM     15  N   UNL     1      -2.325  -2.827  -0.002  0.00  0.00    -0.329 N 
ATOM     16  H   UNL     1      -2.288  -3.796  -0.007  0.00  0.00    +0.147 HD
BRANCH  15  17
ATOM     17  C   UNL     1      -3.621  -2.143   0.009  0.00  0.00    +0.106 C 
BRANCH  17  18
ATOM     18  C   UNL     1      -4.745  -3.181   0.009  0.00  0.00    +0.006 C 
ATOM     19  C   UNL     1      -5.163  -3.637  -1.399  0.00  0.00    +0.005 C 
ATOM     20  C   UNL     1      -6.615  -3.607  -0.892  0.00  0.00    +0.001 C 
ATOM     21  C   UNL     1      -6.149  -2.569   0.142  0.00  0.00    +0.005 C 
ENDBRANCH  17  18
ENDBRANCH  15  17
ENDBRANCH   4  15
TORSDOF 4
