REMARK  Name = ZINC00921328
REMARK  11 active torsions:
REMARK  status: ('A' for Active; 'I' for Inactive)
REMARK    1  A    between atoms: C_1  and  C_2
REMARK    2  A    between atoms: C_2  and  C_3
REMARK    3  A    between atoms: C_3  and  C_5
REMARK    4  A    between atoms: C_3  and  C_6
REMARK    5  A    between atoms: C_9  and  N_12
REMARK    6  A    between atoms: N_12  and  C_13
REMARK    7  A    between atoms: C_13  and  C_15
REMARK    8  A    between atoms: C_13  and  C_22
REMARK    9  A    between atoms: C_18  and  O_21
REMARK   10  A    between atoms: N_24  and  C_25
REMARK   11  A    between atoms: C_31  and  C_33
REMARK                            x       y       z     vdW  Elec       q    Type
REMARK                         _______ _______ _______ _____ _____    ______ ____
ROOT
ATOM      1  N   UNL     1       1.441   3.176  -0.095  0.00  0.00    -0.250 N 
ATOM      2  C   UNL     1       1.527   2.052   0.643  0.00  0.00    +0.272 C 
ATOM      3  O   UNL     1       0.980   1.034   0.266  0.00  0.00    -0.268 OA
ENDROOT
BRANCH   1   7
ATOM      4  C   UNL     1      -0.909   3.236  -3.533  0.00  0.00    -0.044 A 
ATOM      5  C   UNL     1       0.468   3.316  -3.637  0.00  0.00    +0.006 A 
ATOM      6  C   UNL     1       1.250   3.296  -2.499  0.00  0.00    +0.024 A 
ATOM      7  C   UNL     1       0.652   3.197  -1.249  0.00  0.00    +0.038 A 
ATOM      8  C   UNL     1      -0.731   3.116  -1.148  0.00  0.00    +0.024 A 
ATOM      9  C   UNL     1      -1.507   3.136  -2.290  0.00  0.00    +0.006 A 
BRANCH   4  10
ATOM     10  C   UNL     1      -1.759   3.257  -4.777  0.00  0.00    +0.016 C 
ATOM     11  C   UNL     1      -2.574   1.965  -4.861  0.00  0.00    +0.012 C 
BRANCH  10  13
ATOM     12  C   UNL     1      -3.483   4.550  -6.041  0.00  0.00    +0.004 C 
ATOM     13  C   UNL     1      -2.709   4.456  -4.725  0.00  0.00    +0.004 C 
ENDBRANCH  10  13
ENDBRANCH   4  10
ENDBRANCH   1   7
BRANCH   2  14
ATOM     14  C   UNL     1       2.290   2.056   1.913  0.00  0.00    +0.144 A 
ATOM     15  C   UNL     1       2.264   0.939   2.747  0.00  0.00    +0.143 A 
ATOM     16  N   UNL     1       2.946   0.947   3.879  0.00  0.00    -0.259 NA
ATOM     17  C   UNL     1       3.650   2.012   4.220  0.00  0.00    +0.130 A 
ATOM     18  C   UNL     1       3.678   3.124   3.391  0.00  0.00    +0.131 A 
ATOM     19  N   UNL     1       3.005   3.123   2.258  0.00  0.00    -0.247 NA
ENDBRANCH   2  14
BRANCH   1  20
ATOM     20  C   UNL     1       2.174   4.378   0.313  0.00  0.00    +0.197 C 
BRANCH  20  21
ATOM     21  C   UNL     1       2.080   5.417  -0.775  0.00  0.00    -0.018 A 
ATOM     22  C   UNL     1       0.846   5.915  -1.148  0.00  0.00    +0.009 A 
ATOM     23  C   UNL     1       0.757   6.872  -2.141  0.00  0.00    +0.046 A 
ATOM     24  C   UNL     1       1.908   7.323  -2.772  0.00  0.00    +0.117 A 
ATOM     25  C   UNL     1       3.144   6.817  -2.400  0.00  0.00    +0.046 A 
ATOM     26  C   UNL     1       3.228   5.865  -1.402  0.00  0.00    +0.009 A 
BRANCH  24  27
ATOM     27  O   UNL     1       1.823   8.259  -3.753  0.00  0.00    -0.507 OA
ATOM     28  H   UNL     1       1.718   7.890  -4.641  0.00  0.00    +0.292 HD
ENDBRANCH  24  27
ENDBRANCH  20  21
BRANCH  20  29
ATOM     29  C   UNL     1       1.575   4.925   1.583  0.00  0.00    +0.239 C 
ATOM     30  O   UNL     1       0.629   4.366   2.097  0.00  0.00    -0.273 OA
ATOM     31  N   UNL     1       2.090   6.035   2.147  0.00  0.00    -0.311 N 
ATOM     32  H   UNL     1       2.847   6.482   1.736  0.00  0.00    +0.149 HD
BRANCH  31  33
ATOM     33  C   UNL     1       1.508   6.567   3.382  0.00  0.00    +0.073 C 
ATOM     34  C   UNL     1       0.322   7.470   3.039  0.00  0.00    +0.022 C 
ATOM     35  C   UNL     1      -0.287   8.025   4.328  0.00  0.00    +0.002 C 
ATOM     36  C   UNL     1       0.769   8.835   5.082  0.00  0.00    +0.000 C 
ATOM     37  C   UNL     1       1.956   7.933   5.426  0.00  0.00    +0.002 C 
ATOM     38  C   UNL     1       2.564   7.377   4.136  0.00  0.00    +0.022 C 
ENDBRANCH  31  33
ENDBRANCH  20  29
ENDBRANCH   1  20
TORSDOF 9
