REMARK  Name = ZINC64662313
REMARK  4 active torsions:
REMARK  status: ('A' for Active; 'I' for Inactive)
REMARK    1  A    between atoms: C_2  and  C_3
REMARK    2  A    between atoms: C_3  and  N_4
REMARK    3  A    between atoms: C_7  and  C_14
REMARK    4  A    between atoms: N_16  and  C_17
REMARK                            x       y       z     vdW  Elec       q    Type
REMARK                         _______ _______ _______ _____ _____    ______ ____
ROOT
ATOM      1  N   UNL     1      -1.318  -1.700  -1.126  0.00  0.00    -0.270 N 
ATOM      2  C   UNL     1      -1.804  -1.424  -2.404  0.00  0.00    +0.091 A 
ATOM      3  C   UNL     1      -2.372  -0.302  -2.980  0.00  0.00    +0.042 A 
ATOM      4  C   UNL     1      -2.769  -0.337  -4.318  0.00  0.00    +0.039 A 
ATOM      5  C   UNL     1      -2.590  -1.504  -5.067  0.00  0.00    +0.017 A 
ATOM      6  C   UNL     1      -2.025  -2.618  -4.488  0.00  0.00    +0.049 A 
ATOM      7  C   UNL     1      -1.628  -2.587  -3.158  0.00  0.00    +0.157 A 
ATOM      8  O   UNL     1      -1.058  -3.509  -2.345  0.00  0.00    -0.407 OA
ATOM      9  C   UNL     1      -0.869  -2.971  -1.130  0.00  0.00    +0.422 A 
ATOM     10  O   UNL     1      -0.373  -3.543  -0.178  0.00  0.00    -0.223 OA
ENDROOT
BRANCH   4  11
ATOM     11  C   UNL     1      -3.376   0.856  -4.940  0.00  0.00    +0.244 C 
ATOM     12  O   UNL     1      -3.532   1.870  -4.288  0.00  0.00    -0.270 OA
ATOM     13  N   UNL     1      -3.759   0.821  -6.232  0.00  0.00    -0.308 N 
ATOM     14  H   UNL     1      -3.635   0.012  -6.753  0.00  0.00    +0.149 HD
BRANCH  13  15
ATOM     15  C   UNL     1      -4.362   2.005  -6.850  0.00  0.00    +0.073 C 
ATOM     16  C   UNL     1      -5.888   2.000  -6.624  0.00  0.00    +0.022 C 
ATOM     17  C   UNL     1      -6.469   2.569  -7.942  0.00  0.00    +0.002 C 
ATOM     18  C   UNL     1      -5.543   1.951  -9.019  0.00  0.00    +0.002 C 
ATOM     19  C   UNL     1      -4.143   1.974  -8.373  0.00  0.00    +0.022 C 
ENDBRANCH  13  15
ENDBRANCH   4  11
BRANCH   1  20
ATOM     20  C   UNL     1      -1.293  -0.775   0.010  0.00  0.00    +0.155 C 
BRANCH  20  22
ATOM     21  C   UNL     1      -0.016   1.306   0.009  0.00  0.00    +0.005 C 
ATOM     22  C   UNL     1       0.002  -0.004   0.002  0.00  0.00    -0.013 C 
ENDBRANCH  20  22
ENDBRANCH   1  20
TORSDOF 4
