REMARK  Name = ZINC11898850
REMARK  9 active torsions:
REMARK  status: ('A' for Active; 'I' for Inactive)
REMARK    1  A    between atoms: C_1  and  C_2
REMARK    2  A    between atoms: C_5  and  C_29
REMARK    3  A    between atoms: C_6  and  N_8
REMARK    4  A    between atoms: C_9  and  C_11
REMARK    5  A    between atoms: N_13  and  C_14
REMARK    6  A    between atoms: C_14  and  C_15
REMARK    7  A    between atoms: C_15  and  C_17
REMARK    8  A    between atoms: C_15  and  N_61
REMARK    9  A    between atoms: N_21  and  C_22
REMARK                            x       y       z     vdW  Elec       q    Type
REMARK                         _______ _______ _______ _____ _____    ______ ____
ROOT
ATOM      1  C   UNL     1       0.998  -2.629  -1.651  0.00  0.00    +0.299 C 
ATOM      2  O   UNL     1       1.508  -3.707  -1.422  0.00  0.00    -0.265 OA
ATOM      3  N   UNL     1       0.262  -2.017  -0.702  0.00  0.00    -0.309 N 
ATOM      4  H   UNL     1      -0.146  -1.156  -0.885  0.00  0.00    +0.149 HD
ENDROOT
BRANCH   1   6
ATOM      5  N   UNL     1       1.922  -2.594  -3.932  0.00  0.00    -0.278 N 
ATOM      6  C   UNL     1       1.186  -1.982  -2.983  0.00  0.00    +0.303 C 
ATOM      7  O   UNL     1       0.676  -0.904  -3.212  0.00  0.00    -0.265 OA
ATOM      8  H   UNL     1       2.280  -3.481  -3.771  0.00  0.00    +0.155 HD
BRANCH   5  14
ATOM      9  C   UNL     1       0.547   0.651  -7.358  0.00  0.00    +0.044 C 
ATOM     10  C   UNL     1       1.520  -0.373  -6.833  0.00  0.00    -0.049 A 
ATOM     11  C   UNL     1       2.659  -0.678  -7.555  0.00  0.00    +0.004 A 
ATOM     12  C   UNL     1       3.554  -1.618  -7.077  0.00  0.00    +0.005 A 
ATOM     13  C   UNL     1       3.313  -2.255  -5.876  0.00  0.00    -0.029 A 
ATOM     14  C   UNL     1       2.170  -1.951  -5.147  0.00  0.00    +0.037 A 
ATOM     15  C   UNL     1       1.270  -1.010  -5.633  0.00  0.00    +0.027 A 
ATOM     16  C   UNL     1       4.289  -3.279  -5.356  0.00  0.00    +0.045 C 
ENDBRANCH   5  14
ENDBRANCH   1   6
BRANCH   3  17
ATOM     17  C   UNL     1       0.077  -2.652   0.605  0.00  0.00    +0.095 C 
BRANCH  17  18
ATOM     18  C   UNL     1      -0.657  -1.690   1.540  0.00  0.00    -0.003 C 
BRANCH  18  25
ATOM     19  C   UNL     1       0.082   0.402   0.556  0.00  0.00    -0.078 C 
ATOM     20  C   UNL     1       0.260   1.825   1.025  0.00  0.00    -0.019 C 
ATOM     21  C   UNL     1       1.724   2.281   0.907  0.00  0.00    -0.002 C 
ATOM     22  C   UNL     1       2.709   1.177   1.338  0.00  0.00    -0.002 C 
ATOM     23  C   UNL     1       2.251   0.440   2.571  0.00  0.00    -0.019 C 
ATOM     24  C   UNL     1       1.451  -0.809   2.143  0.00  0.00    -0.078 C 
ATOM     25  N   UNL     1       0.124  -0.462   1.776  0.00  0.00    +0.386 N 
ATOM     26  H   UNL     1      -0.299   0.057   2.555  0.00  0.00    -0.081 HD
ENDBRANCH  18  25
BRANCH  18  27
ATOM     27  C   UNL     1      -0.889  -2.360   2.870  0.00  0.00    +0.006 A 
ATOM     28  C   UNL     1      -0.528  -1.872   4.075  0.00  0.00    +0.021 A 
ATOM     29  C   UNL     1      -0.931  -2.810   5.047  0.00  0.00    +0.019 A 
ATOM     30  C   UNL     1      -1.522  -3.834   4.399  0.00  0.00    +0.085 A 
ATOM     31  N   UNL     1      -1.505  -3.561   3.063  0.00  0.00    -0.355 N 
ATOM     32  C   UNL     1      -2.053  -4.418   2.010  0.00  0.00    +0.148 C 
ENDBRANCH  18  27
ENDBRANCH  17  18
ENDBRANCH   3  17
TORSDOF 6
