REMARK  Name = ZINC13065259
REMARK  12 active torsions:
REMARK  status: ('A' for Active; 'I' for Inactive)
REMARK    1  A    between atoms: C_1  and  C_2
REMARK    2  A    between atoms: C_2  and  C_3
REMARK    3  A    between atoms: C_3  and  C_5
REMARK    4  A    between atoms: C_3  and  N_75
REMARK    5  A    between atoms: N_9  and  C_10
REMARK    6  A    between atoms: C_16  and  C_17
REMARK    7  A    between atoms: C_16  and  N_75
REMARK    8  A    between atoms: C_20  and  C_23
REMARK    9  A    between atoms: C_24  and  C_25
REMARK   10  A    between atoms: C_24  and  N_75
REMARK   11  A    between atoms: C_28  and  C_38
REMARK   12  A    between atoms: C_31  and  C_37
REMARK                            x       y       z     vdW  Elec       q    Type
REMARK                         _______ _______ _______ _____ _____    ______ ____
ROOT
ATOM      1  N   UNL     1      -0.105  -0.724   2.230  0.00  0.00    +0.392 N 
ATOM      2  H   UNL     1      -0.992  -0.531   2.710  0.00  0.00    -0.080 HD
ENDROOT
BRANCH   1   3
ATOM      3  C   UNL     1       0.964   0.085   2.853  0.00  0.00    +0.003 C 
BRANCH   3   4
ATOM      4  C   UNL     1       2.314  -0.336   2.335  0.00  0.00    +0.138 A 
ATOM      5  N   UNL     1       2.725  -1.564   2.128  0.00  0.00    -0.115 NA
ATOM      6  N   UNL     1       3.933  -1.510   1.682  0.00  0.00    -0.023 NA
ATOM      7  N   UNL     1       4.306  -0.280   1.606  0.00  0.00    -0.044 NA
ATOM      8  N   UNL     1       3.336   0.474   2.000  0.00  0.00    -0.228 N 
BRANCH   8   9
ATOM      9  C   UNL     1       3.344   1.938   2.069  0.00  0.00    +0.111 C 
ATOM     10  C   UNL     1       3.785   2.510   0.720  0.00  0.00    +0.027 C 
ATOM     11  C   UNL     1       3.793   4.038   0.793  0.00  0.00    +0.002 C 
ATOM     12  C   UNL     1       4.767   4.491   1.882  0.00  0.00    +0.000 C 
ATOM     13  C   UNL     1       4.326   3.920   3.231  0.00  0.00    +0.002 C 
ATOM     14  C   UNL     1       4.317   2.391   3.159  0.00  0.00    +0.027 C 
ENDBRANCH   8   9
ENDBRANCH   3   4
BRANCH   3  16
ATOM     15  C   UNL     1      -0.406   0.435   4.912  0.00  0.00    +0.002 C 
ATOM     16  C   UNL     1       0.914  -0.115   4.369  0.00  0.00    -0.011 C 
ENDBRANCH   3  16
ENDBRANCH   1   3
BRANCH   1  17
ATOM     17  C   UNL     1      -0.244  -0.366   0.803  0.00  0.00    -0.042 C 
BRANCH  17  18
ATOM     18  C   UNL     1      -0.923   0.976   0.705  0.00  0.00    -0.064 A 
ATOM     19  C   UNL     1      -2.303   1.052   0.680  0.00  0.00    +0.002 A 
ATOM     20  C   UNL     1      -2.927   2.283   0.594  0.00  0.00    +0.003 A 
ATOM     21  C   UNL     1      -2.170   3.437   0.523  0.00  0.00    -0.050 A 
ATOM     22  C   UNL     1      -0.789   3.361   0.543  0.00  0.00    +0.003 A 
ATOM     23  C   UNL     1      -0.166   2.130   0.633  0.00  0.00    +0.002 A 
ATOM     24  C   UNL     1      -2.849   4.779   0.425  0.00  0.00    +0.044 C 
ENDBRANCH  17  18
ENDBRANCH   1  17
BRANCH   1  25
ATOM     25  C   UNL     1       0.208  -2.162   2.362  0.00  0.00    -0.036 C 
BRANCH  25  26
ATOM     26  C   UNL     1      -1.061  -2.952   2.173  0.00  0.00    +0.001 A 
ATOM     27  C   UNL     1      -1.365  -3.461   0.954  0.00  0.00    +0.017 A 
ATOM     28  C   UNL     1      -2.603  -4.228   0.805  0.00  0.00    +0.002 A 
ATOM     29  C   UNL     1      -2.968  -4.783  -0.426  0.00  0.00    -0.041 A 
ATOM     30  C   UNL     1      -4.132  -5.489  -0.533  0.00  0.00    +0.004 A 
ATOM     31  C   UNL     1      -4.957  -5.662   0.570  0.00  0.00    +0.005 A 
ATOM     32  C   UNL     1      -4.619  -5.124   1.793  0.00  0.00    -0.026 A 
ATOM     33  C   UNL     1      -3.438  -4.401   1.926  0.00  0.00    +0.052 A 
ATOM     34  N   UNL     1      -3.074  -3.853   3.137  0.00  0.00    -0.322 N 
ATOM     35  H   UNL     1      -3.650  -3.973   3.908  0.00  0.00    +0.169 HD
ATOM     36  C   UNL     1      -1.932  -3.154   3.265  0.00  0.00    +0.251 A 
ATOM     37  O   UNL     1      -1.643  -2.683   4.352  0.00  0.00    -0.268 OA
ATOM     38  C   UNL     1      -5.524  -5.319   2.982  0.00  0.00    +0.046 C 
ATOM     39  C   UNL     1      -2.079  -4.602  -1.630  0.00  0.00    +0.044 C 
ENDBRANCH  25  26
ENDBRANCH   1  25
TORSDOF 8
